last_page:0x200000000000000
VMEM_RES_CAP:0x100000
PAGE_SIZE:4096
LOG2_PAGE_SIZE:12
LOG2_PAGE_TABLE_SIZE:9
page_table_levels:5
WARNING: physical memory size is smaller than virtual memory size
FDiP enabled with aggresivity 16

*** ChampSim Multicore Out-of-Order Simulator ***

Warmup Instructions: 50000000
Simulation Instructions: 100000000
Number of CPUs: 1
Small page size: 4096
Large page size: 2097152

CPU 0 Bimodal branch predictor
Basic BTB sets: 1024 ways: 8 indirect buffer size: 4096 RAS size: 64
Instruction page size distrubution: 0
Loading instruction page size distribution from /home/bsc/bsc018186/scratch/itp_asplos25_AE/dump/smt_srv540_ap_srv298_ap_1024i.pdst
Data page size distrubution: 0
Loading data page size distribution from /home/bsc/bsc018186/scratch/itp_asplos25_AE/dump/smt_srv540_ap_srv298_ap_1024i.pdst
cpu0_L2C IP-based stride prefetcher
cpu0_L1D next line prefetcher
CHiRPing...
cpu0_L1I next line prefetcher
Off-chip DRAM Size: 4 GiB Channels: 1 Width: 64-bit Data Rate: 3200 MT/s
Heartbeat CPU 0 instructions: 10000001 cycles: 2500486 heartbeat IPC: 3.99923 cumulative IPC: 3.99923 (Simulation time: 0 hr 0 min 40 sec) 
Heartbeat CPU 0 instructions: 20000003 cycles: 5000649 heartbeat IPC: 3.99975 cumulative IPC: 3.99949 (Simulation time: 0 hr 1 min 21 sec) 
Heartbeat CPU 0 instructions: 30000001 cycles: 7500914 heartbeat IPC: 3.99958 cumulative IPC: 3.99952 (Simulation time: 0 hr 2 min 3 sec) 
Heartbeat CPU 0 instructions: 40000002 cycles: 10001130 heartbeat IPC: 3.99966 cumulative IPC: 3.99955 (Simulation time: 0 hr 2 min 46 sec) 
Heartbeat CPU 0 instructions: 50000003 cycles: 12501384 heartbeat IPC: 3.9996 cumulative IPC: 3.99956 (Simulation time: 0 hr 3 min 29 sec) 
Warmup finished CPU 0 instructions: 50000003 cycles: 12501385 cumulative IPC: 3.99956 (Simulation time: 0 hr 3 min 29 sec) 

Warmup complete CPU 0 instructions: 50000003 cycles: 12501385 (Simulation time: 0 hr 3 min 29 sec) 

Heartbeat CPU 0 instructions: 60000000 cycles: 38624310 heartbeat IPC: 0.382806 cumulative IPC: 0.382806 (Simulation time: 0 hr 4 min 51 sec) 
Heartbeat CPU 0 instructions: 70000001 cycles: 63717029 heartbeat IPC: 0.398523 cumulative IPC: 0.390506 (Simulation time: 0 hr 6 min 12 sec) 
Heartbeat CPU 0 instructions: 80000000 cycles: 89695761 heartbeat IPC: 0.384931 cumulative IPC: 0.38863 (Simulation time: 0 hr 7 min 34 sec) 
Heartbeat CPU 0 instructions: 90000000 cycles: 116275996 heartbeat IPC: 0.37622 cumulative IPC: 0.385451 (Simulation time: 0 hr 8 min 57 sec) 
Heartbeat CPU 0 instructions: 100000003 cycles: 142928067 heartbeat IPC: 0.375206 cumulative IPC: 0.383358 (Simulation time: 0 hr 10 min 21 sec) 
Heartbeat CPU 0 instructions: 110000003 cycles: 168873899 heartbeat IPC: 0.385419 cumulative IPC: 0.3837 (Simulation time: 0 hr 11 min 43 sec) 
Heartbeat CPU 0 instructions: 120000000 cycles: 194597184 heartbeat IPC: 0.388753 cumulative IPC: 0.384414 (Simulation time: 0 hr 13 min 5 sec) 
Heartbeat CPU 0 instructions: 130000000 cycles: 221845178 heartbeat IPC: 0.367 cumulative IPC: 0.382147 (Simulation time: 0 hr 14 min 29 sec) 
Heartbeat CPU 0 instructions: 140000002 cycles: 248554738 heartbeat IPC: 0.374398 cumulative IPC: 0.38127 (Simulation time: 0 hr 15 min 52 sec) 
Heartbeat CPU 0 instructions: 150000001 cycles: 274321484 heartbeat IPC: 0.388098 cumulative IPC: 0.381942 (Simulation time: 0 hr 17 min 14 sec) 
Simulation finished CPU 0 instructions: 100000003 cycles: 261820101 cumulative IPC: 0.381942 (Simulation time: 0 hr 17 min 14 sec) 

Simulation complete CPU 0 instructions: 100000003 cycles: 261820101 (Simulation time: 0 hr 17 min 14 sec) 


ChampSim completed all CPUs

Saving instructions large page distribution to /home/bsc/bsc018186/scratch/itp_asplos25_AE/dump/smt_srv540_ap_srv298_ap_1024i.pdst...
Saving data large page distribution to /home/bsc/bsc018186/scratch/itp_asplos25_AE/dump/smt_srv540_ap_srv298_ap_1024i.pdst...
=== Simulation ===
CPU 0 runs /gpfs/projects/bsc18/MN4/bsc18/romol/ChampSim/traces/qualcomm_srv/smt_srv540_ap_srv298_ap_1024i.champsimtrace.xz

Region of Interest Statistics

CPU 0 cumulative IPC: 0.381942 instructions: 100000003 cycles: 261820101
CPU 0 Branch Prediction Accuracy: 76.1315% MPKI: 42.9715 Average ROB Occupancy at Mispredict: 11.109
Branch type MPKI
BRANCH_DIRECT_JUMP: 1.27463
BRANCH_INDIRECT: 22.4613
BRANCH_CONDITIONAL: 12.4163
BRANCH_DIRECT_CALL: 2.44886
BRANCH_INDIRECT_CALL: 0.93756
BRANCH_RETURN: 3.43288

Instructions large pages: 0
Instructions small pages: 13216
Large page distribution for instructions: 0%

Data large pages: 0
Data small pages: 11943
Large page distribution for data: 0%

cpu0_L1I TOTAL       ACCESS:   39476626  HIT:   30296276  MISS:    9180350  iACCESS:   39476626  iHIT:   30296276  iMISS:    9180350  dACCESS:          0  dHIT:          0  dMISS:          0  itACCESS:          0  itHIT:          0  itMISS:          0  dtACCESS:          0  dtHIT:          0  dtMISS:          0
cpu0_L1I LOAD         ACCESS:   11856179  HIT:    9353872  MISS:    2502307  iACCESS:   11856179  iHIT:    9353872  iMISS:    2502307  dACCESS:          0  dHIT:          0  dMISS:          0  itACCESS:          0  itHIT:          0  itMISS:          0  dtACCESS:          0  dtHIT:          0  dtMISS:          0
cpu0_L1I RFO          ACCESS:          0  HIT:          0  MISS:          0  iACCESS:          0  iHIT:          0  iMISS:          0  dACCESS:          0  dHIT:          0  dMISS:          0  itACCESS:          0  itHIT:          0  itMISS:          0  dtACCESS:          0  dtHIT:          0  dtMISS:          0
cpu0_L1I PREFETCH     ACCESS:   27620447  HIT:   20942404  MISS:    6678043  iACCESS:   27620447  iHIT:   20942404  iMISS:    6678043  dACCESS:          0  dHIT:          0  dMISS:          0  itACCESS:          0  itHIT:          0  itMISS:          0  dtACCESS:          0  dtHIT:          0  dtMISS:          0
cpu0_L1I WRITE        ACCESS:          0  HIT:          0  MISS:          0  iACCESS:          0  iHIT:          0  iMISS:          0  dACCESS:          0  dHIT:          0  dMISS:          0  itACCESS:          0  itHIT:          0  itMISS:          0  dtACCESS:          0  dtHIT:          0  dtMISS:          0
cpu0_L1I TRANSLATION  ACCESS:          0  HIT:          0  MISS:          0  iACCESS:          0  iHIT:          0  iMISS:          0  dACCESS:          0  dHIT:          0  dMISS:          0  itACCESS:          0  itHIT:          0  itMISS:          0  dtACCESS:          0  dtHIT:          0  dtMISS:          0
cpu0_L1I PREFETCH  REQUESTED:   30290751  ISSUED:   30288874  CROSSED:          0  USEFUL:    2187650  USELESS:     749188
cpu0_L1I AVERAGE iMISS LATENCY: 22.7313 cycles
cpu0_L1I AVERAGE dMISS LATENCY: 0 cycles
cpu0_L1I AVERAGE itMISS LATENCY: 0 cycles
cpu0_L1I AVERAGE dtMISS LATENCY: 0 cycles
cpu0_L1I PAGE CROSSINGS (TLB HIT):         0 
cpu0_L1I PAGE CROSSINGS (TLB MISS):         0 
cpu0_L1I AVERAGE MISS LATENCY: 22.7313 cycles
cpu0_ITLB TOTAL       ACCESS:   33060036  HIT:   30868255  MISS:    2191781  iACCESS:   33060036  iHIT:   30868255  iMISS:    2191781  dACCESS:          0  dHIT:          0  dMISS:          0  itACCESS:          0  itHIT:          0  itMISS:          0  dtACCESS:          0  dtHIT:          0  dtMISS:          0
cpu0_ITLB LOAD         ACCESS:   33060036  HIT:   30868255  MISS:    2191781  iACCESS:   33060036  iHIT:   30868255  iMISS:    2191781  dACCESS:          0  dHIT:          0  dMISS:          0  itACCESS:          0  itHIT:          0  itMISS:          0  dtACCESS:          0  dtHIT:          0  dtMISS:          0
cpu0_ITLB RFO          ACCESS:          0  HIT:          0  MISS:          0  iACCESS:          0  iHIT:          0  iMISS:          0  dACCESS:          0  dHIT:          0  dMISS:          0  itACCESS:          0  itHIT:          0  itMISS:          0  dtACCESS:          0  dtHIT:          0  dtMISS:          0
cpu0_ITLB PREFETCH     ACCESS:          0  HIT:          0  MISS:          0  iACCESS:          0  iHIT:          0  iMISS:          0  dACCESS:          0  dHIT:          0  dMISS:          0  itACCESS:          0  itHIT:          0  itMISS:          0  dtACCESS:          0  dtHIT:          0  dtMISS:          0
cpu0_ITLB WRITE        ACCESS:          0  HIT:          0  MISS:          0  iACCESS:          0  iHIT:          0  iMISS:          0  dACCESS:          0  dHIT:          0  dMISS:          0  itACCESS:          0  itHIT:          0  itMISS:          0  dtACCESS:          0  dtHIT:          0  dtMISS:          0
cpu0_ITLB TRANSLATION  ACCESS:          0  HIT:          0  MISS:          0  iACCESS:          0  iHIT:          0  iMISS:          0  dACCESS:          0  dHIT:          0  dMISS:          0  itACCESS:          0  itHIT:          0  itMISS:          0  dtACCESS:          0  dtHIT:          0  dtMISS:          0
cpu0_ITLB PREFETCH  REQUESTED:          0  ISSUED:          0  CROSSED:          0  USEFUL:     381328  USELESS:      77209
cpu0_ITLB AVERAGE iMISS LATENCY: 7.36776 cycles
cpu0_ITLB AVERAGE dMISS LATENCY: 0 cycles
cpu0_ITLB AVERAGE itMISS LATENCY: 0 cycles
cpu0_ITLB AVERAGE dtMISS LATENCY: 0 cycles
cpu0_ITLB PAGE CROSSINGS (TLB HIT):         0 
cpu0_ITLB PAGE CROSSINGS (TLB MISS):         0 
cpu0_ITLB AVERAGE MISS LATENCY: 7.36776 cycles
cpu0_DTLB TOTAL       ACCESS:   28784438  HIT:   25088512  MISS:    3695926  iACCESS:          0  iHIT:          0  iMISS:          0  dACCESS:   28784438  dHIT:   25088512  dMISS:    3695926  itACCESS:          0  itHIT:          0  itMISS:          0  dtACCESS:          0  dtHIT:          0  dtMISS:          0
cpu0_DTLB LOAD         ACCESS:   28784438  HIT:   25088512  MISS:    3695926  iACCESS:          0  iHIT:          0  iMISS:          0  dACCESS:   28784438  dHIT:   25088512  dMISS:    3695926  itACCESS:          0  itHIT:          0  itMISS:          0  dtACCESS:          0  dtHIT:          0  dtMISS:          0
cpu0_DTLB RFO          ACCESS:          0  HIT:          0  MISS:          0  iACCESS:          0  iHIT:          0  iMISS:          0  dACCESS:          0  dHIT:          0  dMISS:          0  itACCESS:          0  itHIT:          0  itMISS:          0  dtACCESS:          0  dtHIT:          0  dtMISS:          0
cpu0_DTLB PREFETCH     ACCESS:          0  HIT:          0  MISS:          0  iACCESS:          0  iHIT:          0  iMISS:          0  dACCESS:          0  dHIT:          0  dMISS:          0  itACCESS:          0  itHIT:          0  itMISS:          0  dtACCESS:          0  dtHIT:          0  dtMISS:          0
cpu0_DTLB WRITE        ACCESS:          0  HIT:          0  MISS:          0  iACCESS:          0  iHIT:          0  iMISS:          0  dACCESS:          0  dHIT:          0  dMISS:          0  itACCESS:          0  itHIT:          0  itMISS:          0  dtACCESS:          0  dtHIT:          0  dtMISS:          0
cpu0_DTLB TRANSLATION  ACCESS:          0  HIT:          0  MISS:          0  iACCESS:          0  iHIT:          0  iMISS:          0  dACCESS:          0  dHIT:          0  dMISS:          0  itACCESS:          0  itHIT:          0  itMISS:          0  dtACCESS:          0  dtHIT:          0  dtMISS:          0
cpu0_DTLB PREFETCH  REQUESTED:          0  ISSUED:          0  CROSSED:          0  USEFUL:          0  USELESS:          0
cpu0_DTLB AVERAGE iMISS LATENCY: 0 cycles
cpu0_DTLB AVERAGE dMISS LATENCY: 15.7918 cycles
cpu0_DTLB AVERAGE itMISS LATENCY: 0 cycles
cpu0_DTLB AVERAGE dtMISS LATENCY: 0 cycles
cpu0_DTLB PAGE CROSSINGS (TLB HIT):         0 
cpu0_DTLB PAGE CROSSINGS (TLB MISS):         0 
cpu0_DTLB AVERAGE MISS LATENCY: 15.7918 cycles
cpu0_STLB TOTAL       ACCESS:    2590287  HIT:    2235749  MISS:     354538  iACCESS:     458549  iHIT:     353192  iMISS:     105357  dACCESS:    2131738  dHIT:    1882557  dMISS:     249181  itACCESS:          0  itHIT:          0  itMISS:          0  dtACCESS:          0  dtHIT:          0  dtMISS:          0
cpu0_STLB LOAD         ACCESS:    2590287  HIT:    2235749  MISS:     354538  iACCESS:     458549  iHIT:     353192  iMISS:     105357  dACCESS:    2131738  dHIT:    1882557  dMISS:     249181  itACCESS:          0  itHIT:          0  itMISS:          0  dtACCESS:          0  dtHIT:          0  dtMISS:          0
cpu0_STLB RFO          ACCESS:          0  HIT:          0  MISS:          0  iACCESS:          0  iHIT:          0  iMISS:          0  dACCESS:          0  dHIT:          0  dMISS:          0  itACCESS:          0  itHIT:          0  itMISS:          0  dtACCESS:          0  dtHIT:          0  dtMISS:          0
cpu0_STLB PREFETCH     ACCESS:          0  HIT:          0  MISS:          0  iACCESS:          0  iHIT:          0  iMISS:          0  dACCESS:          0  dHIT:          0  dMISS:          0  itACCESS:          0  itHIT:          0  itMISS:          0  dtACCESS:          0  dtHIT:          0  dtMISS:          0
cpu0_STLB WRITE        ACCESS:          0  HIT:          0  MISS:          0  iACCESS:          0  iHIT:          0  iMISS:          0  dACCESS:          0  dHIT:          0  dMISS:          0  itACCESS:          0  itHIT:          0  itMISS:          0  dtACCESS:          0  dtHIT:          0  dtMISS:          0
cpu0_STLB TRANSLATION  ACCESS:          0  HIT:          0  MISS:          0  iACCESS:          0  iHIT:          0  iMISS:          0  dACCESS:          0  dHIT:          0  dMISS:          0  itACCESS:          0  itHIT:          0  itMISS:          0  dtACCESS:          0  dtHIT:          0  dtMISS:          0
cpu0_STLB PREFETCH  REQUESTED:          0  ISSUED:          0  CROSSED:          0  USEFUL:          0  USELESS:          0
cpu0_STLB AVERAGE iMISS LATENCY: 35.2336 cycles
cpu0_STLB AVERAGE dMISS LATENCY: 116.327 cycles
cpu0_STLB AVERAGE itMISS LATENCY: 0 cycles
cpu0_STLB AVERAGE dtMISS LATENCY: 0 cycles
cpu0_STLB PAGE CROSSINGS (TLB HIT):         0 
cpu0_STLB PAGE CROSSINGS (TLB MISS):         0 
cpu0_STLB AVERAGE MISS LATENCY: 151.561 cycles
cpu0_L1D TOTAL       ACCESS:   44351754  HIT:   38982684  MISS:    5369070  iACCESS:          0  iHIT:          0  iMISS:          0  dACCESS:   43829042  dHIT:   38948483  dMISS:    4880559  itACCESS:     118617  itHIT:      13937  itMISS:     104680  dtACCESS:     404095  dtHIT:      20264  dtMISS:     383831
cpu0_L1D LOAD         ACCESS:   20010040  HIT:   17829089  MISS:    2180951  iACCESS:          0  iHIT:          0  iMISS:          0  dACCESS:   20010040  dHIT:   17829089  dMISS:    2180951  itACCESS:          0  itHIT:          0  itMISS:          0  dtACCESS:          0  dtHIT:          0  dtMISS:          0
cpu0_L1D RFO          ACCESS:          0  HIT:          0  MISS:          0  iACCESS:          0  iHIT:          0  iMISS:          0  dACCESS:          0  dHIT:          0  dMISS:          0  itACCESS:          0  itHIT:          0  itMISS:          0  dtACCESS:          0  dtHIT:          0  dtMISS:          0
cpu0_L1D PREFETCH     ACCESS:   13659287  HIT:   11511996  MISS:    2147291  iACCESS:          0  iHIT:          0  iMISS:          0  dACCESS:   13659287  dHIT:   11511996  dMISS:    2147291  itACCESS:          0  itHIT:          0  itMISS:          0  dtACCESS:          0  dtHIT:          0  dtMISS:          0
cpu0_L1D WRITE        ACCESS:   10159715  HIT:    9607398  MISS:     552317  iACCESS:          0  iHIT:          0  iMISS:          0  dACCESS:   10159715  dHIT:    9607398  dMISS:     552317  itACCESS:          0  itHIT:          0  itMISS:          0  dtACCESS:          0  dtHIT:          0  dtMISS:          0
cpu0_L1D TRANSLATION  ACCESS:     522712  HIT:      34201  MISS:     488511  iACCESS:          0  iHIT:          0  iMISS:          0  dACCESS:          0  dHIT:          0  dMISS:          0  itACCESS:     118617  itHIT:      13937  itMISS:     104680  dtACCESS:     404095  dtHIT:      20264  dtMISS:     383831
cpu0_L1D PREFETCH  REQUESTED:   20010040  ISSUED:   18295939  CROSSED:          0  USEFUL:     357674  USELESS:     918491
cpu0_L1D AVERAGE iMISS LATENCY: 0 cycles
cpu0_L1D AVERAGE dMISS LATENCY: 50.5444 cycles
cpu0_L1D AVERAGE itMISS LATENCY: 2.14447 cycles
cpu0_L1D AVERAGE dtMISS LATENCY: 6.73956 cycles
cpu0_L1D PAGE CROSSINGS (TLB HIT):         0 
cpu0_L1D PAGE CROSSINGS (TLB MISS):         0 
cpu0_L1D AVERAGE MISS LATENCY: 59.4284 cycles
cpu0_L2C TOTAL       ACCESS:    8479361  HIT:    1559622  MISS:    6919739  iACCESS:    3737643  iHIT:     811371  iMISS:    2926272  dACCESS:    4281820  dHIT:     557781  dMISS:    3724039  itACCESS:     103929  itHIT:      36705  itMISS:      67224  dtACCESS:     355969  dtHIT:     153765  dtMISS:     202204
cpu0_L2C LOAD         ACCESS:    2023164  HIT:     220294  MISS:    1802870  iACCESS:     838314  iHIT:     119795  iMISS:     718519  dACCESS:    1184850  dHIT:     100499  dMISS:    1084351  itACCESS:          0  itHIT:          0  itMISS:          0  dtACCESS:          0  dtHIT:          0  dtMISS:          0
cpu0_L2C RFO          ACCESS:     212622  HIT:      31936  MISS:     180686  iACCESS:          0  iHIT:          0  iMISS:          0  dACCESS:     212622  dHIT:      31936  dMISS:     180686  itACCESS:          0  itHIT:          0  itMISS:          0  dtACCESS:          0  dtHIT:          0  dtMISS:          0
cpu0_L2C PREFETCH     ACCESS:    5434395  HIT:    1011538  MISS:    4422857  iACCESS:    2899329  iHIT:     691576  iMISS:    2207753  dACCESS:    2535066  dHIT:     319962  dMISS:    2215104  itACCESS:          0  itHIT:          0  itMISS:          0  dtACCESS:          0  dtHIT:          0  dtMISS:          0
cpu0_L2C WRITE        ACCESS:     349282  HIT:     105384  MISS:     243898  iACCESS:          0  iHIT:          0  iMISS:          0  dACCESS:     349282  dHIT:     105384  dMISS:     243898  itACCESS:          0  itHIT:          0  itMISS:          0  dtACCESS:          0  dtHIT:          0  dtMISS:          0
cpu0_L2C TRANSLATION  ACCESS:     459898  HIT:     190470  MISS:     269428  iACCESS:          0  iHIT:          0  iMISS:          0  dACCESS:          0  dHIT:          0  dMISS:          0  itACCESS:     103929  itHIT:      36705  itMISS:      67224  dtACCESS:     355969  dtHIT:     153765  dtMISS:     202204
cpu0_L2C PREFETCH  REQUESTED:    1506281  ISSUED:    1506281  CROSSED:          0  USEFUL:     409126  USELESS:     476982
cpu0_L2C AVERAGE iMISS LATENCY: 25.4438 cycles
cpu0_L2C AVERAGE dMISS LATENCY: 48.1241 cycles
cpu0_L2C AVERAGE itMISS LATENCY: 1.51864 cycles
cpu0_L2C AVERAGE dtMISS LATENCY: 4.73482 cycles
cpu0_L2C PAGE CROSSINGS (TLB HIT):         0 
cpu0_L2C PAGE CROSSINGS (TLB MISS):         0 
cpu0_L2C AVERAGE MISS LATENCY: 79.8212 cycles
LLC TOTAL       ACCESS:    6734718  HIT:    4236997  MISS:    2497721  iACCESS:    2833531  iHIT:    2059586  iMISS:     773945  dACCESS:    3631759  dHIT:    2111457  dMISS:    1520302  itACCESS:      67224  itHIT:      15987  itMISS:      51237  dtACCESS:     202204  dtHIT:      49967  dtMISS:     152237
LLC LOAD         ACCESS:    1797297  HIT:    1195422  MISS:     601875  iACCESS:     717086  iHIT:     554338  iMISS:     162748  dACCESS:    1080211  dHIT:     641084  dMISS:     439127  itACCESS:          0  itHIT:          0  itMISS:          0  dtACCESS:          0  dtHIT:          0  dtMISS:          0
LLC RFO          ACCESS:     180671  HIT:      97251  MISS:      83420  iACCESS:          0  iHIT:          0  iMISS:          0  dACCESS:     180671  dHIT:      97251  dMISS:      83420  itACCESS:          0  itHIT:          0  itMISS:          0  dtACCESS:          0  dtHIT:          0  dtMISS:          0
LLC PREFETCH     ACCESS:    4215143  HIT:    2613082  MISS:    1602061  iACCESS:    2116445  iHIT:    1505248  iMISS:     611197  dACCESS:    2098698  dHIT:    1107834  dMISS:     990864  itACCESS:          0  itHIT:          0  itMISS:          0  dtACCESS:          0  dtHIT:          0  dtMISS:          0
LLC WRITE        ACCESS:     272179  HIT:     265288  MISS:       6891  iACCESS:          0  iHIT:          0  iMISS:          0  dACCESS:     272179  dHIT:     265288  dMISS:       6891  itACCESS:          0  itHIT:          0  itMISS:          0  dtACCESS:          0  dtHIT:          0  dtMISS:          0
LLC TRANSLATION  ACCESS:     269428  HIT:      65954  MISS:     203474  iACCESS:          0  iHIT:          0  iMISS:          0  dACCESS:          0  dHIT:          0  dMISS:          0  itACCESS:      67224  itHIT:      15987  itMISS:      51237  dtACCESS:     202204  dtHIT:      49967  dtMISS:     152237
LLC PREFETCH  REQUESTED:          0  ISSUED:          0  CROSSED:          0  USEFUL:          0  USELESS:          0
LLC AVERAGE iMISS LATENCY: 48.4751 cycles
LLC AVERAGE dMISS LATENCY: 107.985 cycles
LLC AVERAGE itMISS LATENCY: 3.67719 cycles
LLC AVERAGE dtMISS LATENCY: 11.5238 cycles
LLC PAGE CROSSINGS (TLB HIT):         0 
LLC PAGE CROSSINGS (TLB MISS):         0 
LLC AVERAGE MISS LATENCY: 171.661 cycles

PageTableWalker TOTAL       ACCESS:     181455  
PageTableWalker AVERAGE LATENCY: 5.81927 cycles
PageTableWalker TOTAL LATENCY: 1055934 cycles

DRAM Statistics
Channel 0
 RQ ROW_BUFFER_HIT:     560705
  ROW_BUFFER_MISS:    1918647
 AVG DBUS CONGESTED CYCLE:    3.64904
 WQ ROW_BUFFER_HIT:      61593
  ROW_BUFFER_MISS:      58598  FULL:          0

