last_page:0x200000000000000
VMEM_RES_CAP:0x100000
PAGE_SIZE:4096
LOG2_PAGE_SIZE:12
LOG2_PAGE_TABLE_SIZE:9
page_table_levels:5
WARNING: physical memory size is smaller than virtual memory size
FDiP enabled with aggresivity 16

*** ChampSim Multicore Out-of-Order Simulator ***

Warmup Instructions: 50000000
Simulation Instructions: 100000000
Number of CPUs: 1
Small page size: 4096
Large page size: 2097152

CPU 0 Bimodal branch predictor
Basic BTB sets: 1024 ways: 8 indirect buffer size: 4096 RAS size: 64
Instruction page size distrubution: 0
Loading instruction page size distribution from /home/bsc/bsc018186/scratch/itp_asplos25_AE/dump/smt_srv85_ap_srv259_ap_1024i.pdst
Data page size distrubution: 0
Loading data page size distribution from /home/bsc/bsc018186/scratch/itp_asplos25_AE/dump/smt_srv85_ap_srv259_ap_1024i.pdst
cpu0_L2C IP-based stride prefetcher
cpu0_L1D next line prefetcher
CHiRPing...
cpu0_L1I next line prefetcher
Off-chip DRAM Size: 4 GiB Channels: 1 Width: 64-bit Data Rate: 3200 MT/s
Heartbeat CPU 0 instructions: 10000002 cycles: 2500416 heartbeat IPC: 3.99934 cumulative IPC: 3.99934 (Simulation time: 0 hr 0 min 42 sec) 
Heartbeat CPU 0 instructions: 20000000 cycles: 5000801 heartbeat IPC: 3.99939 cumulative IPC: 3.99936 (Simulation time: 0 hr 1 min 26 sec) 
Heartbeat CPU 0 instructions: 30000001 cycles: 7501076 heartbeat IPC: 3.99957 cumulative IPC: 3.99943 (Simulation time: 0 hr 2 min 7 sec) 
Heartbeat CPU 0 instructions: 40000000 cycles: 10001644 heartbeat IPC: 3.9991 cumulative IPC: 3.99935 (Simulation time: 0 hr 2 min 50 sec) 
Heartbeat CPU 0 instructions: 50000002 cycles: 12501959 heartbeat IPC: 3.9995 cumulative IPC: 3.99938 (Simulation time: 0 hr 3 min 32 sec) 
Warmup finished CPU 0 instructions: 50000002 cycles: 12501960 cumulative IPC: 3.99938 (Simulation time: 0 hr 3 min 32 sec) 

Warmup complete CPU 0 instructions: 50000002 cycles: 12501960 (Simulation time: 0 hr 3 min 32 sec) 

Heartbeat CPU 0 instructions: 60000000 cycles: 40713883 heartbeat IPC: 0.35446 cumulative IPC: 0.35446 (Simulation time: 0 hr 4 min 58 sec) 
Heartbeat CPU 0 instructions: 70000002 cycles: 70675109 heartbeat IPC: 0.333765 cumulative IPC: 0.343802 (Simulation time: 0 hr 6 min 26 sec) 
Heartbeat CPU 0 instructions: 80000002 cycles: 100007661 heartbeat IPC: 0.340919 cumulative IPC: 0.342835 (Simulation time: 0 hr 7 min 53 sec) 
Heartbeat CPU 0 instructions: 90000002 cycles: 128573845 heartbeat IPC: 0.350065 cumulative IPC: 0.344615 (Simulation time: 0 hr 9 min 18 sec) 
Heartbeat CPU 0 instructions: 100000000 cycles: 158217033 heartbeat IPC: 0.337346 cumulative IPC: 0.343136 (Simulation time: 0 hr 10 min 45 sec) 
Heartbeat CPU 0 instructions: 110000002 cycles: 187790658 heartbeat IPC: 0.33814 cumulative IPC: 0.342293 (Simulation time: 0 hr 12 min 11 sec) 
Heartbeat CPU 0 instructions: 120000001 cycles: 216399950 heartbeat IPC: 0.349537 cumulative IPC: 0.343309 (Simulation time: 0 hr 13 min 36 sec) 
Heartbeat CPU 0 instructions: 130000002 cycles: 247039750 heartbeat IPC: 0.326373 cumulative IPC: 0.341097 (Simulation time: 0 hr 15 min 4 sec) 
Heartbeat CPU 0 instructions: 140000004 cycles: 274982302 heartbeat IPC: 0.357878 cumulative IPC: 0.342883 (Simulation time: 0 hr 16 min 28 sec) 
Heartbeat CPU 0 instructions: 150000000 cycles: 305160895 heartbeat IPC: 0.331361 cumulative IPC: 0.341695 (Simulation time: 0 hr 17 min 54 sec) 
Simulation finished CPU 0 instructions: 100000003 cycles: 292658937 cumulative IPC: 0.341695 (Simulation time: 0 hr 17 min 54 sec) 

Simulation complete CPU 0 instructions: 100000003 cycles: 292658937 (Simulation time: 0 hr 17 min 54 sec) 


ChampSim completed all CPUs

Saving instructions large page distribution to /home/bsc/bsc018186/scratch/itp_asplos25_AE/dump/smt_srv85_ap_srv259_ap_1024i.pdst...
Saving data large page distribution to /home/bsc/bsc018186/scratch/itp_asplos25_AE/dump/smt_srv85_ap_srv259_ap_1024i.pdst...
=== Simulation ===
CPU 0 runs /gpfs/projects/bsc18/MN4/bsc18/romol/ChampSim/traces/qualcomm_srv/smt_srv85_ap_srv259_ap_1024i.champsimtrace.xz

Region of Interest Statistics

CPU 0 cumulative IPC: 0.341695 instructions: 100000003 cycles: 292658937
CPU 0 Branch Prediction Accuracy: 76.3208% MPKI: 42.6441 Average ROB Occupancy at Mispredict: 11.4465
Branch type MPKI
BRANCH_DIRECT_JUMP: 1.33389
BRANCH_INDIRECT: 22.7744
BRANCH_CONDITIONAL: 11.6746
BRANCH_DIRECT_CALL: 2.44995
BRANCH_INDIRECT_CALL: 0.99181
BRANCH_RETURN: 3.41944

Instructions large pages: 0
Instructions small pages: 9620
Large page distribution for instructions: 0%

Data large pages: 0
Data small pages: 8501
Large page distribution for data: 0%

cpu0_L1I TOTAL       ACCESS:   38886304  HIT:   30124815  MISS:    8761489  iACCESS:   38886304  iHIT:   30124815  iMISS:    8761489  dACCESS:          0  dHIT:          0  dMISS:          0  itACCESS:          0  itHIT:          0  itMISS:          0  dtACCESS:          0  dtHIT:          0  dtMISS:          0
cpu0_L1I LOAD         ACCESS:   11687187  HIT:    9275832  MISS:    2411355  iACCESS:   11687187  iHIT:    9275832  iMISS:    2411355  dACCESS:          0  dHIT:          0  dMISS:          0  itACCESS:          0  itHIT:          0  itMISS:          0  dtACCESS:          0  dtHIT:          0  dtMISS:          0
cpu0_L1I RFO          ACCESS:          0  HIT:          0  MISS:          0  iACCESS:          0  iHIT:          0  iMISS:          0  dACCESS:          0  dHIT:          0  dMISS:          0  itACCESS:          0  itHIT:          0  itMISS:          0  dtACCESS:          0  dtHIT:          0  dtMISS:          0
cpu0_L1I PREFETCH     ACCESS:   27199117  HIT:   20848983  MISS:    6350134  iACCESS:   27199117  iHIT:   20848983  iMISS:    6350134  dACCESS:          0  dHIT:          0  dMISS:          0  itACCESS:          0  itHIT:          0  itMISS:          0  dtACCESS:          0  dtHIT:          0  dtMISS:          0
cpu0_L1I WRITE        ACCESS:          0  HIT:          0  MISS:          0  iACCESS:          0  iHIT:          0  iMISS:          0  dACCESS:          0  dHIT:          0  dMISS:          0  itACCESS:          0  itHIT:          0  itMISS:          0  dtACCESS:          0  dtHIT:          0  dtMISS:          0
cpu0_L1I TRANSLATION  ACCESS:          0  HIT:          0  MISS:          0  iACCESS:          0  iHIT:          0  iMISS:          0  dACCESS:          0  dHIT:          0  dMISS:          0  itACCESS:          0  itHIT:          0  itMISS:          0  dtACCESS:          0  dtHIT:          0  dtMISS:          0
cpu0_L1I PREFETCH  REQUESTED:   30072507  ISSUED:   30072499  CROSSED:          0  USEFUL:    2201686  USELESS:     766641
cpu0_L1I AVERAGE iMISS LATENCY: 22.2079 cycles
cpu0_L1I AVERAGE dMISS LATENCY: 0 cycles
cpu0_L1I AVERAGE itMISS LATENCY: 0 cycles
cpu0_L1I AVERAGE dtMISS LATENCY: 0 cycles
cpu0_L1I PAGE CROSSINGS (TLB HIT):         0 
cpu0_L1I PAGE CROSSINGS (TLB MISS):         0 
cpu0_L1I AVERAGE MISS LATENCY: 22.2079 cycles
cpu0_ITLB TOTAL       ACCESS:   32819163  HIT:   30552966  MISS:    2266197  iACCESS:   32819163  iHIT:   30552966  iMISS:    2266197  dACCESS:          0  dHIT:          0  dMISS:          0  itACCESS:          0  itHIT:          0  itMISS:          0  dtACCESS:          0  dtHIT:          0  dtMISS:          0
cpu0_ITLB LOAD         ACCESS:   32819163  HIT:   30552966  MISS:    2266197  iACCESS:   32819163  iHIT:   30552966  iMISS:    2266197  dACCESS:          0  dHIT:          0  dMISS:          0  itACCESS:          0  itHIT:          0  itMISS:          0  dtACCESS:          0  dtHIT:          0  dtMISS:          0
cpu0_ITLB RFO          ACCESS:          0  HIT:          0  MISS:          0  iACCESS:          0  iHIT:          0  iMISS:          0  dACCESS:          0  dHIT:          0  dMISS:          0  itACCESS:          0  itHIT:          0  itMISS:          0  dtACCESS:          0  dtHIT:          0  dtMISS:          0
cpu0_ITLB PREFETCH     ACCESS:          0  HIT:          0  MISS:          0  iACCESS:          0  iHIT:          0  iMISS:          0  dACCESS:          0  dHIT:          0  dMISS:          0  itACCESS:          0  itHIT:          0  itMISS:          0  dtACCESS:          0  dtHIT:          0  dtMISS:          0
cpu0_ITLB WRITE        ACCESS:          0  HIT:          0  MISS:          0  iACCESS:          0  iHIT:          0  iMISS:          0  dACCESS:          0  dHIT:          0  dMISS:          0  itACCESS:          0  itHIT:          0  itMISS:          0  dtACCESS:          0  dtHIT:          0  dtMISS:          0
cpu0_ITLB TRANSLATION  ACCESS:          0  HIT:          0  MISS:          0  iACCESS:          0  iHIT:          0  iMISS:          0  dACCESS:          0  dHIT:          0  dMISS:          0  itACCESS:          0  itHIT:          0  itMISS:          0  dtACCESS:          0  dtHIT:          0  dtMISS:          0
cpu0_ITLB PREFETCH  REQUESTED:          0  ISSUED:          0  CROSSED:          0  USEFUL:     386243  USELESS:      82193
cpu0_ITLB AVERAGE iMISS LATENCY: 10.039 cycles
cpu0_ITLB AVERAGE dMISS LATENCY: 0 cycles
cpu0_ITLB AVERAGE itMISS LATENCY: 0 cycles
cpu0_ITLB AVERAGE dtMISS LATENCY: 0 cycles
cpu0_ITLB PAGE CROSSINGS (TLB HIT):         0 
cpu0_ITLB PAGE CROSSINGS (TLB MISS):         0 
cpu0_ITLB AVERAGE MISS LATENCY: 10.039 cycles
cpu0_DTLB TOTAL       ACCESS:   28789934  HIT:   25121405  MISS:    3668529  iACCESS:          0  iHIT:          0  iMISS:          0  dACCESS:   28789934  dHIT:   25121405  dMISS:    3668529  itACCESS:          0  itHIT:          0  itMISS:          0  dtACCESS:          0  dtHIT:          0  dtMISS:          0
cpu0_DTLB LOAD         ACCESS:   28789934  HIT:   25121405  MISS:    3668529  iACCESS:          0  iHIT:          0  iMISS:          0  dACCESS:   28789934  dHIT:   25121405  dMISS:    3668529  itACCESS:          0  itHIT:          0  itMISS:          0  dtACCESS:          0  dtHIT:          0  dtMISS:          0
cpu0_DTLB RFO          ACCESS:          0  HIT:          0  MISS:          0  iACCESS:          0  iHIT:          0  iMISS:          0  dACCESS:          0  dHIT:          0  dMISS:          0  itACCESS:          0  itHIT:          0  itMISS:          0  dtACCESS:          0  dtHIT:          0  dtMISS:          0
cpu0_DTLB PREFETCH     ACCESS:          0  HIT:          0  MISS:          0  iACCESS:          0  iHIT:          0  iMISS:          0  dACCESS:          0  dHIT:          0  dMISS:          0  itACCESS:          0  itHIT:          0  itMISS:          0  dtACCESS:          0  dtHIT:          0  dtMISS:          0
cpu0_DTLB WRITE        ACCESS:          0  HIT:          0  MISS:          0  iACCESS:          0  iHIT:          0  iMISS:          0  dACCESS:          0  dHIT:          0  dMISS:          0  itACCESS:          0  itHIT:          0  itMISS:          0  dtACCESS:          0  dtHIT:          0  dtMISS:          0
cpu0_DTLB TRANSLATION  ACCESS:          0  HIT:          0  MISS:          0  iACCESS:          0  iHIT:          0  iMISS:          0  dACCESS:          0  dHIT:          0  dMISS:          0  itACCESS:          0  itHIT:          0  itMISS:          0  dtACCESS:          0  dtHIT:          0  dtMISS:          0
cpu0_DTLB PREFETCH  REQUESTED:          0  ISSUED:          0  CROSSED:          0  USEFUL:          0  USELESS:          0
cpu0_DTLB AVERAGE iMISS LATENCY: 0 cycles
cpu0_DTLB AVERAGE dMISS LATENCY: 25.3317 cycles
cpu0_DTLB AVERAGE itMISS LATENCY: 0 cycles
cpu0_DTLB AVERAGE dtMISS LATENCY: 0 cycles
cpu0_DTLB PAGE CROSSINGS (TLB HIT):         0 
cpu0_DTLB PAGE CROSSINGS (TLB MISS):         0 
cpu0_DTLB AVERAGE MISS LATENCY: 25.3317 cycles
cpu0_STLB TOTAL       ACCESS:    2599616  HIT:    2219788  MISS:     379828  iACCESS:     468440  iHIT:     359980  iMISS:     108460  dACCESS:    2131176  dHIT:    1859808  dMISS:     271368  itACCESS:          0  itHIT:          0  itMISS:          0  dtACCESS:          0  dtHIT:          0  dtMISS:          0
cpu0_STLB LOAD         ACCESS:    2599616  HIT:    2219788  MISS:     379828  iACCESS:     468440  iHIT:     359980  iMISS:     108460  dACCESS:    2131176  dHIT:    1859808  dMISS:     271368  itACCESS:          0  itHIT:          0  itMISS:          0  dtACCESS:          0  dtHIT:          0  dtMISS:          0
cpu0_STLB RFO          ACCESS:          0  HIT:          0  MISS:          0  iACCESS:          0  iHIT:          0  iMISS:          0  dACCESS:          0  dHIT:          0  dMISS:          0  itACCESS:          0  itHIT:          0  itMISS:          0  dtACCESS:          0  dtHIT:          0  dtMISS:          0
cpu0_STLB PREFETCH     ACCESS:          0  HIT:          0  MISS:          0  iACCESS:          0  iHIT:          0  iMISS:          0  dACCESS:          0  dHIT:          0  dMISS:          0  itACCESS:          0  itHIT:          0  itMISS:          0  dtACCESS:          0  dtHIT:          0  dtMISS:          0
cpu0_STLB WRITE        ACCESS:          0  HIT:          0  MISS:          0  iACCESS:          0  iHIT:          0  iMISS:          0  dACCESS:          0  dHIT:          0  dMISS:          0  itACCESS:          0  itHIT:          0  itMISS:          0  dtACCESS:          0  dtHIT:          0  dtMISS:          0
cpu0_STLB TRANSLATION  ACCESS:          0  HIT:          0  MISS:          0  iACCESS:          0  iHIT:          0  iMISS:          0  dACCESS:          0  dHIT:          0  dMISS:          0  itACCESS:          0  itHIT:          0  itMISS:          0  dtACCESS:          0  dtHIT:          0  dtMISS:          0
cpu0_STLB PREFETCH  REQUESTED:          0  ISSUED:          0  CROSSED:          0  USEFUL:          0  USELESS:          0
cpu0_STLB AVERAGE iMISS LATENCY: 50.0459 cycles
cpu0_STLB AVERAGE dMISS LATENCY: 199.48 cycles
cpu0_STLB AVERAGE itMISS LATENCY: 0 cycles
cpu0_STLB AVERAGE dtMISS LATENCY: 0 cycles
cpu0_STLB PAGE CROSSINGS (TLB HIT):         0 
cpu0_STLB PAGE CROSSINGS (TLB MISS):         0 
cpu0_STLB AVERAGE MISS LATENCY: 249.525 cycles
cpu0_L1D TOTAL       ACCESS:   44902846  HIT:   39051273  MISS:    5851573  iACCESS:          0  iHIT:          0  iMISS:          0  dACCESS:   44338068  dHIT:   39020068  dMISS:    5318000  itACCESS:     124218  itHIT:      12307  itMISS:     111911  dtACCESS:     440560  dtHIT:      18898  dtMISS:     421662
cpu0_L1D LOAD         ACCESS:   20258929  HIT:   17865404  MISS:    2393525  iACCESS:          0  iHIT:          0  iMISS:          0  dACCESS:   20258929  dHIT:   17865404  dMISS:    2393525  itACCESS:          0  itHIT:          0  itMISS:          0  dtACCESS:          0  dtHIT:          0  dtMISS:          0
cpu0_L1D RFO          ACCESS:          0  HIT:          0  MISS:          0  iACCESS:          0  iHIT:          0  iMISS:          0  dACCESS:          0  dHIT:          0  dMISS:          0  itACCESS:          0  itHIT:          0  itMISS:          0  dtACCESS:          0  dtHIT:          0  dtMISS:          0
cpu0_L1D PREFETCH     ACCESS:   13954336  HIT:   11612981  MISS:    2341355  iACCESS:          0  iHIT:          0  iMISS:          0  dACCESS:   13954336  dHIT:   11612981  dMISS:    2341355  itACCESS:          0  itHIT:          0  itMISS:          0  dtACCESS:          0  dtHIT:          0  dtMISS:          0
cpu0_L1D WRITE        ACCESS:   10124803  HIT:    9541683  MISS:     583120  iACCESS:          0  iHIT:          0  iMISS:          0  dACCESS:   10124803  dHIT:    9541683  dMISS:     583120  itACCESS:          0  itHIT:          0  itMISS:          0  dtACCESS:          0  dtHIT:          0  dtMISS:          0
cpu0_L1D TRANSLATION  ACCESS:     564778  HIT:      31205  MISS:     533573  iACCESS:          0  iHIT:          0  iMISS:          0  dACCESS:          0  dHIT:          0  dMISS:          0  itACCESS:     124218  itHIT:      12307  itMISS:     111911  dtACCESS:     440560  dtHIT:      18898  dtMISS:     421662
cpu0_L1D PREFETCH  REQUESTED:   20258929  ISSUED:   18422986  CROSSED:          0  USEFUL:     355548  USELESS:     933914
cpu0_L1D AVERAGE iMISS LATENCY: 0 cycles
cpu0_L1D AVERAGE dMISS LATENCY: 49.5137 cycles
cpu0_L1D AVERAGE itMISS LATENCY: 3.07444 cycles
cpu0_L1D AVERAGE dtMISS LATENCY: 12.1513 cycles
cpu0_L1D PAGE CROSSINGS (TLB HIT):         0 
cpu0_L1D PAGE CROSSINGS (TLB MISS):         0 
cpu0_L1D AVERAGE MISS LATENCY: 64.7394 cycles
cpu0_L2C TOTAL       ACCESS:    8615928  HIT:    4190695  MISS:    4425233  iACCESS:    3790773  iHIT:    2320760  iMISS:    1470013  dACCESS:    4327760  dHIT:    1810953  dMISS:    2516807  itACCESS:     110023  itHIT:      17776  itMISS:      92247  dtACCESS:     387372  dtHIT:      41206  dtMISS:     346166
cpu0_L2C LOAD         ACCESS:    2079337  HIT:    1011208  MISS:    1068129  iACCESS:     860039  iHIT:     550715  iMISS:     309324  dACCESS:    1219298  dHIT:     460493  dMISS:     758805  itACCESS:          0  itHIT:          0  itMISS:          0  dtACCESS:          0  dtHIT:          0  dtMISS:          0
cpu0_L2C RFO          ACCESS:     215317  HIT:      83527  MISS:     131790  iACCESS:          0  iHIT:          0  iMISS:          0  dACCESS:     215317  dHIT:      83527  dMISS:     131790  itACCESS:          0  itHIT:          0  itMISS:          0  dtACCESS:          0  dtHIT:          0  dtMISS:          0
cpu0_L2C PREFETCH     ACCESS:    5481602  HIT:    2698650  MISS:    2782952  iACCESS:    2930734  iHIT:    1770045  iMISS:    1160689  dACCESS:    2550868  dHIT:     928605  dMISS:    1622263  itACCESS:          0  itHIT:          0  itMISS:          0  dtACCESS:          0  dtHIT:          0  dtMISS:          0
cpu0_L2C WRITE        ACCESS:     342277  HIT:     338328  MISS:       3949  iACCESS:          0  iHIT:          0  iMISS:          0  dACCESS:     342277  dHIT:     338328  dMISS:       3949  itACCESS:          0  itHIT:          0  itMISS:          0  dtACCESS:          0  dtHIT:          0  dtMISS:          0
cpu0_L2C TRANSLATION  ACCESS:     497395  HIT:      58982  MISS:     438413  iACCESS:          0  iHIT:          0  iMISS:          0  dACCESS:          0  dHIT:          0  dMISS:          0  itACCESS:     110023  itHIT:      17776  itMISS:      92247  dtACCESS:     387372  dtHIT:      41206  dtMISS:     346166
cpu0_L2C PREFETCH  REQUESTED:    1527749  ISSUED:    1527745  CROSSED:          0  USEFUL:     361409  USELESS:     307257
cpu0_L2C AVERAGE iMISS LATENCY: 36.601 cycles
cpu0_L2C AVERAGE dMISS LATENCY: 78.6989 cycles
cpu0_L2C AVERAGE itMISS LATENCY: 3.82004 cycles
cpu0_L2C AVERAGE dtMISS LATENCY: 15.1966 cycles
cpu0_L2C PAGE CROSSINGS (TLB HIT):         0 
cpu0_L2C PAGE CROSSINGS (TLB MISS):         0 
cpu0_L2C AVERAGE MISS LATENCY: 134.317 cycles
LLC TOTAL       ACCESS:    4441954  HIT:    1506075  MISS:    2935879  iACCESS:    1390188  iHIT:     539664  iMISS:     850524  dACCESS:    2613353  dHIT:     922054  dMISS:    1691299  itACCESS:      92247  itHIT:       7539  itMISS:      84708  dtACCESS:     346166  dtHIT:      36818  dtMISS:     309348
LLC LOAD         ACCESS:    1059723  HIT:     360687  MISS:     699036  iACCESS:     308024  iHIT:     126540  iMISS:     181484  dACCESS:     751699  dHIT:     234147  dMISS:     517552  itACCESS:          0  itHIT:          0  itMISS:          0  dtACCESS:          0  dtHIT:          0  dtMISS:          0
LLC RFO          ACCESS:     131784  HIT:      39033  MISS:      92751  iACCESS:          0  iHIT:          0  iMISS:          0  dACCESS:     131784  dHIT:      39033  dMISS:      92751  itACCESS:          0  itHIT:          0  itMISS:          0  dtACCESS:          0  dtHIT:          0  dtMISS:          0
LLC PREFETCH     ACCESS:    2600501  HIT:     860754  MISS:    1739747  iACCESS:    1082164  iHIT:     413124  iMISS:     669040  dACCESS:    1518337  dHIT:     447630  dMISS:    1070707  itACCESS:          0  itHIT:          0  itMISS:          0  dtACCESS:          0  dtHIT:          0  dtMISS:          0
LLC WRITE        ACCESS:     211533  HIT:     201244  MISS:      10289  iACCESS:          0  iHIT:          0  iMISS:          0  dACCESS:     211533  dHIT:     201244  dMISS:      10289  itACCESS:          0  itHIT:          0  itMISS:          0  dtACCESS:          0  dtHIT:          0  dtMISS:          0
LLC TRANSLATION  ACCESS:     438413  HIT:      44357  MISS:     394056  iACCESS:          0  iHIT:          0  iMISS:          0  dACCESS:          0  dHIT:          0  dMISS:          0  itACCESS:      92247  itHIT:       7539  itMISS:      84708  dtACCESS:     346166  dtHIT:      36818  dtMISS:     309348
LLC PREFETCH  REQUESTED:          0  ISSUED:          0  CROSSED:          0  USEFUL:          0  USELESS:          0
LLC AVERAGE iMISS LATENCY: 45.8633 cycles
LLC AVERAGE dMISS LATENCY: 103.559 cycles
LLC AVERAGE itMISS LATENCY: 5.13488 cycles
LLC AVERAGE dtMISS LATENCY: 20.5743 cycles
LLC PAGE CROSSINGS (TLB HIT):         0 
LLC PAGE CROSSINGS (TLB MISS):         0 
LLC AVERAGE MISS LATENCY: 175.131 cycles

PageTableWalker TOTAL       ACCESS:     189651  
PageTableWalker AVERAGE LATENCY: 6.52365 cycles
PageTableWalker TOTAL LATENCY: 1237216 cycles

DRAM Statistics
Channel 0
 RQ ROW_BUFFER_HIT:     589655
  ROW_BUFFER_MISS:    2315800
 AVG DBUS CONGESTED CYCLE:    3.64801
 WQ ROW_BUFFER_HIT:      67779
  ROW_BUFFER_MISS:      55787  FULL:          0

