last_page:0x200000000000000
VMEM_RES_CAP:0x100000
PAGE_SIZE:4096
LOG2_PAGE_SIZE:12
LOG2_PAGE_TABLE_SIZE:9
page_table_levels:5
WARNING: physical memory size is smaller than virtual memory size
FDiP enabled with aggresivity 16

*** ChampSim Multicore Out-of-Order Simulator ***

Warmup Instructions: 50000000
Simulation Instructions: 100000000
Number of CPUs: 1
Small page size: 4096
Large page size: 2097152

CPU 0 Bimodal branch predictor
Basic BTB sets: 1024 ways: 8 indirect buffer size: 4096 RAS size: 64
Instruction page size distrubution: 0
Loading instruction page size distribution from /home/bsc/bsc018186/scratch/itp_asplos25_AE/dump/smt_srv12_ap_srv128_ap_1024i.pdst
Data page size distrubution: 0
Loading data page size distribution from /home/bsc/bsc018186/scratch/itp_asplos25_AE/dump/smt_srv12_ap_srv128_ap_1024i.pdst
cpu0_L2C IP-based stride prefetcher
cpu0_L2C is using PTP replacement policy:
	TLB_STRESS_THRESHOLD:0
	PTE_EVICTION_RATIO:0
cpu0_L1D next line prefetcher
cpu0_STLB using iTP with max lru@8
cpu0_STLB using iTP with instr@0 and data@2
Init sat counter with 3 bits (max:50).
cpu0_L1I next line prefetcher
Off-chip DRAM Size: 4 GiB Channels: 1 Width: 64-bit Data Rate: 3200 MT/s
Heartbeat CPU 0 instructions: 10000002 cycles: 2500416 heartbeat IPC: 3.99934 cumulative IPC: 3.99934 (Simulation time: 0 hr 0 min 47 sec) 
Heartbeat CPU 0 instructions: 20000000 cycles: 5078784 heartbeat IPC: 3.87843 cumulative IPC: 3.93796 (Simulation time: 0 hr 1 min 36 sec) 
Heartbeat CPU 0 instructions: 30000001 cycles: 7661868 heartbeat IPC: 3.87135 cumulative IPC: 3.9155 (Simulation time: 0 hr 2 min 25 sec) 
Heartbeat CPU 0 instructions: 40000002 cycles: 10200847 heartbeat IPC: 3.9386 cumulative IPC: 3.92125 (Simulation time: 0 hr 3 min 13 sec) 
Heartbeat CPU 0 instructions: 50000000 cycles: 12700969 heartbeat IPC: 3.99981 cumulative IPC: 3.93671 (Simulation time: 0 hr 4 min 3 sec) 
Warmup finished CPU 0 instructions: 50000000 cycles: 12700970 cumulative IPC: 3.93671 (Simulation time: 0 hr 4 min 3 sec) 

Warmup complete CPU 0 instructions: 50000000 cycles: 12700970 (Simulation time: 0 hr 4 min 3 sec) 

Heartbeat CPU 0 instructions: 60000000 cycles: 43809266 heartbeat IPC: 0.321458 cumulative IPC: 0.321458 (Simulation time: 0 hr 5 min 47 sec) 
Heartbeat CPU 0 instructions: 70000000 cycles: 74525440 heartbeat IPC: 0.325562 cumulative IPC: 0.323497 (Simulation time: 0 hr 7 min 29 sec) 
Heartbeat CPU 0 instructions: 80000001 cycles: 106364681 heartbeat IPC: 0.314078 cumulative IPC: 0.320295 (Simulation time: 0 hr 9 min 15 sec) 
Heartbeat CPU 0 instructions: 90000000 cycles: 133004910 heartbeat IPC: 0.375373 cumulative IPC: 0.332492 (Simulation time: 0 hr 10 min 47 sec) 
Heartbeat CPU 0 instructions: 100000001 cycles: 164108962 heartbeat IPC: 0.321502 cumulative IPC: 0.330234 (Simulation time: 0 hr 12 min 29 sec) 
Heartbeat CPU 0 instructions: 110000000 cycles: 194851529 heartbeat IPC: 0.325282 cumulative IPC: 0.329398 (Simulation time: 0 hr 14 min 12 sec) 
Heartbeat CPU 0 instructions: 120000000 cycles: 225573408 heartbeat IPC: 0.325501 cumulative IPC: 0.328836 (Simulation time: 0 hr 15 min 58 sec) 
Heartbeat CPU 0 instructions: 130000000 cycles: 256423547 heartbeat IPC: 0.324148 cumulative IPC: 0.328243 (Simulation time: 0 hr 17 min 45 sec) 
Heartbeat CPU 0 instructions: 140000000 cycles: 287263402 heartbeat IPC: 0.324256 cumulative IPC: 0.327795 (Simulation time: 0 hr 19 min 29 sec) 
Heartbeat CPU 0 instructions: 150000002 cycles: 318989527 heartbeat IPC: 0.315198 cumulative IPC: 0.32649 (Simulation time: 0 hr 21 min 14 sec) 
Simulation finished CPU 0 instructions: 100000002 cycles: 306288558 cumulative IPC: 0.32649 (Simulation time: 0 hr 21 min 14 sec) 

Simulation complete CPU 0 instructions: 100000002 cycles: 306288558 (Simulation time: 0 hr 21 min 14 sec) 


ChampSim completed all CPUs

Saving instructions large page distribution to /home/bsc/bsc018186/scratch/itp_asplos25_AE/dump/smt_srv12_ap_srv128_ap_1024i.pdst...
Saving data large page distribution to /home/bsc/bsc018186/scratch/itp_asplos25_AE/dump/smt_srv12_ap_srv128_ap_1024i.pdst...
=== Simulation ===
CPU 0 runs /gpfs/projects/bsc18/MN4/bsc18/romol/ChampSim/traces/qualcomm_srv/smt_srv12_ap_srv128_ap_1024i.champsimtrace.xz

Region of Interest Statistics

CPU 0 cumulative IPC: 0.32649 instructions: 100000002 cycles: 306288558
CPU 0 Branch Prediction Accuracy: 74.5693% MPKI: 46.1111 Average ROB Occupancy at Mispredict: 10.567
Branch type MPKI
BRANCH_DIRECT_JUMP: 1.47274
BRANCH_INDIRECT: 23.5034
BRANCH_CONDITIONAL: 13.5821
BRANCH_DIRECT_CALL: 2.82673
BRANCH_INDIRECT_CALL: 1.14497
BRANCH_RETURN: 3.5812

Instructions large pages: 0
Instructions small pages: 11454
Large page distribution for instructions: 0%

Data large pages: 0
Data small pages: 9589
Large page distribution for data: 0%

cpu0_L1I TOTAL       ACCESS:   39311181  HIT:   30618657  MISS:    8692524  iACCESS:   39311181  iHIT:   30618657  iMISS:    8692524  dACCESS:          0  dHIT:          0  dMISS:          0  itACCESS:          0  itHIT:          0  itMISS:          0  dtACCESS:          0  dtHIT:          0  dtMISS:          0
cpu0_L1I LOAD         ACCESS:   11689253  HIT:    9333271  MISS:    2355982  iACCESS:   11689253  iHIT:    9333271  iMISS:    2355982  dACCESS:          0  dHIT:          0  dMISS:          0  itACCESS:          0  itHIT:          0  itMISS:          0  dtACCESS:          0  dtHIT:          0  dtMISS:          0
cpu0_L1I RFO          ACCESS:          0  HIT:          0  MISS:          0  iACCESS:          0  iHIT:          0  iMISS:          0  dACCESS:          0  dHIT:          0  dMISS:          0  itACCESS:          0  itHIT:          0  itMISS:          0  dtACCESS:          0  dtHIT:          0  dtMISS:          0
cpu0_L1I PREFETCH     ACCESS:   27621928  HIT:   21285386  MISS:    6336542  iACCESS:   27621928  iHIT:   21285386  iMISS:    6336542  dACCESS:          0  dHIT:          0  dMISS:          0  itACCESS:          0  itHIT:          0  itMISS:          0  dtACCESS:          0  dtHIT:          0  dtMISS:          0
cpu0_L1I WRITE        ACCESS:          0  HIT:          0  MISS:          0  iACCESS:          0  iHIT:          0  iMISS:          0  dACCESS:          0  dHIT:          0  dMISS:          0  itACCESS:          0  itHIT:          0  itMISS:          0  dtACCESS:          0  dtHIT:          0  dtMISS:          0
cpu0_L1I TRANSLATION  ACCESS:          0  HIT:          0  MISS:          0  iACCESS:          0  iHIT:          0  iMISS:          0  dACCESS:          0  dHIT:          0  dMISS:          0  itACCESS:          0  itHIT:          0  itMISS:          0  dtACCESS:          0  dtHIT:          0  dtMISS:          0
cpu0_L1I PREFETCH  REQUESTED:   30383861  ISSUED:   30383629  CROSSED:          0  USEFUL:    2219941  USELESS:     776267
cpu0_L1I AVERAGE iMISS LATENCY: 25.322 cycles
cpu0_L1I AVERAGE dMISS LATENCY: 0 cycles
cpu0_L1I AVERAGE itMISS LATENCY: 0 cycles
cpu0_L1I AVERAGE dtMISS LATENCY: 0 cycles
cpu0_L1I PAGE CROSSINGS (TLB HIT):         0 
cpu0_L1I PAGE CROSSINGS (TLB MISS):         0 
cpu0_L1I AVERAGE MISS LATENCY: 25.322 cycles
cpu0_ITLB TOTAL       ACCESS:   33376337  HIT:   31134110  MISS:    2242227  iACCESS:   33376337  iHIT:   31134110  iMISS:    2242227  dACCESS:          0  dHIT:          0  dMISS:          0  itACCESS:          0  itHIT:          0  itMISS:          0  dtACCESS:          0  dtHIT:          0  dtMISS:          0
cpu0_ITLB LOAD         ACCESS:   33376337  HIT:   31134110  MISS:    2242227  iACCESS:   33376337  iHIT:   31134110  iMISS:    2242227  dACCESS:          0  dHIT:          0  dMISS:          0  itACCESS:          0  itHIT:          0  itMISS:          0  dtACCESS:          0  dtHIT:          0  dtMISS:          0
cpu0_ITLB RFO          ACCESS:          0  HIT:          0  MISS:          0  iACCESS:          0  iHIT:          0  iMISS:          0  dACCESS:          0  dHIT:          0  dMISS:          0  itACCESS:          0  itHIT:          0  itMISS:          0  dtACCESS:          0  dtHIT:          0  dtMISS:          0
cpu0_ITLB PREFETCH     ACCESS:          0  HIT:          0  MISS:          0  iACCESS:          0  iHIT:          0  iMISS:          0  dACCESS:          0  dHIT:          0  dMISS:          0  itACCESS:          0  itHIT:          0  itMISS:          0  dtACCESS:          0  dtHIT:          0  dtMISS:          0
cpu0_ITLB WRITE        ACCESS:          0  HIT:          0  MISS:          0  iACCESS:          0  iHIT:          0  iMISS:          0  dACCESS:          0  dHIT:          0  dMISS:          0  itACCESS:          0  itHIT:          0  itMISS:          0  dtACCESS:          0  dtHIT:          0  dtMISS:          0
cpu0_ITLB TRANSLATION  ACCESS:          0  HIT:          0  MISS:          0  iACCESS:          0  iHIT:          0  iMISS:          0  dACCESS:          0  dHIT:          0  dMISS:          0  itACCESS:          0  itHIT:          0  itMISS:          0  dtACCESS:          0  dtHIT:          0  dtMISS:          0
cpu0_ITLB PREFETCH  REQUESTED:          0  ISSUED:          0  CROSSED:          0  USEFUL:     396573  USELESS:      80655
cpu0_ITLB AVERAGE iMISS LATENCY: 7.30908 cycles
cpu0_ITLB AVERAGE dMISS LATENCY: 0 cycles
cpu0_ITLB AVERAGE itMISS LATENCY: 0 cycles
cpu0_ITLB AVERAGE dtMISS LATENCY: 0 cycles
cpu0_ITLB PAGE CROSSINGS (TLB HIT):         0 
cpu0_ITLB PAGE CROSSINGS (TLB MISS):         0 
cpu0_ITLB AVERAGE MISS LATENCY: 7.30908 cycles
cpu0_DTLB TOTAL       ACCESS:   28980614  HIT:   25501479  MISS:    3479135  iACCESS:          0  iHIT:          0  iMISS:          0  dACCESS:   28980614  dHIT:   25501479  dMISS:    3479135  itACCESS:          0  itHIT:          0  itMISS:          0  dtACCESS:          0  dtHIT:          0  dtMISS:          0
cpu0_DTLB LOAD         ACCESS:   28980614  HIT:   25501479  MISS:    3479135  iACCESS:          0  iHIT:          0  iMISS:          0  dACCESS:   28980614  dHIT:   25501479  dMISS:    3479135  itACCESS:          0  itHIT:          0  itMISS:          0  dtACCESS:          0  dtHIT:          0  dtMISS:          0
cpu0_DTLB RFO          ACCESS:          0  HIT:          0  MISS:          0  iACCESS:          0  iHIT:          0  iMISS:          0  dACCESS:          0  dHIT:          0  dMISS:          0  itACCESS:          0  itHIT:          0  itMISS:          0  dtACCESS:          0  dtHIT:          0  dtMISS:          0
cpu0_DTLB PREFETCH     ACCESS:          0  HIT:          0  MISS:          0  iACCESS:          0  iHIT:          0  iMISS:          0  dACCESS:          0  dHIT:          0  dMISS:          0  itACCESS:          0  itHIT:          0  itMISS:          0  dtACCESS:          0  dtHIT:          0  dtMISS:          0
cpu0_DTLB WRITE        ACCESS:          0  HIT:          0  MISS:          0  iACCESS:          0  iHIT:          0  iMISS:          0  dACCESS:          0  dHIT:          0  dMISS:          0  itACCESS:          0  itHIT:          0  itMISS:          0  dtACCESS:          0  dtHIT:          0  dtMISS:          0
cpu0_DTLB TRANSLATION  ACCESS:          0  HIT:          0  MISS:          0  iACCESS:          0  iHIT:          0  iMISS:          0  dACCESS:          0  dHIT:          0  dMISS:          0  itACCESS:          0  itHIT:          0  itMISS:          0  dtACCESS:          0  dtHIT:          0  dtMISS:          0
cpu0_DTLB PREFETCH  REQUESTED:          0  ISSUED:          0  CROSSED:          0  USEFUL:          0  USELESS:          0
cpu0_DTLB AVERAGE iMISS LATENCY: 0 cycles
cpu0_DTLB AVERAGE dMISS LATENCY: 28.5765 cycles
cpu0_DTLB AVERAGE itMISS LATENCY: 0 cycles
cpu0_DTLB AVERAGE dtMISS LATENCY: 0 cycles
cpu0_DTLB PAGE CROSSINGS (TLB HIT):         0 
cpu0_DTLB PAGE CROSSINGS (TLB MISS):         0 
cpu0_DTLB AVERAGE MISS LATENCY: 28.5765 cycles
cpu0_STLB TOTAL       ACCESS:    2527562  HIT:    2154700  MISS:     372862  iACCESS:     477232  iHIT:     411732  iMISS:      65500  dACCESS:    2050330  dHIT:    1742968  dMISS:     307362  itACCESS:          0  itHIT:          0  itMISS:          0  dtACCESS:          0  dtHIT:          0  dtMISS:          0
cpu0_STLB LOAD         ACCESS:    2527562  HIT:    2154700  MISS:     372862  iACCESS:     477232  iHIT:     411732  iMISS:      65500  dACCESS:    2050330  dHIT:    1742968  dMISS:     307362  itACCESS:          0  itHIT:          0  itMISS:          0  dtACCESS:          0  dtHIT:          0  dtMISS:          0
cpu0_STLB RFO          ACCESS:          0  HIT:          0  MISS:          0  iACCESS:          0  iHIT:          0  iMISS:          0  dACCESS:          0  dHIT:          0  dMISS:          0  itACCESS:          0  itHIT:          0  itMISS:          0  dtACCESS:          0  dtHIT:          0  dtMISS:          0
cpu0_STLB PREFETCH     ACCESS:          0  HIT:          0  MISS:          0  iACCESS:          0  iHIT:          0  iMISS:          0  dACCESS:          0  dHIT:          0  dMISS:          0  itACCESS:          0  itHIT:          0  itMISS:          0  dtACCESS:          0  dtHIT:          0  dtMISS:          0
cpu0_STLB WRITE        ACCESS:          0  HIT:          0  MISS:          0  iACCESS:          0  iHIT:          0  iMISS:          0  dACCESS:          0  dHIT:          0  dMISS:          0  itACCESS:          0  itHIT:          0  itMISS:          0  dtACCESS:          0  dtHIT:          0  dtMISS:          0
cpu0_STLB TRANSLATION  ACCESS:          0  HIT:          0  MISS:          0  iACCESS:          0  iHIT:          0  iMISS:          0  dACCESS:          0  dHIT:          0  dMISS:          0  itACCESS:          0  itHIT:          0  itMISS:          0  dtACCESS:          0  dtHIT:          0  dtMISS:          0
cpu0_STLB PREFETCH  REQUESTED:          0  ISSUED:          0  CROSSED:          0  USEFUL:          0  USELESS:          0
cpu0_STLB AVERAGE iMISS LATENCY: 33.8678 cycles
cpu0_STLB AVERAGE dMISS LATENCY: 222.24 cycles
cpu0_STLB AVERAGE itMISS LATENCY: 0 cycles
cpu0_STLB AVERAGE dtMISS LATENCY: 0 cycles
cpu0_STLB PAGE CROSSINGS (TLB HIT):         0 
cpu0_STLB PAGE CROSSINGS (TLB MISS):         0 
cpu0_STLB AVERAGE MISS LATENCY: 256.107 cycles
cpu0_L1D TOTAL       ACCESS:   45065489  HIT:   39354064  MISS:    5711425  iACCESS:          0  iHIT:          0  iMISS:          0  dACCESS:   44488643  dHIT:   39325398  dMISS:    5163245  itACCESS:      76035  itHIT:       6143  itMISS:      69892  dtACCESS:     500811  dtHIT:      22523  dtMISS:     478288
cpu0_L1D LOAD         ACCESS:   20327133  HIT:   18022799  MISS:    2304334  iACCESS:          0  iHIT:          0  iMISS:          0  dACCESS:   20327133  dHIT:   18022799  dMISS:    2304334  itACCESS:          0  itHIT:          0  itMISS:          0  dtACCESS:          0  dtHIT:          0  dtMISS:          0
cpu0_L1D RFO          ACCESS:          0  HIT:          0  MISS:          0  iACCESS:          0  iHIT:          0  iMISS:          0  dACCESS:          0  dHIT:          0  dMISS:          0  itACCESS:          0  itHIT:          0  itMISS:          0  dtACCESS:          0  dtHIT:          0  dtMISS:          0
cpu0_L1D PREFETCH     ACCESS:   13972922  HIT:   11697112  MISS:    2275810  iACCESS:          0  iHIT:          0  iMISS:          0  dACCESS:   13972922  dHIT:   11697112  dMISS:    2275810  itACCESS:          0  itHIT:          0  itMISS:          0  dtACCESS:          0  dtHIT:          0  dtMISS:          0
cpu0_L1D WRITE        ACCESS:   10188588  HIT:    9605487  MISS:     583101  iACCESS:          0  iHIT:          0  iMISS:          0  dACCESS:   10188588  dHIT:    9605487  dMISS:     583101  itACCESS:          0  itHIT:          0  itMISS:          0  dtACCESS:          0  dtHIT:          0  dtMISS:          0
cpu0_L1D TRANSLATION  ACCESS:     576846  HIT:      28666  MISS:     548180  iACCESS:          0  iHIT:          0  iMISS:          0  dACCESS:          0  dHIT:          0  dMISS:          0  itACCESS:      76035  itHIT:       6143  itMISS:      69892  dtACCESS:     500811  dtHIT:      22523  dtMISS:     478288
cpu0_L1D PREFETCH  REQUESTED:   20327133  ISSUED:   18558083  CROSSED:          0  USEFUL:     361890  USELESS:     930972
cpu0_L1D AVERAGE iMISS LATENCY: 0 cycles
cpu0_L1D AVERAGE dMISS LATENCY: 50.2672 cycles
cpu0_L1D AVERAGE itMISS LATENCY: 2.07725 cycles
cpu0_L1D AVERAGE dtMISS LATENCY: 13.5838 cycles
cpu0_L1D PAGE CROSSINGS (TLB HIT):         0 
cpu0_L1D PAGE CROSSINGS (TLB MISS):         0 
cpu0_L1D AVERAGE MISS LATENCY: 65.9281 cycles
cpu0_L2C TOTAL       ACCESS:    8675703  HIT:    4151606  MISS:    4524097  iACCESS:    3804448  iHIT:    2269954  iMISS:    1534494  dACCESS:    4360530  dHIT:    1815594  dMISS:    2544936  itACCESS:      69598  itHIT:       9816  itMISS:      59782  dtACCESS:     441127  dtHIT:      56242  dtMISS:     384885
cpu0_L2C LOAD         ACCESS:    2050218  HIT:     995812  MISS:    1054406  iACCESS:     845668  iHIT:     529493  iMISS:     316175  dACCESS:    1204550  dHIT:     466319  dMISS:     738231  itACCESS:          0  itHIT:          0  itMISS:          0  dtACCESS:          0  dtHIT:          0  dtMISS:          0
cpu0_L2C RFO          ACCESS:     215787  HIT:      80492  MISS:     135295  iACCESS:          0  iHIT:          0  iMISS:          0  dACCESS:     215787  dHIT:      80492  dMISS:     135295  itACCESS:          0  itHIT:          0  itMISS:          0  dtACCESS:          0  dtHIT:          0  dtMISS:          0
cpu0_L2C PREFETCH     ACCESS:    5558245  HIT:    2673192  MISS:    2885053  iACCESS:    2958780  iHIT:    1740461  iMISS:    1218319  dACCESS:    2599465  dHIT:     932731  dMISS:    1666734  itACCESS:          0  itHIT:          0  itMISS:          0  dtACCESS:          0  dtHIT:          0  dtMISS:          0
cpu0_L2C WRITE        ACCESS:     340728  HIT:     336052  MISS:       4676  iACCESS:          0  iHIT:          0  iMISS:          0  dACCESS:     340728  dHIT:     336052  dMISS:       4676  itACCESS:          0  itHIT:          0  itMISS:          0  dtACCESS:          0  dtHIT:          0  dtMISS:          0
cpu0_L2C TRANSLATION  ACCESS:     510725  HIT:      66058  MISS:     444667  iACCESS:          0  iHIT:          0  iMISS:          0  dACCESS:          0  dHIT:          0  dMISS:          0  itACCESS:      69598  itHIT:       9816  itMISS:      59782  dtACCESS:     441127  dtHIT:      56242  dtMISS:     384885
cpu0_L2C PREFETCH  REQUESTED:    1541458  ISSUED:    1541456  CROSSED:          0  USEFUL:     366361  USELESS:     334508
cpu0_L2C AVERAGE iMISS LATENCY: 41.7087 cycles
cpu0_L2C AVERAGE dMISS LATENCY: 79.4838 cycles
cpu0_L2C AVERAGE itMISS LATENCY: 2.47027 cycles
cpu0_L2C AVERAGE dtMISS LATENCY: 16.1806 cycles
cpu0_L2C PAGE CROSSINGS (TLB HIT):         0 
cpu0_L2C PAGE CROSSINGS (TLB MISS):         0 
cpu0_L2C AVERAGE MISS LATENCY: 139.844 cycles
LLC TOTAL       ACCESS:    4510956  HIT:    1311670  MISS:    3199286  iACCESS:    1443583  iHIT:     429459  iMISS:    1014124  dACCESS:    2622706  dHIT:     832140  dMISS:    1790566  itACCESS:      59782  itHIT:       3859  itMISS:      55923  dtACCESS:     384885  dtHIT:      46212  dtMISS:     338673
LLC LOAD         ACCESS:    1047830  HIT:     317227  MISS:     730603  iACCESS:     315019  iHIT:      98883  iMISS:     216136  dACCESS:     732811  dHIT:     218344  dMISS:     514467  itACCESS:          0  itHIT:          0  itMISS:          0  dtACCESS:          0  dtHIT:          0  dtMISS:          0
LLC RFO          ACCESS:     135282  HIT:      39208  MISS:      96074  iACCESS:          0  iHIT:          0  iMISS:          0  dACCESS:     135282  dHIT:      39208  dMISS:      96074  itACCESS:          0  itHIT:          0  itMISS:          0  dtACCESS:          0  dtHIT:          0  dtMISS:          0
LLC PREFETCH     ACCESS:    2671823  HIT:     704528  MISS:    1967295  iACCESS:    1128564  iHIT:     330576  iMISS:     797988  dACCESS:    1543259  dHIT:     373952  dMISS:    1169307  itACCESS:          0  itHIT:          0  itMISS:          0  dtACCESS:          0  dtHIT:          0  dtMISS:          0
LLC WRITE        ACCESS:     211354  HIT:     200636  MISS:      10718  iACCESS:          0  iHIT:          0  iMISS:          0  dACCESS:     211354  dHIT:     200636  dMISS:      10718  itACCESS:          0  itHIT:          0  itMISS:          0  dtACCESS:          0  dtHIT:          0  dtMISS:          0
LLC TRANSLATION  ACCESS:     444667  HIT:      50071  MISS:     394596  iACCESS:          0  iHIT:          0  iMISS:          0  dACCESS:          0  dHIT:          0  dMISS:          0  itACCESS:      59782  itHIT:       3859  itMISS:      55923  dtACCESS:     384885  dtHIT:      46212  dtMISS:     338673
LLC PREFETCH  REQUESTED:          0  ISSUED:          0  CROSSED:          0  USEFUL:          0  USELESS:          0
LLC AVERAGE iMISS LATENCY: 50.092 cycles
LLC AVERAGE dMISS LATENCY: 98.3853 cycles
LLC AVERAGE itMISS LATENCY: 3.12244 cycles
LLC AVERAGE dtMISS LATENCY: 20.5038 cycles
LLC PAGE CROSSINGS (TLB HIT):         0 
LLC PAGE CROSSINGS (TLB MISS):         0 
LLC AVERAGE MISS LATENCY: 172.104 cycles

PageTableWalker TOTAL       ACCESS:     133224  
PageTableWalker AVERAGE LATENCY: 6.77714 cycles
PageTableWalker TOTAL LATENCY: 902877 cycles

DRAM Statistics
Channel 0
 RQ ROW_BUFFER_HIT:     701236
  ROW_BUFFER_MISS:    2469181
 AVG DBUS CONGESTED CYCLE:    3.65091
 WQ ROW_BUFFER_HIT:      67968
  ROW_BUFFER_MISS:      56060  FULL:          0

