last_page:0x200000000000000
VMEM_RES_CAP:0x100000
PAGE_SIZE:4096
LOG2_PAGE_SIZE:12
LOG2_PAGE_TABLE_SIZE:9
page_table_levels:5
WARNING: physical memory size is smaller than virtual memory size
FDiP enabled with aggresivity 16

*** ChampSim Multicore Out-of-Order Simulator ***

Warmup Instructions: 50000000
Simulation Instructions: 100000000
Number of CPUs: 1
Small page size: 4096
Large page size: 2097152

CPU 0 Bimodal branch predictor
Basic BTB sets: 1024 ways: 8 indirect buffer size: 4096 RAS size: 64
Instruction page size distrubution: 0
Loading instruction page size distribution from /home/bsc/bsc018186/scratch/itp_asplos25_AE/dump/smt_srv207_ap_srv224_ap_1024i.pdst
Data page size distrubution: 0
Loading data page size distribution from /home/bsc/bsc018186/scratch/itp_asplos25_AE/dump/smt_srv207_ap_srv224_ap_1024i.pdst
cpu0_L2C IP-based stride prefetcher
cpu0_L1D next line prefetcher
CHiRPing...
cpu0_L1I next line prefetcher
Off-chip DRAM Size: 4 GiB Channels: 1 Width: 64-bit Data Rate: 3200 MT/s
Heartbeat CPU 0 instructions: 10000000 cycles: 2501074 heartbeat IPC: 3.99829 cumulative IPC: 3.99829 (Simulation time: 0 hr 0 min 46 sec) 
Heartbeat CPU 0 instructions: 20000001 cycles: 5001451 heartbeat IPC: 3.9994 cumulative IPC: 3.99884 (Simulation time: 0 hr 1 min 33 sec) 
Heartbeat CPU 0 instructions: 30000002 cycles: 7501951 heartbeat IPC: 3.99921 cumulative IPC: 3.99897 (Simulation time: 0 hr 2 min 21 sec) 
Heartbeat CPU 0 instructions: 40000000 cycles: 10048582 heartbeat IPC: 3.92676 cumulative IPC: 3.98067 (Simulation time: 0 hr 3 min 8 sec) 
Heartbeat CPU 0 instructions: 50000002 cycles: 12612792 heartbeat IPC: 3.89984 cumulative IPC: 3.96423 (Simulation time: 0 hr 3 min 57 sec) 
Warmup finished CPU 0 instructions: 50000002 cycles: 12612793 cumulative IPC: 3.96423 (Simulation time: 0 hr 3 min 57 sec) 

Warmup complete CPU 0 instructions: 50000002 cycles: 12612793 (Simulation time: 0 hr 3 min 57 sec) 

Heartbeat CPU 0 instructions: 60000002 cycles: 29372619 heartbeat IPC: 0.596665 cumulative IPC: 0.596665 (Simulation time: 0 hr 5 min 18 sec) 
Heartbeat CPU 0 instructions: 70000003 cycles: 59143094 heartbeat IPC: 0.335904 cumulative IPC: 0.429828 (Simulation time: 0 hr 6 min 58 sec) 
Heartbeat CPU 0 instructions: 80000002 cycles: 89327123 heartbeat IPC: 0.331302 cumulative IPC: 0.391062 (Simulation time: 0 hr 8 min 38 sec) 
Heartbeat CPU 0 instructions: 90000000 cycles: 120803996 heartbeat IPC: 0.317694 cumulative IPC: 0.369716 (Simulation time: 0 hr 10 min 21 sec) 
Heartbeat CPU 0 instructions: 100000000 cycles: 150346249 heartbeat IPC: 0.338499 cumulative IPC: 0.36302 (Simulation time: 0 hr 12 min 1 sec) 
Heartbeat CPU 0 instructions: 110000002 cycles: 180304305 heartbeat IPC: 0.333801 cumulative IPC: 0.3578 (Simulation time: 0 hr 13 min 43 sec) 
Heartbeat CPU 0 instructions: 120000004 cycles: 209983644 heartbeat IPC: 0.336935 cumulative IPC: 0.354663 (Simulation time: 0 hr 15 min 19 sec) 
Heartbeat CPU 0 instructions: 130000000 cycles: 239597711 heartbeat IPC: 0.337678 cumulative IPC: 0.352447 (Simulation time: 0 hr 16 min 47 sec) 
Heartbeat CPU 0 instructions: 140000002 cycles: 270844430 heartbeat IPC: 0.320034 cumulative IPC: 0.348525 (Simulation time: 0 hr 18 min 19 sec) 
Heartbeat CPU 0 instructions: 150000000 cycles: 300575634 heartbeat IPC: 0.336347 cumulative IPC: 0.347268 (Simulation time: 0 hr 19 min 46 sec) 
Simulation finished CPU 0 instructions: 100000003 cycles: 287962843 cumulative IPC: 0.347268 (Simulation time: 0 hr 19 min 46 sec) 

Simulation complete CPU 0 instructions: 100000003 cycles: 287962843 (Simulation time: 0 hr 19 min 46 sec) 


ChampSim completed all CPUs

Saving instructions large page distribution to /home/bsc/bsc018186/scratch/itp_asplos25_AE/dump/smt_srv207_ap_srv224_ap_1024i.pdst...
Saving data large page distribution to /home/bsc/bsc018186/scratch/itp_asplos25_AE/dump/smt_srv207_ap_srv224_ap_1024i.pdst...
=== Simulation ===
CPU 0 runs /gpfs/projects/bsc18/MN4/bsc18/romol/ChampSim/traces/qualcomm_srv/smt_srv207_ap_srv224_ap_1024i.champsimtrace.xz

Region of Interest Statistics

CPU 0 cumulative IPC: 0.347268 instructions: 100000003 cycles: 287962843
CPU 0 Branch Prediction Accuracy: 76.4132% MPKI: 43.7209 Average ROB Occupancy at Mispredict: 11.4705
Branch type MPKI
BRANCH_DIRECT_JUMP: 1.30138
BRANCH_INDIRECT: 23.3364
BRANCH_CONDITIONAL: 12.26
BRANCH_DIRECT_CALL: 2.41582
BRANCH_INDIRECT_CALL: 1.0244
BRANCH_RETURN: 3.38293

Instructions large pages: 0
Instructions small pages: 15027
Large page distribution for instructions: 0%

Data large pages: 0
Data small pages: 13570
Large page distribution for data: 0%

cpu0_L1I TOTAL       ACCESS:   39356102  HIT:   31228617  MISS:    8127485  iACCESS:   39356102  iHIT:   31228617  iMISS:    8127485  dACCESS:          0  dHIT:          0  dMISS:          0  itACCESS:          0  itHIT:          0  itMISS:          0  dtACCESS:          0  dtHIT:          0  dtMISS:          0
cpu0_L1I LOAD         ACCESS:   11476724  HIT:    9256929  MISS:    2219795  iACCESS:   11476724  iHIT:    9256929  iMISS:    2219795  dACCESS:          0  dHIT:          0  dMISS:          0  itACCESS:          0  itHIT:          0  itMISS:          0  dtACCESS:          0  dtHIT:          0  dtMISS:          0
cpu0_L1I RFO          ACCESS:          0  HIT:          0  MISS:          0  iACCESS:          0  iHIT:          0  iMISS:          0  dACCESS:          0  dHIT:          0  dMISS:          0  itACCESS:          0  itHIT:          0  itMISS:          0  dtACCESS:          0  dtHIT:          0  dtMISS:          0
cpu0_L1I PREFETCH     ACCESS:   27879378  HIT:   21971688  MISS:    5907690  iACCESS:   27879378  iHIT:   21971688  iMISS:    5907690  dACCESS:          0  dHIT:          0  dMISS:          0  itACCESS:          0  itHIT:          0  itMISS:          0  dtACCESS:          0  dtHIT:          0  dtMISS:          0
cpu0_L1I WRITE        ACCESS:          0  HIT:          0  MISS:          0  iACCESS:          0  iHIT:          0  iMISS:          0  dACCESS:          0  dHIT:          0  dMISS:          0  itACCESS:          0  itHIT:          0  itMISS:          0  dtACCESS:          0  dtHIT:          0  dtMISS:          0
cpu0_L1I TRANSLATION  ACCESS:          0  HIT:          0  MISS:          0  iACCESS:          0  iHIT:          0  iMISS:          0  dACCESS:          0  dHIT:          0  dMISS:          0  itACCESS:          0  itHIT:          0  itMISS:          0  dtACCESS:          0  dtHIT:          0  dtMISS:          0
cpu0_L1I PREFETCH  REQUESTED:   30601812  ISSUED:   30601810  CROSSED:          0  USEFUL:    2057129  USELESS:     730714
cpu0_L1I AVERAGE iMISS LATENCY: 24.19 cycles
cpu0_L1I AVERAGE dMISS LATENCY: 0 cycles
cpu0_L1I AVERAGE itMISS LATENCY: 0 cycles
cpu0_L1I AVERAGE dtMISS LATENCY: 0 cycles
cpu0_L1I PAGE CROSSINGS (TLB HIT):         0 
cpu0_L1I PAGE CROSSINGS (TLB MISS):         0 
cpu0_L1I AVERAGE MISS LATENCY: 24.19 cycles
cpu0_ITLB TOTAL       ACCESS:   33223282  HIT:   31122370  MISS:    2100912  iACCESS:   33223282  iHIT:   31122370  iMISS:    2100912  dACCESS:          0  dHIT:          0  dMISS:          0  itACCESS:          0  itHIT:          0  itMISS:          0  dtACCESS:          0  dtHIT:          0  dtMISS:          0
cpu0_ITLB LOAD         ACCESS:   33223282  HIT:   31122370  MISS:    2100912  iACCESS:   33223282  iHIT:   31122370  iMISS:    2100912  dACCESS:          0  dHIT:          0  dMISS:          0  itACCESS:          0  itHIT:          0  itMISS:          0  dtACCESS:          0  dtHIT:          0  dtMISS:          0
cpu0_ITLB RFO          ACCESS:          0  HIT:          0  MISS:          0  iACCESS:          0  iHIT:          0  iMISS:          0  dACCESS:          0  dHIT:          0  dMISS:          0  itACCESS:          0  itHIT:          0  itMISS:          0  dtACCESS:          0  dtHIT:          0  dtMISS:          0
cpu0_ITLB PREFETCH     ACCESS:          0  HIT:          0  MISS:          0  iACCESS:          0  iHIT:          0  iMISS:          0  dACCESS:          0  dHIT:          0  dMISS:          0  itACCESS:          0  itHIT:          0  itMISS:          0  dtACCESS:          0  dtHIT:          0  dtMISS:          0
cpu0_ITLB WRITE        ACCESS:          0  HIT:          0  MISS:          0  iACCESS:          0  iHIT:          0  iMISS:          0  dACCESS:          0  dHIT:          0  dMISS:          0  itACCESS:          0  itHIT:          0  itMISS:          0  dtACCESS:          0  dtHIT:          0  dtMISS:          0
cpu0_ITLB TRANSLATION  ACCESS:          0  HIT:          0  MISS:          0  iACCESS:          0  iHIT:          0  iMISS:          0  dACCESS:          0  dHIT:          0  dMISS:          0  itACCESS:          0  itHIT:          0  itMISS:          0  dtACCESS:          0  dtHIT:          0  dtMISS:          0
cpu0_ITLB PREFETCH  REQUESTED:          0  ISSUED:          0  CROSSED:          0  USEFUL:     367696  USELESS:      77587
cpu0_ITLB AVERAGE iMISS LATENCY: 10.3555 cycles
cpu0_ITLB AVERAGE dMISS LATENCY: 0 cycles
cpu0_ITLB AVERAGE itMISS LATENCY: 0 cycles
cpu0_ITLB AVERAGE dtMISS LATENCY: 0 cycles
cpu0_ITLB PAGE CROSSINGS (TLB HIT):         0 
cpu0_ITLB PAGE CROSSINGS (TLB MISS):         0 
cpu0_ITLB AVERAGE MISS LATENCY: 10.3555 cycles
cpu0_DTLB TOTAL       ACCESS:   30002460  HIT:   25319222  MISS:    4683238  iACCESS:          0  iHIT:          0  iMISS:          0  dACCESS:   30002460  dHIT:   25319222  dMISS:    4683238  itACCESS:          0  itHIT:          0  itMISS:          0  dtACCESS:          0  dtHIT:          0  dtMISS:          0
cpu0_DTLB LOAD         ACCESS:   30002460  HIT:   25319222  MISS:    4683238  iACCESS:          0  iHIT:          0  iMISS:          0  dACCESS:   30002460  dHIT:   25319222  dMISS:    4683238  itACCESS:          0  itHIT:          0  itMISS:          0  dtACCESS:          0  dtHIT:          0  dtMISS:          0
cpu0_DTLB RFO          ACCESS:          0  HIT:          0  MISS:          0  iACCESS:          0  iHIT:          0  iMISS:          0  dACCESS:          0  dHIT:          0  dMISS:          0  itACCESS:          0  itHIT:          0  itMISS:          0  dtACCESS:          0  dtHIT:          0  dtMISS:          0
cpu0_DTLB PREFETCH     ACCESS:          0  HIT:          0  MISS:          0  iACCESS:          0  iHIT:          0  iMISS:          0  dACCESS:          0  dHIT:          0  dMISS:          0  itACCESS:          0  itHIT:          0  itMISS:          0  dtACCESS:          0  dtHIT:          0  dtMISS:          0
cpu0_DTLB WRITE        ACCESS:          0  HIT:          0  MISS:          0  iACCESS:          0  iHIT:          0  iMISS:          0  dACCESS:          0  dHIT:          0  dMISS:          0  itACCESS:          0  itHIT:          0  itMISS:          0  dtACCESS:          0  dtHIT:          0  dtMISS:          0
cpu0_DTLB TRANSLATION  ACCESS:          0  HIT:          0  MISS:          0  iACCESS:          0  iHIT:          0  iMISS:          0  dACCESS:          0  dHIT:          0  dMISS:          0  itACCESS:          0  itHIT:          0  itMISS:          0  dtACCESS:          0  dtHIT:          0  dtMISS:          0
cpu0_DTLB PREFETCH  REQUESTED:          0  ISSUED:          0  CROSSED:          0  USEFUL:          0  USELESS:          0
cpu0_DTLB AVERAGE iMISS LATENCY: 0 cycles
cpu0_DTLB AVERAGE dMISS LATENCY: 19.1894 cycles
cpu0_DTLB AVERAGE itMISS LATENCY: 0 cycles
cpu0_DTLB AVERAGE dtMISS LATENCY: 0 cycles
cpu0_DTLB PAGE CROSSINGS (TLB HIT):         0 
cpu0_DTLB PAGE CROSSINGS (TLB MISS):         0 
cpu0_DTLB AVERAGE MISS LATENCY: 19.1894 cycles
cpu0_STLB TOTAL       ACCESS:    3028119  HIT:    2674658  MISS:     353461  iACCESS:     445294  iHIT:     339235  iMISS:     106059  dACCESS:    2582825  dHIT:    2335423  dMISS:     247402  itACCESS:          0  itHIT:          0  itMISS:          0  dtACCESS:          0  dtHIT:          0  dtMISS:          0
cpu0_STLB LOAD         ACCESS:    3028119  HIT:    2674658  MISS:     353461  iACCESS:     445294  iHIT:     339235  iMISS:     106059  dACCESS:    2582825  dHIT:    2335423  dMISS:     247402  itACCESS:          0  itHIT:          0  itMISS:          0  dtACCESS:          0  dtHIT:          0  dtMISS:          0
cpu0_STLB RFO          ACCESS:          0  HIT:          0  MISS:          0  iACCESS:          0  iHIT:          0  iMISS:          0  dACCESS:          0  dHIT:          0  dMISS:          0  itACCESS:          0  itHIT:          0  itMISS:          0  dtACCESS:          0  dtHIT:          0  dtMISS:          0
cpu0_STLB PREFETCH     ACCESS:          0  HIT:          0  MISS:          0  iACCESS:          0  iHIT:          0  iMISS:          0  dACCESS:          0  dHIT:          0  dMISS:          0  itACCESS:          0  itHIT:          0  itMISS:          0  dtACCESS:          0  dtHIT:          0  dtMISS:          0
cpu0_STLB WRITE        ACCESS:          0  HIT:          0  MISS:          0  iACCESS:          0  iHIT:          0  iMISS:          0  dACCESS:          0  dHIT:          0  dMISS:          0  itACCESS:          0  itHIT:          0  itMISS:          0  dtACCESS:          0  dtHIT:          0  dtMISS:          0
cpu0_STLB TRANSLATION  ACCESS:          0  HIT:          0  MISS:          0  iACCESS:          0  iHIT:          0  iMISS:          0  dACCESS:          0  dHIT:          0  dMISS:          0  itACCESS:          0  itHIT:          0  itMISS:          0  dtACCESS:          0  dtHIT:          0  dtMISS:          0
cpu0_STLB PREFETCH  REQUESTED:          0  ISSUED:          0  CROSSED:          0  USEFUL:          0  USELESS:          0
cpu0_STLB AVERAGE iMISS LATENCY: 51.4827 cycles
cpu0_STLB AVERAGE dMISS LATENCY: 195.281 cycles
cpu0_STLB AVERAGE itMISS LATENCY: 0 cycles
cpu0_STLB AVERAGE dtMISS LATENCY: 0 cycles
cpu0_STLB PAGE CROSSINGS (TLB HIT):         0 
cpu0_STLB PAGE CROSSINGS (TLB MISS):         0 
cpu0_STLB AVERAGE MISS LATENCY: 246.764 cycles
cpu0_L1D TOTAL       ACCESS:   46507546  HIT:   39902002  MISS:    6605544  iACCESS:          0  iHIT:          0  iMISS:          0  dACCESS:   45994695  dHIT:   39871471  dMISS:    6123224  itACCESS:     119022  itHIT:      12349  itMISS:     106673  dtACCESS:     393829  dtHIT:      18182  dtMISS:     375647
cpu0_L1D LOAD         ACCESS:   21559747  HIT:   18442620  MISS:    3117127  iACCESS:          0  iHIT:          0  iMISS:          0  dACCESS:   21559747  dHIT:   18442620  dMISS:    3117127  itACCESS:          0  itHIT:          0  itMISS:          0  dtACCESS:          0  dtHIT:          0  dtMISS:          0
cpu0_L1D RFO          ACCESS:          0  HIT:          0  MISS:          0  iACCESS:          0  iHIT:          0  iMISS:          0  dACCESS:          0  dHIT:          0  dMISS:          0  itACCESS:          0  itHIT:          0  itMISS:          0  dtACCESS:          0  dtHIT:          0  dtMISS:          0
cpu0_L1D PREFETCH     ACCESS:   14441946  HIT:   12002632  MISS:    2439314  iACCESS:          0  iHIT:          0  iMISS:          0  dACCESS:   14441946  dHIT:   12002632  dMISS:    2439314  itACCESS:          0  itHIT:          0  itMISS:          0  dtACCESS:          0  dtHIT:          0  dtMISS:          0
cpu0_L1D WRITE        ACCESS:    9993002  HIT:    9426219  MISS:     566783  iACCESS:          0  iHIT:          0  iMISS:          0  dACCESS:    9993002  dHIT:    9426219  dMISS:     566783  itACCESS:          0  itHIT:          0  itMISS:          0  dtACCESS:          0  dtHIT:          0  dtMISS:          0
cpu0_L1D TRANSLATION  ACCESS:     512851  HIT:      30531  MISS:     482320  iACCESS:          0  iHIT:          0  iMISS:          0  dACCESS:          0  dHIT:          0  dMISS:          0  itACCESS:     119022  itHIT:      12349  itMISS:     106673  dtACCESS:     393829  dtHIT:      18182  dtMISS:     375647
cpu0_L1D PREFETCH  REQUESTED:   21559747  ISSUED:   19013043  CROSSED:          0  USEFUL:     360213  USELESS:    1049364
cpu0_L1D AVERAGE iMISS LATENCY: 0 cycles
cpu0_L1D AVERAGE dMISS LATENCY: 41.9911 cycles
cpu0_L1D AVERAGE itMISS LATENCY: 2.60414 cycles
cpu0_L1D AVERAGE dtMISS LATENCY: 9.67578 cycles
cpu0_L1D PAGE CROSSINGS (TLB HIT):         0 
cpu0_L1D PAGE CROSSINGS (TLB MISS):         0 
cpu0_L1D AVERAGE MISS LATENCY: 54.271 cycles
cpu0_L2C TOTAL       ACCESS:    9117696  HIT:    4963317  MISS:    4154379  iACCESS:    3547598  iHIT:    2153623  iMISS:    1393975  dACCESS:    5111635  dHIT:    2754800  dMISS:    2356835  itACCESS:     106248  itHIT:      18459  itMISS:      87789  dtACCESS:     352215  dtHIT:      36435  dtMISS:     315780
cpu0_L2C LOAD         ACCESS:    2727395  HIT:    1731347  MISS:     996048  iACCESS:     792915  iHIT:     501067  iMISS:     291848  dACCESS:    1934480  dHIT:    1230280  dMISS:     704200  itACCESS:          0  itHIT:          0  itMISS:          0  dtACCESS:          0  dtHIT:          0  dtMISS:          0
cpu0_L2C RFO          ACCESS:     224531  HIT:     103238  MISS:     121293  iACCESS:          0  iHIT:          0  iMISS:          0  dACCESS:     224531  dHIT:     103238  dMISS:     121293  itACCESS:          0  itHIT:          0  itMISS:          0  dtACCESS:          0  dtHIT:          0  dtMISS:          0
cpu0_L2C PREFETCH     ACCESS:    5368329  HIT:    2738211  MISS:    2630118  iACCESS:    2754683  iHIT:    1652556  iMISS:    1102127  dACCESS:    2613646  dHIT:    1085655  dMISS:    1527991  itACCESS:          0  itHIT:          0  itMISS:          0  dtACCESS:          0  dtHIT:          0  dtMISS:          0
cpu0_L2C WRITE        ACCESS:     338978  HIT:     335627  MISS:       3351  iACCESS:          0  iHIT:          0  iMISS:          0  dACCESS:     338978  dHIT:     335627  dMISS:       3351  itACCESS:          0  itHIT:          0  itMISS:          0  dtACCESS:          0  dtHIT:          0  dtMISS:          0
cpu0_L2C TRANSLATION  ACCESS:     458463  HIT:      54894  MISS:     403569  iACCESS:          0  iHIT:          0  iMISS:          0  dACCESS:          0  dHIT:          0  dMISS:          0  itACCESS:     106248  itHIT:      18459  itMISS:      87789  dtACCESS:     352215  dtHIT:      36435  dtMISS:     315780
cpu0_L2C PREFETCH  REQUESTED:    1421740  ISSUED:    1421715  CROSSED:          0  USEFUL:     327764  USELESS:     299831
cpu0_L2C AVERAGE iMISS LATENCY: 40.1582 cycles
cpu0_L2C AVERAGE dMISS LATENCY: 78.8633 cycles
cpu0_L2C AVERAGE itMISS LATENCY: 3.88855 cycles
cpu0_L2C AVERAGE dtMISS LATENCY: 14.5408 cycles
cpu0_L2C PAGE CROSSINGS (TLB HIT):         0 
cpu0_L2C PAGE CROSSINGS (TLB MISS):         0 
cpu0_L2C AVERAGE MISS LATENCY: 137.451 cycles
LLC TOTAL       ACCESS:    4157912  HIT:    1285163  MISS:    2872749  iACCESS:    1313533  iHIT:     424754  iMISS:     888779  dACCESS:    2440810  dHIT:     821183  dMISS:    1619627  itACCESS:      87789  itHIT:       6509  itMISS:      81280  dtACCESS:     315780  dtHIT:      32717  dtMISS:     283063
LLC LOAD         ACCESS:     990120  HIT:     321814  MISS:     668306  iACCESS:     290694  iHIT:     100309  iMISS:     190385  dACCESS:     699426  dHIT:     221505  dMISS:     477921  itACCESS:          0  itHIT:          0  itMISS:          0  dtACCESS:          0  dtHIT:          0  dtMISS:          0
LLC RFO          ACCESS:     121288  HIT:      39073  MISS:      82215  iACCESS:          0  iHIT:          0  iMISS:          0  dACCESS:     121288  dHIT:      39073  dMISS:      82215  itACCESS:          0  itHIT:          0  itMISS:          0  dtACCESS:          0  dtHIT:          0  dtMISS:          0
LLC PREFETCH     ACCESS:    2445840  HIT:     697694  MISS:    1748146  iACCESS:    1022839  iHIT:     324445  iMISS:     698394  dACCESS:    1423001  dHIT:     373249  dMISS:    1049752  itACCESS:          0  itHIT:          0  itMISS:          0  dtACCESS:          0  dtHIT:          0  dtMISS:          0
LLC WRITE        ACCESS:     197095  HIT:     187356  MISS:       9739  iACCESS:          0  iHIT:          0  iMISS:          0  dACCESS:     197095  dHIT:     187356  dMISS:       9739  itACCESS:          0  itHIT:          0  itMISS:          0  dtACCESS:          0  dtHIT:          0  dtMISS:          0
LLC TRANSLATION  ACCESS:     403569  HIT:      39226  MISS:     364343  iACCESS:          0  iHIT:          0  iMISS:          0  dACCESS:          0  dHIT:          0  dMISS:          0  itACCESS:      87789  itHIT:       6509  itMISS:      81280  dtACCESS:     315780  dtHIT:      32717  dtMISS:     283063
LLC PREFETCH  REQUESTED:          0  ISSUED:          0  CROSSED:          0  USEFUL:          0  USELESS:          0
LLC AVERAGE iMISS LATENCY: 49.0618 cycles
LLC AVERAGE dMISS LATENCY: 99.42 cycles
LLC AVERAGE itMISS LATENCY: 5.01716 cycles
LLC AVERAGE dtMISS LATENCY: 18.8546 cycles
LLC PAGE CROSSINGS (TLB HIT):         0 
LLC PAGE CROSSINGS (TLB MISS):         0 
LLC AVERAGE MISS LATENCY: 172.354 cycles

PageTableWalker TOTAL       ACCESS:     163090  
PageTableWalker AVERAGE LATENCY: 6.58815 cycles
PageTableWalker TOTAL LATENCY: 1074461 cycles

DRAM Statistics
Channel 0
 RQ ROW_BUFFER_HIT:     602915
  ROW_BUFFER_MISS:    2248937
 AVG DBUS CONGESTED CYCLE:    3.64725
 WQ ROW_BUFFER_HIT:      60254
  ROW_BUFFER_MISS:      50949  FULL:          0

