last_page:0x200000000000000
VMEM_RES_CAP:0x100000
PAGE_SIZE:4096
LOG2_PAGE_SIZE:12
LOG2_PAGE_TABLE_SIZE:9
page_table_levels:5
WARNING: physical memory size is smaller than virtual memory size
FDiP enabled with aggresivity 16

*** ChampSim Multicore Out-of-Order Simulator ***

Warmup Instructions: 50000000
Simulation Instructions: 100000000
Number of CPUs: 1
Small page size: 4096
Large page size: 2097152

CPU 0 Bimodal branch predictor
Basic BTB sets: 1024 ways: 8 indirect buffer size: 4096 RAS size: 64
Instruction page size distrubution: 0
Loading instruction page size distribution from /home/bsc/bsc018186/scratch/itp_asplos25_AE/dump/smt_srv540_ap_srv224_ap_1024i.pdst
Data page size distrubution: 0
Loading data page size distribution from /home/bsc/bsc018186/scratch/itp_asplos25_AE/dump/smt_srv540_ap_srv224_ap_1024i.pdst
cpu0_L2C IP-based stride prefetcher
cpu0_L1D next line prefetcher
cpu0_L1I next line prefetcher
Off-chip DRAM Size: 4 GiB Channels: 1 Width: 64-bit Data Rate: 3200 MT/s
Heartbeat CPU 0 instructions: 10000002 cycles: 2500359 heartbeat IPC: 3.99943 cumulative IPC: 3.99943 (Simulation time: 0 hr 0 min 40 sec) 
Heartbeat CPU 0 instructions: 20000001 cycles: 5000643 heartbeat IPC: 3.99955 cumulative IPC: 3.99949 (Simulation time: 0 hr 1 min 22 sec) 
Heartbeat CPU 0 instructions: 30000003 cycles: 7500922 heartbeat IPC: 3.99956 cumulative IPC: 3.99951 (Simulation time: 0 hr 2 min 4 sec) 
Heartbeat CPU 0 instructions: 40000000 cycles: 10047901 heartbeat IPC: 3.92622 cumulative IPC: 3.98094 (Simulation time: 0 hr 2 min 44 sec) 
Heartbeat CPU 0 instructions: 50000002 cycles: 12607874 heartbeat IPC: 3.9063 cumulative IPC: 3.96578 (Simulation time: 0 hr 3 min 28 sec) 
Warmup finished CPU 0 instructions: 50000002 cycles: 12607875 cumulative IPC: 3.96578 (Simulation time: 0 hr 3 min 28 sec) 

Warmup complete CPU 0 instructions: 50000002 cycles: 12607875 (Simulation time: 0 hr 3 min 28 sec) 

Heartbeat CPU 0 instructions: 60000002 cycles: 28886179 heartbeat IPC: 0.614315 cumulative IPC: 0.614315 (Simulation time: 0 hr 4 min 38 sec) 
Heartbeat CPU 0 instructions: 70000003 cycles: 57387307 heartbeat IPC: 0.350864 cumulative IPC: 0.446634 (Simulation time: 0 hr 6 min 10 sec) 
Heartbeat CPU 0 instructions: 80000002 cycles: 85875460 heartbeat IPC: 0.351024 cumulative IPC: 0.409459 (Simulation time: 0 hr 7 min 43 sec) 
Heartbeat CPU 0 instructions: 90000000 cycles: 115673042 heartbeat IPC: 0.335598 cumulative IPC: 0.388104 (Simulation time: 0 hr 9 min 17 sec) 
Heartbeat CPU 0 instructions: 100000001 cycles: 145568201 heartbeat IPC: 0.334503 cumulative IPC: 0.376053 (Simulation time: 0 hr 10 min 52 sec) 
Heartbeat CPU 0 instructions: 110000001 cycles: 174034713 heartbeat IPC: 0.35129 cumulative IPC: 0.371686 (Simulation time: 0 hr 12 min 20 sec) 
Heartbeat CPU 0 instructions: 120000002 cycles: 202987705 heartbeat IPC: 0.345388 cumulative IPC: 0.367687 (Simulation time: 0 hr 13 min 49 sec) 
Heartbeat CPU 0 instructions: 130000003 cycles: 232450221 heartbeat IPC: 0.339415 cumulative IPC: 0.363898 (Simulation time: 0 hr 15 min 21 sec) 
Heartbeat CPU 0 instructions: 140000002 cycles: 261787394 heartbeat IPC: 0.340865 cumulative IPC: 0.361186 (Simulation time: 0 hr 16 min 53 sec) 
Heartbeat CPU 0 instructions: 150000001 cycles: 290007495 heartbeat IPC: 0.354358 cumulative IPC: 0.360491 (Simulation time: 0 hr 18 min 23 sec) 
Simulation finished CPU 0 instructions: 100000004 cycles: 277399622 cumulative IPC: 0.360491 (Simulation time: 0 hr 18 min 23 sec) 

Simulation complete CPU 0 instructions: 100000004 cycles: 277399622 (Simulation time: 0 hr 18 min 23 sec) 


ChampSim completed all CPUs

Saving instructions large page distribution to /home/bsc/bsc018186/scratch/itp_asplos25_AE/dump/smt_srv540_ap_srv224_ap_1024i.pdst...
Saving data large page distribution to /home/bsc/bsc018186/scratch/itp_asplos25_AE/dump/smt_srv540_ap_srv224_ap_1024i.pdst...
=== Simulation ===
CPU 0 runs /gpfs/projects/bsc18/MN4/bsc18/romol/ChampSim/traces/qualcomm_srv/smt_srv540_ap_srv224_ap_1024i.champsimtrace.xz

Region of Interest Statistics

CPU 0 cumulative IPC: 0.360491 instructions: 100000004 cycles: 277399622
CPU 0 Branch Prediction Accuracy: 76.9778% MPKI: 42.7248 Average ROB Occupancy at Mispredict: 11.4896
Branch type MPKI
BRANCH_DIRECT_JUMP: 1.25324
BRANCH_INDIRECT: 22.4673
BRANCH_CONDITIONAL: 12.3144
BRANCH_DIRECT_CALL: 2.36653
BRANCH_INDIRECT_CALL: 1.00633
BRANCH_RETURN: 3.31707

Instructions large pages: 0
Instructions small pages: 13228
Large page distribution for instructions: 0%

Data large pages: 0
Data small pages: 11873
Large page distribution for data: 0%

cpu0_L1I TOTAL       ACCESS:   39548541  HIT:   31491397  MISS:    8057144  iACCESS:   39548541  iHIT:   31491397  iMISS:    8057144  dACCESS:          0  dHIT:          0  dMISS:          0  itACCESS:          0  itHIT:          0  itMISS:          0  dtACCESS:          0  dtHIT:          0  dtMISS:          0
cpu0_L1I LOAD         ACCESS:   11672380  HIT:    9476503  MISS:    2195877  iACCESS:   11672380  iHIT:    9476503  iMISS:    2195877  dACCESS:          0  dHIT:          0  dMISS:          0  itACCESS:          0  itHIT:          0  itMISS:          0  dtACCESS:          0  dtHIT:          0  dtMISS:          0
cpu0_L1I RFO          ACCESS:          0  HIT:          0  MISS:          0  iACCESS:          0  iHIT:          0  iMISS:          0  dACCESS:          0  dHIT:          0  dMISS:          0  itACCESS:          0  itHIT:          0  itMISS:          0  dtACCESS:          0  dtHIT:          0  dtMISS:          0
cpu0_L1I PREFETCH     ACCESS:   27876161  HIT:   22014894  MISS:    5861267  iACCESS:   27876161  iHIT:   22014894  iMISS:    5861267  dACCESS:          0  dHIT:          0  dMISS:          0  itACCESS:          0  itHIT:          0  itMISS:          0  dtACCESS:          0  dtHIT:          0  dtMISS:          0
cpu0_L1I WRITE        ACCESS:          0  HIT:          0  MISS:          0  iACCESS:          0  iHIT:          0  iMISS:          0  dACCESS:          0  dHIT:          0  dMISS:          0  itACCESS:          0  itHIT:          0  itMISS:          0  dtACCESS:          0  dtHIT:          0  dtMISS:          0
cpu0_L1I TRANSLATION  ACCESS:          0  HIT:          0  MISS:          0  iACCESS:          0  iHIT:          0  iMISS:          0  dACCESS:          0  dHIT:          0  dMISS:          0  itACCESS:          0  itHIT:          0  itMISS:          0  dtACCESS:          0  dtHIT:          0  dtMISS:          0
cpu0_L1I PREFETCH  REQUESTED:   30720033  ISSUED:   30720021  CROSSED:          0  USEFUL:    2051282  USELESS:     698989
cpu0_L1I AVERAGE iMISS LATENCY: 23.3744 cycles
cpu0_L1I AVERAGE dMISS LATENCY: 0 cycles
cpu0_L1I AVERAGE itMISS LATENCY: 0 cycles
cpu0_L1I AVERAGE dtMISS LATENCY: 0 cycles
cpu0_L1I PAGE CROSSINGS (TLB HIT):         0 
cpu0_L1I PAGE CROSSINGS (TLB MISS):         0 
cpu0_L1I AVERAGE MISS LATENCY: 23.3744 cycles
cpu0_ITLB TOTAL       ACCESS:   33261754  HIT:   31206708  MISS:    2055046  iACCESS:   33261754  iHIT:   31206708  iMISS:    2055046  dACCESS:          0  dHIT:          0  dMISS:          0  itACCESS:          0  itHIT:          0  itMISS:          0  dtACCESS:          0  dtHIT:          0  dtMISS:          0
cpu0_ITLB LOAD         ACCESS:   33261754  HIT:   31206708  MISS:    2055046  iACCESS:   33261754  iHIT:   31206708  iMISS:    2055046  dACCESS:          0  dHIT:          0  dMISS:          0  itACCESS:          0  itHIT:          0  itMISS:          0  dtACCESS:          0  dtHIT:          0  dtMISS:          0
cpu0_ITLB RFO          ACCESS:          0  HIT:          0  MISS:          0  iACCESS:          0  iHIT:          0  iMISS:          0  dACCESS:          0  dHIT:          0  dMISS:          0  itACCESS:          0  itHIT:          0  itMISS:          0  dtACCESS:          0  dtHIT:          0  dtMISS:          0
cpu0_ITLB PREFETCH     ACCESS:          0  HIT:          0  MISS:          0  iACCESS:          0  iHIT:          0  iMISS:          0  dACCESS:          0  dHIT:          0  dMISS:          0  itACCESS:          0  itHIT:          0  itMISS:          0  dtACCESS:          0  dtHIT:          0  dtMISS:          0
cpu0_ITLB WRITE        ACCESS:          0  HIT:          0  MISS:          0  iACCESS:          0  iHIT:          0  iMISS:          0  dACCESS:          0  dHIT:          0  dMISS:          0  itACCESS:          0  itHIT:          0  itMISS:          0  dtACCESS:          0  dtHIT:          0  dtMISS:          0
cpu0_ITLB TRANSLATION  ACCESS:          0  HIT:          0  MISS:          0  iACCESS:          0  iHIT:          0  iMISS:          0  dACCESS:          0  dHIT:          0  dMISS:          0  itACCESS:          0  itHIT:          0  itMISS:          0  dtACCESS:          0  dtHIT:          0  dtMISS:          0
cpu0_ITLB PREFETCH  REQUESTED:          0  ISSUED:          0  CROSSED:          0  USEFUL:     356746  USELESS:      73955
cpu0_ITLB AVERAGE iMISS LATENCY: 10.0711 cycles
cpu0_ITLB AVERAGE dMISS LATENCY: 0 cycles
cpu0_ITLB AVERAGE itMISS LATENCY: 0 cycles
cpu0_ITLB AVERAGE dtMISS LATENCY: 0 cycles
cpu0_ITLB PAGE CROSSINGS (TLB HIT):         0 
cpu0_ITLB PAGE CROSSINGS (TLB MISS):         0 
cpu0_ITLB AVERAGE MISS LATENCY: 10.0711 cycles
cpu0_DTLB TOTAL       ACCESS:   29630817  HIT:   24875081  MISS:    4755736  iACCESS:          0  iHIT:          0  iMISS:          0  dACCESS:   29630817  dHIT:   24875081  dMISS:    4755736  itACCESS:          0  itHIT:          0  itMISS:          0  dtACCESS:          0  dtHIT:          0  dtMISS:          0
cpu0_DTLB LOAD         ACCESS:   29630817  HIT:   24875081  MISS:    4755736  iACCESS:          0  iHIT:          0  iMISS:          0  dACCESS:   29630817  dHIT:   24875081  dMISS:    4755736  itACCESS:          0  itHIT:          0  itMISS:          0  dtACCESS:          0  dtHIT:          0  dtMISS:          0
cpu0_DTLB RFO          ACCESS:          0  HIT:          0  MISS:          0  iACCESS:          0  iHIT:          0  iMISS:          0  dACCESS:          0  dHIT:          0  dMISS:          0  itACCESS:          0  itHIT:          0  itMISS:          0  dtACCESS:          0  dtHIT:          0  dtMISS:          0
cpu0_DTLB PREFETCH     ACCESS:          0  HIT:          0  MISS:          0  iACCESS:          0  iHIT:          0  iMISS:          0  dACCESS:          0  dHIT:          0  dMISS:          0  itACCESS:          0  itHIT:          0  itMISS:          0  dtACCESS:          0  dtHIT:          0  dtMISS:          0
cpu0_DTLB WRITE        ACCESS:          0  HIT:          0  MISS:          0  iACCESS:          0  iHIT:          0  iMISS:          0  dACCESS:          0  dHIT:          0  dMISS:          0  itACCESS:          0  itHIT:          0  itMISS:          0  dtACCESS:          0  dtHIT:          0  dtMISS:          0
cpu0_DTLB TRANSLATION  ACCESS:          0  HIT:          0  MISS:          0  iACCESS:          0  iHIT:          0  iMISS:          0  dACCESS:          0  dHIT:          0  dMISS:          0  itACCESS:          0  itHIT:          0  itMISS:          0  dtACCESS:          0  dtHIT:          0  dtMISS:          0
cpu0_DTLB PREFETCH  REQUESTED:          0  ISSUED:          0  CROSSED:          0  USEFUL:          0  USELESS:          0
cpu0_DTLB AVERAGE iMISS LATENCY: 0 cycles
cpu0_DTLB AVERAGE dMISS LATENCY: 18.3813 cycles
cpu0_DTLB AVERAGE itMISS LATENCY: 0 cycles
cpu0_DTLB AVERAGE dtMISS LATENCY: 0 cycles
cpu0_DTLB PAGE CROSSINGS (TLB HIT):         0 
cpu0_DTLB PAGE CROSSINGS (TLB MISS):         0 
cpu0_DTLB AVERAGE MISS LATENCY: 18.3813 cycles
cpu0_STLB TOTAL       ACCESS:    3033115  HIT:    2690756  MISS:     342359  iACCESS:     430709  iHIT:     327451  iMISS:     103258  dACCESS:    2602406  dHIT:    2363305  dMISS:     239101  itACCESS:          0  itHIT:          0  itMISS:          0  dtACCESS:          0  dtHIT:          0  dtMISS:          0
cpu0_STLB LOAD         ACCESS:    3033115  HIT:    2690756  MISS:     342359  iACCESS:     430709  iHIT:     327451  iMISS:     103258  dACCESS:    2602406  dHIT:    2363305  dMISS:     239101  itACCESS:          0  itHIT:          0  itMISS:          0  dtACCESS:          0  dtHIT:          0  dtMISS:          0
cpu0_STLB RFO          ACCESS:          0  HIT:          0  MISS:          0  iACCESS:          0  iHIT:          0  iMISS:          0  dACCESS:          0  dHIT:          0  dMISS:          0  itACCESS:          0  itHIT:          0  itMISS:          0  dtACCESS:          0  dtHIT:          0  dtMISS:          0
cpu0_STLB PREFETCH     ACCESS:          0  HIT:          0  MISS:          0  iACCESS:          0  iHIT:          0  iMISS:          0  dACCESS:          0  dHIT:          0  dMISS:          0  itACCESS:          0  itHIT:          0  itMISS:          0  dtACCESS:          0  dtHIT:          0  dtMISS:          0
cpu0_STLB WRITE        ACCESS:          0  HIT:          0  MISS:          0  iACCESS:          0  iHIT:          0  iMISS:          0  dACCESS:          0  dHIT:          0  dMISS:          0  itACCESS:          0  itHIT:          0  itMISS:          0  dtACCESS:          0  dtHIT:          0  dtMISS:          0
cpu0_STLB TRANSLATION  ACCESS:          0  HIT:          0  MISS:          0  iACCESS:          0  iHIT:          0  iMISS:          0  dACCESS:          0  dHIT:          0  dMISS:          0  itACCESS:          0  itHIT:          0  itMISS:          0  dtACCESS:          0  dtHIT:          0  dtMISS:          0
cpu0_STLB PREFETCH  REQUESTED:          0  ISSUED:          0  CROSSED:          0  USEFUL:          0  USELESS:          0
cpu0_STLB AVERAGE iMISS LATENCY: 50.3931 cycles
cpu0_STLB AVERAGE dMISS LATENCY: 193.996 cycles
cpu0_STLB AVERAGE itMISS LATENCY: 0 cycles
cpu0_STLB AVERAGE dtMISS LATENCY: 0 cycles
cpu0_STLB PAGE CROSSINGS (TLB HIT):         0 
cpu0_STLB PAGE CROSSINGS (TLB MISS):         0 
cpu0_STLB AVERAGE MISS LATENCY: 244.389 cycles
cpu0_L1D TOTAL       ACCESS:   45619577  HIT:   39284081  MISS:    6335496  iACCESS:          0  iHIT:          0  iMISS:          0  dACCESS:   45123699  dHIT:   39253317  dMISS:    5870382  itACCESS:     115515  itHIT:      12297  itMISS:     103218  dtACCESS:     380363  dtHIT:      18467  dtMISS:     361896
cpu0_L1D LOAD         ACCESS:   21117545  HIT:   18120735  MISS:    2996810  iACCESS:          0  iHIT:          0  iMISS:          0  dACCESS:   21117545  dHIT:   18120735  dMISS:    2996810  itACCESS:          0  itHIT:          0  itMISS:          0  dtACCESS:          0  dtHIT:          0  dtMISS:          0
cpu0_L1D RFO          ACCESS:          0  HIT:          0  MISS:          0  iACCESS:          0  iHIT:          0  iMISS:          0  dACCESS:          0  dHIT:          0  dMISS:          0  itACCESS:          0  itHIT:          0  itMISS:          0  dtACCESS:          0  dtHIT:          0  dtMISS:          0
cpu0_L1D PREFETCH     ACCESS:   13986260  HIT:   11651368  MISS:    2334892  iACCESS:          0  iHIT:          0  iMISS:          0  dACCESS:   13986260  dHIT:   11651368  dMISS:    2334892  itACCESS:          0  itHIT:          0  itMISS:          0  dtACCESS:          0  dtHIT:          0  dtMISS:          0
cpu0_L1D WRITE        ACCESS:   10019894  HIT:    9481214  MISS:     538680  iACCESS:          0  iHIT:          0  iMISS:          0  dACCESS:   10019894  dHIT:    9481214  dMISS:     538680  itACCESS:          0  itHIT:          0  itMISS:          0  dtACCESS:          0  dtHIT:          0  dtMISS:          0
cpu0_L1D TRANSLATION  ACCESS:     495878  HIT:      30764  MISS:     465114  iACCESS:          0  iHIT:          0  iMISS:          0  dACCESS:          0  dHIT:          0  dMISS:          0  itACCESS:     115515  itHIT:      12297  itMISS:     103218  dtACCESS:     380363  dtHIT:      18467  dtMISS:     361896
cpu0_L1D PREFETCH  REQUESTED:   21117545  ISSUED:   18573211  CROSSED:          0  USEFUL:     340117  USELESS:    1022391
cpu0_L1D AVERAGE iMISS LATENCY: 0 cycles
cpu0_L1D AVERAGE dMISS LATENCY: 41.484 cycles
cpu0_L1D AVERAGE itMISS LATENCY: 2.5706 cycles
cpu0_L1D AVERAGE dtMISS LATENCY: 9.69627 cycles
cpu0_L1D PAGE CROSSINGS (TLB HIT):         0 
cpu0_L1D PAGE CROSSINGS (TLB MISS):         0 
cpu0_L1D AVERAGE MISS LATENCY: 53.7509 cycles
cpu0_L2C TOTAL       ACCESS:    8964680  HIT:    4923183  MISS:    4041497  iACCESS:    3494836  iHIT:    2142235  iMISS:    1352601  dACCESS:    5025361  dHIT:    2725698  dMISS:    2299663  itACCESS:     102959  itHIT:      19271  itMISS:      83688  dtACCESS:     341524  dtHIT:      35979  dtMISS:     305545
cpu0_L2C LOAD         ACCESS:    2675862  HIT:    1722293  MISS:     953569  iACCESS:     781121  iHIT:     498554  iMISS:     282567  dACCESS:    1894741  dHIT:    1223739  dMISS:     671002  itACCESS:          0  itHIT:          0  itMISS:          0  dtACCESS:          0  dtHIT:          0  dtMISS:          0
cpu0_L2C RFO          ACCESS:     216644  HIT:      96271  MISS:     120373  iACCESS:          0  iHIT:          0  iMISS:          0  dACCESS:     216644  dHIT:      96271  dMISS:     120373  itACCESS:          0  itHIT:          0  itMISS:          0  dtACCESS:          0  dtHIT:          0  dtMISS:          0
cpu0_L2C PREFETCH     ACCESS:    5293104  HIT:    2718538  MISS:    2574566  iACCESS:    2713715  iHIT:    1643681  iMISS:    1070034  dACCESS:    2579389  dHIT:    1074857  dMISS:    1504532  itACCESS:          0  itHIT:          0  itMISS:          0  dtACCESS:          0  dtHIT:          0  dtMISS:          0
cpu0_L2C WRITE        ACCESS:     334587  HIT:     330831  MISS:       3756  iACCESS:          0  iHIT:          0  iMISS:          0  dACCESS:     334587  dHIT:     330831  dMISS:       3756  itACCESS:          0  itHIT:          0  itMISS:          0  dtACCESS:          0  dtHIT:          0  dtMISS:          0
cpu0_L2C TRANSLATION  ACCESS:     444483  HIT:      55250  MISS:     389233  iACCESS:          0  iHIT:          0  iMISS:          0  dACCESS:          0  dHIT:          0  dMISS:          0  itACCESS:     102959  itHIT:      19271  itMISS:      83688  dtACCESS:     341524  dtHIT:      35979  dtMISS:     305545
cpu0_L2C PREFETCH  REQUESTED:    1438327  ISSUED:    1438282  CROSSED:          0  USEFUL:     339160  USELESS:     294244
cpu0_L2C AVERAGE iMISS LATENCY: 39.3042 cycles
cpu0_L2C AVERAGE dMISS LATENCY: 77.1199 cycles
cpu0_L2C AVERAGE itMISS LATENCY: 3.77899 cycles
cpu0_L2C AVERAGE dtMISS LATENCY: 14.359 cycles
cpu0_L2C PAGE CROSSINGS (TLB HIT):         0 
cpu0_L2C PAGE CROSSINGS (TLB MISS):         0 
cpu0_L2C AVERAGE MISS LATENCY: 134.563 cycles
LLC TOTAL       ACCESS:    4039586  HIT:    1294780  MISS:    2744806  iACCESS:    1268304  iHIT:     417836  iMISS:     850468  dACCESS:    2382049  dHIT:     836321  dMISS:    1545728  itACCESS:      83688  itHIT:       6770  itMISS:      76918  dtACCESS:     305545  dtHIT:      33853  dtMISS:     271692
LLC LOAD         ACCESS:     948545  HIT:     322340  MISS:     626205  iACCESS:     281253  iHIT:      98586  iMISS:     182667  dACCESS:     667292  dHIT:     223754  dMISS:     443538  itACCESS:          0  itHIT:          0  itMISS:          0  dtACCESS:          0  dtHIT:          0  dtMISS:          0
LLC RFO          ACCESS:     120366  HIT:      39783  MISS:      80583  iACCESS:          0  iHIT:          0  iMISS:          0  dACCESS:     120366  dHIT:      39783  dMISS:      80583  itACCESS:          0  itHIT:          0  itMISS:          0  dtACCESS:          0  dtHIT:          0  dtMISS:          0
LLC PREFETCH     ACCESS:    2384018  HIT:     704914  MISS:    1679104  iACCESS:     987051  iHIT:     319250  iMISS:     667801  dACCESS:    1396967  dHIT:     385664  dMISS:    1011303  itACCESS:          0  itHIT:          0  itMISS:          0  dtACCESS:          0  dtHIT:          0  dtMISS:          0
LLC WRITE        ACCESS:     197424  HIT:     187120  MISS:      10304  iACCESS:          0  iHIT:          0  iMISS:          0  dACCESS:     197424  dHIT:     187120  dMISS:      10304  itACCESS:          0  itHIT:          0  itMISS:          0  dtACCESS:          0  dtHIT:          0  dtMISS:          0
LLC TRANSLATION  ACCESS:     389233  HIT:      40623  MISS:     348610  iACCESS:          0  iHIT:          0  iMISS:          0  dACCESS:          0  dHIT:          0  dMISS:          0  itACCESS:      83688  itHIT:       6770  itMISS:      76918  dtACCESS:     305545  dtHIT:      33853  dtMISS:     271692
LLC PREFETCH  REQUESTED:          0  ISSUED:          0  CROSSED:          0  USEFUL:          0  USELESS:          0
LLC AVERAGE iMISS LATENCY: 48.7646 cycles
LLC AVERAGE dMISS LATENCY: 98.6758 cycles
LLC AVERAGE itMISS LATENCY: 4.95953 cycles
LLC AVERAGE dtMISS LATENCY: 18.9421 cycles
LLC PAGE CROSSINGS (TLB HIT):         0 
LLC PAGE CROSSINGS (TLB MISS):         0 
LLC AVERAGE MISS LATENCY: 171.342 cycles

PageTableWalker TOTAL       ACCESS:     163971  
PageTableWalker AVERAGE LATENCY: 6.49462 cycles
PageTableWalker TOTAL LATENCY: 1064928 cycles

DRAM Statistics
Channel 0
 RQ ROW_BUFFER_HIT:     584788
  ROW_BUFFER_MISS:    2138166
 AVG DBUS CONGESTED CYCLE:    3.64769
 WQ ROW_BUFFER_HIT:      58354
  ROW_BUFFER_MISS:      48002  FULL:          0

