last_page:0x200000000000000
VMEM_RES_CAP:0x100000
PAGE_SIZE:4096
LOG2_PAGE_SIZE:12
LOG2_PAGE_TABLE_SIZE:9
page_table_levels:5
WARNING: physical memory size is smaller than virtual memory size
FDiP enabled with aggresivity 16

*** ChampSim Multicore Out-of-Order Simulator ***

Warmup Instructions: 50000000
Simulation Instructions: 100000000
Number of CPUs: 1
Small page size: 4096
Large page size: 2097152

CPU 0 Bimodal branch predictor
Basic BTB sets: 1024 ways: 8 indirect buffer size: 4096 RAS size: 64
Instruction page size distrubution: 0
Loading instruction page size distribution from /home/bsc/bsc018186/scratch/itp_asplos25_AE/dump/smt_srv207_ap_srv727_ap_1024i.pdst
Data page size distrubution: 0
Loading data page size distribution from /home/bsc/bsc018186/scratch/itp_asplos25_AE/dump/smt_srv207_ap_srv727_ap_1024i.pdst
cpu0_L2C IP-based stride prefetcher
cpu0_L1D next line prefetcher
CHiRPing...
cpu0_L1I next line prefetcher
Off-chip DRAM Size: 4 GiB Channels: 1 Width: 64-bit Data Rate: 3200 MT/s
Heartbeat CPU 0 instructions: 10000000 cycles: 2500928 heartbeat IPC: 3.99852 cumulative IPC: 3.99852 (Simulation time: 0 hr 0 min 40 sec) 
Heartbeat CPU 0 instructions: 20000002 cycles: 5001301 heartbeat IPC: 3.99941 cumulative IPC: 3.99896 (Simulation time: 0 hr 1 min 22 sec) 
Heartbeat CPU 0 instructions: 30000002 cycles: 7501661 heartbeat IPC: 3.99943 cumulative IPC: 3.99912 (Simulation time: 0 hr 2 min 4 sec) 
Heartbeat CPU 0 instructions: 40000003 cycles: 10002233 heartbeat IPC: 3.99909 cumulative IPC: 3.99911 (Simulation time: 0 hr 2 min 47 sec) 
Heartbeat CPU 0 instructions: 50000003 cycles: 12502566 heartbeat IPC: 3.99947 cumulative IPC: 3.99918 (Simulation time: 0 hr 3 min 30 sec) 
Warmup finished CPU 0 instructions: 50000003 cycles: 12502567 cumulative IPC: 3.99918 (Simulation time: 0 hr 3 min 30 sec) 

Warmup complete CPU 0 instructions: 50000003 cycles: 12502567 (Simulation time: 0 hr 3 min 30 sec) 

Heartbeat CPU 0 instructions: 60000004 cycles: 42697596 heartbeat IPC: 0.331181 cumulative IPC: 0.331181 (Simulation time: 0 hr 4 min 58 sec) 
Heartbeat CPU 0 instructions: 70000004 cycles: 73947050 heartbeat IPC: 0.320006 cumulative IPC: 0.325498 (Simulation time: 0 hr 6 min 28 sec) 
Heartbeat CPU 0 instructions: 80000001 cycles: 106320011 heartbeat IPC: 0.3089 cumulative IPC: 0.31977 (Simulation time: 0 hr 8 min 6 sec) 
Heartbeat CPU 0 instructions: 90000000 cycles: 138157526 heartbeat IPC: 0.314095 cumulative IPC: 0.318333 (Simulation time: 0 hr 9 min 41 sec) 
Heartbeat CPU 0 instructions: 100000000 cycles: 169287039 heartbeat IPC: 0.321239 cumulative IPC: 0.31891 (Simulation time: 0 hr 11 min 11 sec) 
Heartbeat CPU 0 instructions: 110000000 cycles: 201469324 heartbeat IPC: 0.31073 cumulative IPC: 0.317517 (Simulation time: 0 hr 12 min 45 sec) 
Heartbeat CPU 0 instructions: 120000002 cycles: 232692370 heartbeat IPC: 0.320277 cumulative IPC: 0.317908 (Simulation time: 0 hr 14 min 29 sec) 
Heartbeat CPU 0 instructions: 130000000 cycles: 263030808 heartbeat IPC: 0.329615 cumulative IPC: 0.319326 (Simulation time: 0 hr 16 min 11 sec) 
Heartbeat CPU 0 instructions: 140000002 cycles: 295102750 heartbeat IPC: 0.3118 cumulative IPC: 0.318472 (Simulation time: 0 hr 17 min 56 sec) 
Heartbeat CPU 0 instructions: 150000004 cycles: 326005106 heartbeat IPC: 0.3236 cumulative IPC: 0.318977 (Simulation time: 0 hr 19 min 38 sec) 
Simulation finished CPU 0 instructions: 100000001 cycles: 313502540 cumulative IPC: 0.318977 (Simulation time: 0 hr 19 min 38 sec) 

Simulation complete CPU 0 instructions: 100000001 cycles: 313502540 (Simulation time: 0 hr 19 min 38 sec) 


ChampSim completed all CPUs

Saving instructions large page distribution to /home/bsc/bsc018186/scratch/itp_asplos25_AE/dump/smt_srv207_ap_srv727_ap_1024i.pdst...
Saving data large page distribution to /home/bsc/bsc018186/scratch/itp_asplos25_AE/dump/smt_srv207_ap_srv727_ap_1024i.pdst...
=== Simulation ===
CPU 0 runs /gpfs/projects/bsc18/MN4/bsc18/romol/ChampSim/traces/qualcomm_srv/smt_srv207_ap_srv727_ap_1024i.champsimtrace.xz

Region of Interest Statistics

CPU 0 cumulative IPC: 0.318977 instructions: 100000001 cycles: 313502540
CPU 0 Branch Prediction Accuracy: 74.5167% MPKI: 45.8478 Average ROB Occupancy at Mispredict: 10.8631
Branch type MPKI
BRANCH_DIRECT_JUMP: 1.43368
BRANCH_INDIRECT: 24.037
BRANCH_CONDITIONAL: 13.0153
BRANCH_DIRECT_CALL: 2.7401
BRANCH_INDIRECT_CALL: 1.02377
BRANCH_RETURN: 3.59798

Instructions large pages: 0
Instructions small pages: 11368
Large page distribution for instructions: 0%

Data large pages: 0
Data small pages: 9849
Large page distribution for data: 0%

cpu0_L1I TOTAL       ACCESS:   39010227  HIT:   30285184  MISS:    8725043  iACCESS:   39010227  iHIT:   30285184  iMISS:    8725043  dACCESS:          0  dHIT:          0  dMISS:          0  itACCESS:          0  itHIT:          0  itMISS:          0  dtACCESS:          0  dtHIT:          0  dtMISS:          0
cpu0_L1I LOAD         ACCESS:   11534852  HIT:    9159119  MISS:    2375733  iACCESS:   11534852  iHIT:    9159119  iMISS:    2375733  dACCESS:          0  dHIT:          0  dMISS:          0  itACCESS:          0  itHIT:          0  itMISS:          0  dtACCESS:          0  dtHIT:          0  dtMISS:          0
cpu0_L1I RFO          ACCESS:          0  HIT:          0  MISS:          0  iACCESS:          0  iHIT:          0  iMISS:          0  dACCESS:          0  dHIT:          0  dMISS:          0  itACCESS:          0  itHIT:          0  itMISS:          0  dtACCESS:          0  dtHIT:          0  dtMISS:          0
cpu0_L1I PREFETCH     ACCESS:   27475375  HIT:   21126065  MISS:    6349310  iACCESS:   27475375  iHIT:   21126065  iMISS:    6349310  dACCESS:          0  dHIT:          0  dMISS:          0  itACCESS:          0  itHIT:          0  itMISS:          0  dtACCESS:          0  dtHIT:          0  dtMISS:          0
cpu0_L1I WRITE        ACCESS:          0  HIT:          0  MISS:          0  iACCESS:          0  iHIT:          0  iMISS:          0  dACCESS:          0  dHIT:          0  dMISS:          0  itACCESS:          0  itHIT:          0  itMISS:          0  dtACCESS:          0  dtHIT:          0  dtMISS:          0
cpu0_L1I TRANSLATION  ACCESS:          0  HIT:          0  MISS:          0  iACCESS:          0  iHIT:          0  iMISS:          0  dACCESS:          0  dHIT:          0  dMISS:          0  itACCESS:          0  itHIT:          0  itMISS:          0  dtACCESS:          0  dtHIT:          0  dtMISS:          0
cpu0_L1I PREFETCH  REQUESTED:   30170710  ISSUED:   30170544  CROSSED:          0  USEFUL:    2207240  USELESS:     793775
cpu0_L1I AVERAGE iMISS LATENCY: 25.3588 cycles
cpu0_L1I AVERAGE dMISS LATENCY: 0 cycles
cpu0_L1I AVERAGE itMISS LATENCY: 0 cycles
cpu0_L1I AVERAGE dtMISS LATENCY: 0 cycles
cpu0_L1I PAGE CROSSINGS (TLB HIT):         0 
cpu0_L1I PAGE CROSSINGS (TLB MISS):         0 
cpu0_L1I AVERAGE MISS LATENCY: 25.3588 cycles
cpu0_ITLB TOTAL       ACCESS:   33146892  HIT:   30877234  MISS:    2269658  iACCESS:   33146892  iHIT:   30877234  iMISS:    2269658  dACCESS:          0  dHIT:          0  dMISS:          0  itACCESS:          0  itHIT:          0  itMISS:          0  dtACCESS:          0  dtHIT:          0  dtMISS:          0
cpu0_ITLB LOAD         ACCESS:   33146892  HIT:   30877234  MISS:    2269658  iACCESS:   33146892  iHIT:   30877234  iMISS:    2269658  dACCESS:          0  dHIT:          0  dMISS:          0  itACCESS:          0  itHIT:          0  itMISS:          0  dtACCESS:          0  dtHIT:          0  dtMISS:          0
cpu0_ITLB RFO          ACCESS:          0  HIT:          0  MISS:          0  iACCESS:          0  iHIT:          0  iMISS:          0  dACCESS:          0  dHIT:          0  dMISS:          0  itACCESS:          0  itHIT:          0  itMISS:          0  dtACCESS:          0  dtHIT:          0  dtMISS:          0
cpu0_ITLB PREFETCH     ACCESS:          0  HIT:          0  MISS:          0  iACCESS:          0  iHIT:          0  iMISS:          0  dACCESS:          0  dHIT:          0  dMISS:          0  itACCESS:          0  itHIT:          0  itMISS:          0  dtACCESS:          0  dtHIT:          0  dtMISS:          0
cpu0_ITLB WRITE        ACCESS:          0  HIT:          0  MISS:          0  iACCESS:          0  iHIT:          0  iMISS:          0  dACCESS:          0  dHIT:          0  dMISS:          0  itACCESS:          0  itHIT:          0  itMISS:          0  dtACCESS:          0  dtHIT:          0  dtMISS:          0
cpu0_ITLB TRANSLATION  ACCESS:          0  HIT:          0  MISS:          0  iACCESS:          0  iHIT:          0  iMISS:          0  dACCESS:          0  dHIT:          0  dMISS:          0  itACCESS:          0  itHIT:          0  itMISS:          0  dtACCESS:          0  dtHIT:          0  dtMISS:          0
cpu0_ITLB PREFETCH  REQUESTED:          0  ISSUED:          0  CROSSED:          0  USEFUL:     399091  USELESS:      82766
cpu0_ITLB AVERAGE iMISS LATENCY: 10.824 cycles
cpu0_ITLB AVERAGE dMISS LATENCY: 0 cycles
cpu0_ITLB AVERAGE itMISS LATENCY: 0 cycles
cpu0_ITLB AVERAGE dtMISS LATENCY: 0 cycles
cpu0_ITLB PAGE CROSSINGS (TLB HIT):         0 
cpu0_ITLB PAGE CROSSINGS (TLB MISS):         0 
cpu0_ITLB AVERAGE MISS LATENCY: 10.824 cycles
cpu0_DTLB TOTAL       ACCESS:   29216387  HIT:   25694211  MISS:    3522176  iACCESS:          0  iHIT:          0  iMISS:          0  dACCESS:   29216387  dHIT:   25694211  dMISS:    3522176  itACCESS:          0  itHIT:          0  itMISS:          0  dtACCESS:          0  dtHIT:          0  dtMISS:          0
cpu0_DTLB LOAD         ACCESS:   29216387  HIT:   25694211  MISS:    3522176  iACCESS:          0  iHIT:          0  iMISS:          0  dACCESS:   29216387  dHIT:   25694211  dMISS:    3522176  itACCESS:          0  itHIT:          0  itMISS:          0  dtACCESS:          0  dtHIT:          0  dtMISS:          0
cpu0_DTLB RFO          ACCESS:          0  HIT:          0  MISS:          0  iACCESS:          0  iHIT:          0  iMISS:          0  dACCESS:          0  dHIT:          0  dMISS:          0  itACCESS:          0  itHIT:          0  itMISS:          0  dtACCESS:          0  dtHIT:          0  dtMISS:          0
cpu0_DTLB PREFETCH     ACCESS:          0  HIT:          0  MISS:          0  iACCESS:          0  iHIT:          0  iMISS:          0  dACCESS:          0  dHIT:          0  dMISS:          0  itACCESS:          0  itHIT:          0  itMISS:          0  dtACCESS:          0  dtHIT:          0  dtMISS:          0
cpu0_DTLB WRITE        ACCESS:          0  HIT:          0  MISS:          0  iACCESS:          0  iHIT:          0  iMISS:          0  dACCESS:          0  dHIT:          0  dMISS:          0  itACCESS:          0  itHIT:          0  itMISS:          0  dtACCESS:          0  dtHIT:          0  dtMISS:          0
cpu0_DTLB TRANSLATION  ACCESS:          0  HIT:          0  MISS:          0  iACCESS:          0  iHIT:          0  iMISS:          0  dACCESS:          0  dHIT:          0  dMISS:          0  itACCESS:          0  itHIT:          0  itMISS:          0  dtACCESS:          0  dtHIT:          0  dtMISS:          0
cpu0_DTLB PREFETCH  REQUESTED:          0  ISSUED:          0  CROSSED:          0  USEFUL:          0  USELESS:          0
cpu0_DTLB AVERAGE iMISS LATENCY: 0 cycles
cpu0_DTLB AVERAGE dMISS LATENCY: 26.6122 cycles
cpu0_DTLB AVERAGE itMISS LATENCY: 0 cycles
cpu0_DTLB AVERAGE dtMISS LATENCY: 0 cycles
cpu0_DTLB PAGE CROSSINGS (TLB HIT):         0 
cpu0_DTLB PAGE CROSSINGS (TLB MISS):         0 
cpu0_DTLB AVERAGE MISS LATENCY: 26.6122 cycles
cpu0_STLB TOTAL       ACCESS:    2566981  HIT:    2174253  MISS:     392728  iACCESS:     481861  iHIT:     361772  iMISS:     120089  dACCESS:    2085120  dHIT:    1812481  dMISS:     272639  itACCESS:          0  itHIT:          0  itMISS:          0  dtACCESS:          0  dtHIT:          0  dtMISS:          0
cpu0_STLB LOAD         ACCESS:    2566981  HIT:    2174253  MISS:     392728  iACCESS:     481861  iHIT:     361772  iMISS:     120089  dACCESS:    2085120  dHIT:    1812481  dMISS:     272639  itACCESS:          0  itHIT:          0  itMISS:          0  dtACCESS:          0  dtHIT:          0  dtMISS:          0
cpu0_STLB RFO          ACCESS:          0  HIT:          0  MISS:          0  iACCESS:          0  iHIT:          0  iMISS:          0  dACCESS:          0  dHIT:          0  dMISS:          0  itACCESS:          0  itHIT:          0  itMISS:          0  dtACCESS:          0  dtHIT:          0  dtMISS:          0
cpu0_STLB PREFETCH     ACCESS:          0  HIT:          0  MISS:          0  iACCESS:          0  iHIT:          0  iMISS:          0  dACCESS:          0  dHIT:          0  dMISS:          0  itACCESS:          0  itHIT:          0  itMISS:          0  dtACCESS:          0  dtHIT:          0  dtMISS:          0
cpu0_STLB WRITE        ACCESS:          0  HIT:          0  MISS:          0  iACCESS:          0  iHIT:          0  iMISS:          0  dACCESS:          0  dHIT:          0  dMISS:          0  itACCESS:          0  itHIT:          0  itMISS:          0  dtACCESS:          0  dtHIT:          0  dtMISS:          0
cpu0_STLB TRANSLATION  ACCESS:          0  HIT:          0  MISS:          0  iACCESS:          0  iHIT:          0  iMISS:          0  dACCESS:          0  dHIT:          0  dMISS:          0  itACCESS:          0  itHIT:          0  itMISS:          0  dtACCESS:          0  dtHIT:          0  dtMISS:          0
cpu0_STLB PREFETCH  REQUESTED:          0  ISSUED:          0  CROSSED:          0  USEFUL:          0  USELESS:          0
cpu0_STLB AVERAGE iMISS LATENCY: 52.7292 cycles
cpu0_STLB AVERAGE dMISS LATENCY: 195.905 cycles
cpu0_STLB AVERAGE itMISS LATENCY: 0 cycles
cpu0_STLB AVERAGE dtMISS LATENCY: 0 cycles
cpu0_STLB PAGE CROSSINGS (TLB HIT):         0 
cpu0_STLB PAGE CROSSINGS (TLB MISS):         0 
cpu0_STLB AVERAGE MISS LATENCY: 248.634 cycles
cpu0_L1D TOTAL       ACCESS:   45646718  HIT:   39679932  MISS:    5966786  iACCESS:          0  iHIT:          0  iMISS:          0  dACCESS:   45074907  dHIT:   39647125  dMISS:    5427782  itACCESS:     134253  itHIT:      13923  itMISS:     120330  dtACCESS:     437558  dtHIT:      18884  dtMISS:     418674
cpu0_L1D LOAD         ACCESS:   20658871  HIT:   18214898  MISS:    2443973  iACCESS:          0  iHIT:          0  iMISS:          0  dACCESS:   20658871  dHIT:   18214898  dMISS:    2443973  itACCESS:          0  itHIT:          0  itMISS:          0  dtACCESS:          0  dtHIT:          0  dtMISS:          0
cpu0_L1D RFO          ACCESS:          0  HIT:          0  MISS:          0  iACCESS:          0  iHIT:          0  iMISS:          0  dACCESS:          0  dHIT:          0  dMISS:          0  itACCESS:          0  itHIT:          0  itMISS:          0  dtACCESS:          0  dtHIT:          0  dtMISS:          0
cpu0_L1D PREFETCH     ACCESS:   14296315  HIT:   11917336  MISS:    2378979  iACCESS:          0  iHIT:          0  iMISS:          0  dACCESS:   14296315  dHIT:   11917336  dMISS:    2378979  itACCESS:          0  itHIT:          0  itMISS:          0  dtACCESS:          0  dtHIT:          0  dtMISS:          0
cpu0_L1D WRITE        ACCESS:   10119721  HIT:    9514891  MISS:     604830  iACCESS:          0  iHIT:          0  iMISS:          0  dACCESS:   10119721  dHIT:    9514891  dMISS:     604830  itACCESS:          0  itHIT:          0  itMISS:          0  dtACCESS:          0  dtHIT:          0  dtMISS:          0
cpu0_L1D TRANSLATION  ACCESS:     571811  HIT:      32807  MISS:     539004  iACCESS:          0  iHIT:          0  iMISS:          0  dACCESS:          0  dHIT:          0  dMISS:          0  itACCESS:     134253  itHIT:      13923  itMISS:     120330  dtACCESS:     437558  dtHIT:      18884  dtMISS:     418674
cpu0_L1D PREFETCH  REQUESTED:   20658871  ISSUED:   18872156  CROSSED:          0  USEFUL:     380325  USELESS:     959568
cpu0_L1D AVERAGE iMISS LATENCY: 0 cycles
cpu0_L1D AVERAGE dMISS LATENCY: 50.7006 cycles
cpu0_L1D AVERAGE itMISS LATENCY: 3.2811 cycles
cpu0_L1D AVERAGE dtMISS LATENCY: 12.1146 cycles
cpu0_L1D PAGE CROSSINGS (TLB HIT):         0 
cpu0_L1D PAGE CROSSINGS (TLB MISS):         0 
cpu0_L1D AVERAGE MISS LATENCY: 66.0963 cycles
cpu0_L2C TOTAL       ACCESS:    8789562  HIT:    4228235  MISS:    4561327  iACCESS:    3821825  iHIT:    2296339  iMISS:    1525486  dACCESS:    4461737  dHIT:    1872336  dMISS:    2589401  itACCESS:     119987  itHIT:      21305  itMISS:      98682  dtACCESS:     386013  dtHIT:      38255  dtMISS:     347758
cpu0_L2C LOAD         ACCESS:    2113620  HIT:    1021791  MISS:    1091829  iACCESS:     855661  iHIT:     536781  iMISS:     318880  dACCESS:    1257959  dHIT:     485010  dMISS:     772949  itACCESS:          0  itHIT:          0  itMISS:          0  dtACCESS:          0  dtHIT:          0  dtMISS:          0
cpu0_L2C RFO          ACCESS:     225811  HIT:      88258  MISS:     137553  iACCESS:          0  iHIT:          0  iMISS:          0  dACCESS:     225811  dHIT:      88258  dMISS:     137553  itACCESS:          0  itHIT:          0  itMISS:          0  dtACCESS:          0  dtHIT:          0  dtMISS:          0
cpu0_L2C PREFETCH     ACCESS:    5593463  HIT:    2711975  MISS:    2881488  iACCESS:    2966164  iHIT:    1759558  iMISS:    1206606  dACCESS:    2627299  dHIT:     952417  dMISS:    1674882  itACCESS:          0  itHIT:          0  itMISS:          0  dtACCESS:          0  dtHIT:          0  dtMISS:          0
cpu0_L2C WRITE        ACCESS:     350668  HIT:     346651  MISS:       4017  iACCESS:          0  iHIT:          0  iMISS:          0  dACCESS:     350668  dHIT:     346651  dMISS:       4017  itACCESS:          0  itHIT:          0  itMISS:          0  dtACCESS:          0  dtHIT:          0  dtMISS:          0
cpu0_L2C TRANSLATION  ACCESS:     506000  HIT:      59560  MISS:     446440  iACCESS:          0  iHIT:          0  iMISS:          0  dACCESS:          0  dHIT:          0  dMISS:          0  itACCESS:     119987  itHIT:      21305  itMISS:      98682  dtACCESS:     386013  dtHIT:      38255  dtMISS:     347758
cpu0_L2C PREFETCH  REQUESTED:    1525545  ISSUED:    1525537  CROSSED:          0  USEFUL:     352116  USELESS:     329538
cpu0_L2C AVERAGE iMISS LATENCY: 41.5627 cycles
cpu0_L2C AVERAGE dMISS LATENCY: 81.941 cycles
cpu0_L2C AVERAGE itMISS LATENCY: 4.03295 cycles
cpu0_L2C AVERAGE dtMISS LATENCY: 15.0048 cycles
cpu0_L2C PAGE CROSSINGS (TLB HIT):         0 
cpu0_L2C PAGE CROSSINGS (TLB MISS):         0 
cpu0_L2C AVERAGE MISS LATENCY: 142.542 cycles
LLC TOTAL       ACCESS:    4554578  HIT:    1291794  MISS:    3262784  iACCESS:    1438330  iHIT:     425765  iMISS:    1012565  dACCESS:    2669807  dHIT:     827654  dMISS:    1842153  itACCESS:      98683  itHIT:       7024  itMISS:      91659  dtACCESS:     347758  dtHIT:      31351  dtMISS:     316407
LLC LOAD         ACCESS:    1083812  HIT:     321047  MISS:     762765  iACCESS:     317723  iHIT:     100702  iMISS:     217021  dACCESS:     766089  dHIT:     220345  dMISS:     545744  itACCESS:          0  itHIT:          0  itMISS:          0  dtACCESS:          0  dtHIT:          0  dtMISS:          0
LLC RFO          ACCESS:     137553  HIT:      39733  MISS:      97820  iACCESS:          0  iHIT:          0  iMISS:          0  dACCESS:     137553  dHIT:      39733  dMISS:      97820  itACCESS:          0  itHIT:          0  itMISS:          0  dtACCESS:          0  dtHIT:          0  dtMISS:          0
LLC PREFETCH     ACCESS:    2673308  HIT:     690149  MISS:    1983159  iACCESS:    1120607  iHIT:     325063  iMISS:     795544  dACCESS:    1552701  dHIT:     365086  dMISS:    1187615  itACCESS:          0  itHIT:          0  itMISS:          0  dtACCESS:          0  dtHIT:          0  dtMISS:          0
LLC WRITE        ACCESS:     213464  HIT:     202490  MISS:      10974  iACCESS:          0  iHIT:          0  iMISS:          0  dACCESS:     213464  dHIT:     202490  dMISS:      10974  itACCESS:          0  itHIT:          0  itMISS:          0  dtACCESS:          0  dtHIT:          0  dtMISS:          0
LLC TRANSLATION  ACCESS:     446441  HIT:      38375  MISS:     408066  iACCESS:          0  iHIT:          0  iMISS:          0  dACCESS:          0  dHIT:          0  dMISS:          0  itACCESS:      98683  itHIT:       7024  itMISS:      91659  dtACCESS:     347758  dtHIT:      31351  dtMISS:     316407
LLC PREFETCH  REQUESTED:          0  ISSUED:          0  CROSSED:          0  USEFUL:          0  USELESS:          0
LLC AVERAGE iMISS LATENCY: 49.4124 cycles
LLC AVERAGE dMISS LATENCY: 100.572 cycles
LLC AVERAGE itMISS LATENCY: 5.03814 cycles
LLC AVERAGE dtMISS LATENCY: 18.868 cycles
LLC PAGE CROSSINGS (TLB HIT):         0 
LLC PAGE CROSSINGS (TLB MISS):         0 
LLC AVERAGE MISS LATENCY: 173.891 cycles

PageTableWalker TOTAL       ACCESS:     193837  
PageTableWalker AVERAGE LATENCY: 6.54281 cycles
PageTableWalker TOTAL LATENCY: 1268238 cycles

DRAM Statistics
Channel 0
 RQ ROW_BUFFER_HIT:     661850
  ROW_BUFFER_MISS:    2570648
 AVG DBUS CONGESTED CYCLE:    3.65219
 WQ ROW_BUFFER_HIT:      68617
  ROW_BUFFER_MISS:      59673  FULL:          0

