last_page:0x200000000000000
VMEM_RES_CAP:0x100000
PAGE_SIZE:4096
LOG2_PAGE_SIZE:12
LOG2_PAGE_TABLE_SIZE:9
page_table_levels:5
WARNING: physical memory size is smaller than virtual memory size
FDiP enabled with aggresivity 16

*** ChampSim Multicore Out-of-Order Simulator ***

Warmup Instructions: 50000000
Simulation Instructions: 100000000
Number of CPUs: 1
Small page size: 4096
Large page size: 2097152

CPU 0 Bimodal branch predictor
Basic BTB sets: 1024 ways: 8 indirect buffer size: 4096 RAS size: 64
Instruction page size distrubution: 0
Loading instruction page size distribution from /home/bsc/bsc018186/scratch/itp_asplos25_AE/dump/smt_srv537_ap_srv224_ap_1024i.pdst
Data page size distrubution: 0
Loading data page size distribution from /home/bsc/bsc018186/scratch/itp_asplos25_AE/dump/smt_srv537_ap_srv224_ap_1024i.pdst
cpu0_L2C IP-based stride prefetcher
cpu0_L1D next line prefetcher
cpu0_L1I next line prefetcher
Off-chip DRAM Size: 4 GiB Channels: 1 Width: 64-bit Data Rate: 3200 MT/s
Heartbeat CPU 0 instructions: 10000001 cycles: 2500686 heartbeat IPC: 3.99891 cumulative IPC: 3.99891 (Simulation time: 0 hr 0 min 46 sec) 
Heartbeat CPU 0 instructions: 20000003 cycles: 5001057 heartbeat IPC: 3.99941 cumulative IPC: 3.99916 (Simulation time: 0 hr 1 min 34 sec) 
Heartbeat CPU 0 instructions: 30000000 cycles: 7501469 heartbeat IPC: 3.99934 cumulative IPC: 3.99922 (Simulation time: 0 hr 2 min 18 sec) 
Heartbeat CPU 0 instructions: 40000003 cycles: 10049314 heartbeat IPC: 3.92489 cumulative IPC: 3.98038 (Simulation time: 0 hr 3 min 6 sec) 
Heartbeat CPU 0 instructions: 50000002 cycles: 12611948 heartbeat IPC: 3.90224 cumulative IPC: 3.9645 (Simulation time: 0 hr 3 min 57 sec) 
Warmup finished CPU 0 instructions: 50000002 cycles: 12611949 cumulative IPC: 3.9645 (Simulation time: 0 hr 3 min 57 sec) 

Warmup complete CPU 0 instructions: 50000002 cycles: 12611949 (Simulation time: 0 hr 3 min 57 sec) 

Heartbeat CPU 0 instructions: 60000002 cycles: 29696749 heartbeat IPC: 0.585316 cumulative IPC: 0.585316 (Simulation time: 0 hr 5 min 19 sec) 
Heartbeat CPU 0 instructions: 70000003 cycles: 58500389 heartbeat IPC: 0.347179 cumulative IPC: 0.43584 (Simulation time: 0 hr 6 min 54 sec) 
Heartbeat CPU 0 instructions: 80000003 cycles: 86607161 heartbeat IPC: 0.355787 cumulative IPC: 0.405432 (Simulation time: 0 hr 8 min 32 sec) 
Heartbeat CPU 0 instructions: 90000000 cycles: 115752312 heartbeat IPC: 0.343111 cumulative IPC: 0.387821 (Simulation time: 0 hr 10 min 11 sec) 
Heartbeat CPU 0 instructions: 100000003 cycles: 144136537 heartbeat IPC: 0.352309 cumulative IPC: 0.380158 (Simulation time: 0 hr 11 min 44 sec) 
Heartbeat CPU 0 instructions: 110000002 cycles: 173480255 heartbeat IPC: 0.340789 cumulative IPC: 0.372976 (Simulation time: 0 hr 13 min 24 sec) 
Heartbeat CPU 0 instructions: 120000000 cycles: 201450635 heartbeat IPC: 0.357521 cumulative IPC: 0.370687 (Simulation time: 0 hr 14 min 54 sec) 
Heartbeat CPU 0 instructions: 130000000 cycles: 229547809 heartbeat IPC: 0.355908 cumulative IPC: 0.368773 (Simulation time: 0 hr 16 min 23 sec) 
Heartbeat CPU 0 instructions: 140000003 cycles: 258510810 heartbeat IPC: 0.345269 cumulative IPC: 0.366005 (Simulation time: 0 hr 17 min 57 sec) 
Heartbeat CPU 0 instructions: 150000002 cycles: 287215050 heartbeat IPC: 0.348381 cumulative IPC: 0.364162 (Simulation time: 0 hr 19 min 25 sec) 
Simulation finished CPU 0 instructions: 100000000 cycles: 274603102 cumulative IPC: 0.364162 (Simulation time: 0 hr 19 min 25 sec) 

Simulation complete CPU 0 instructions: 100000000 cycles: 274603102 (Simulation time: 0 hr 19 min 25 sec) 


ChampSim completed all CPUs

Saving instructions large page distribution to /home/bsc/bsc018186/scratch/itp_asplos25_AE/dump/smt_srv537_ap_srv224_ap_1024i.pdst...
Saving data large page distribution to /home/bsc/bsc018186/scratch/itp_asplos25_AE/dump/smt_srv537_ap_srv224_ap_1024i.pdst...
=== Simulation ===
CPU 0 runs /gpfs/projects/bsc18/MN4/bsc18/romol/ChampSim/traces/qualcomm_srv/smt_srv537_ap_srv224_ap_1024i.champsimtrace.xz

Region of Interest Statistics

CPU 0 cumulative IPC: 0.364162 instructions: 100000000 cycles: 274603102
CPU 0 Branch Prediction Accuracy: 77.0391% MPKI: 42.6818 Average ROB Occupancy at Mispredict: 11.4051
Branch type MPKI
BRANCH_DIRECT_JUMP: 1.24267
BRANCH_INDIRECT: 22.3948
BRANCH_CONDITIONAL: 12.3743
BRANCH_DIRECT_CALL: 2.36183
BRANCH_INDIRECT_CALL: 1.00878
BRANCH_RETURN: 3.29945

Instructions large pages: 0
Instructions small pages: 13855
Large page distribution for instructions: 0%

Data large pages: 0
Data small pages: 12484
Large page distribution for data: 0%

cpu0_L1I TOTAL       ACCESS:   39536761  HIT:   31387198  MISS:    8149563  iACCESS:   39536761  iHIT:   31387198  iMISS:    8149563  dACCESS:          0  dHIT:          0  dMISS:          0  itACCESS:          0  itHIT:          0  itMISS:          0  dtACCESS:          0  dtHIT:          0  dtMISS:          0
cpu0_L1I LOAD         ACCESS:   11649524  HIT:    9425400  MISS:    2224124  iACCESS:   11649524  iHIT:    9425400  iMISS:    2224124  dACCESS:          0  dHIT:          0  dMISS:          0  itACCESS:          0  itHIT:          0  itMISS:          0  dtACCESS:          0  dtHIT:          0  dtMISS:          0
cpu0_L1I RFO          ACCESS:          0  HIT:          0  MISS:          0  iACCESS:          0  iHIT:          0  iMISS:          0  dACCESS:          0  dHIT:          0  dMISS:          0  itACCESS:          0  itHIT:          0  itMISS:          0  dtACCESS:          0  dtHIT:          0  dtMISS:          0
cpu0_L1I PREFETCH     ACCESS:   27887237  HIT:   21961798  MISS:    5925439  iACCESS:   27887237  iHIT:   21961798  iMISS:    5925439  dACCESS:          0  dHIT:          0  dMISS:          0  itACCESS:          0  itHIT:          0  itMISS:          0  dtACCESS:          0  dtHIT:          0  dtMISS:          0
cpu0_L1I WRITE        ACCESS:          0  HIT:          0  MISS:          0  iACCESS:          0  iHIT:          0  iMISS:          0  dACCESS:          0  dHIT:          0  dMISS:          0  itACCESS:          0  itHIT:          0  itMISS:          0  dtACCESS:          0  dtHIT:          0  dtMISS:          0
cpu0_L1I TRANSLATION  ACCESS:          0  HIT:          0  MISS:          0  iACCESS:          0  iHIT:          0  iMISS:          0  dACCESS:          0  dHIT:          0  dMISS:          0  itACCESS:          0  itHIT:          0  itMISS:          0  dtACCESS:          0  dtHIT:          0  dtMISS:          0
cpu0_L1I PREFETCH  REQUESTED:   30710306  ISSUED:   30710299  CROSSED:          0  USEFUL:    2073281  USELESS:     709240
cpu0_L1I AVERAGE iMISS LATENCY: 22.9146 cycles
cpu0_L1I AVERAGE dMISS LATENCY: 0 cycles
cpu0_L1I AVERAGE itMISS LATENCY: 0 cycles
cpu0_L1I AVERAGE dtMISS LATENCY: 0 cycles
cpu0_L1I PAGE CROSSINGS (TLB HIT):         0 
cpu0_L1I PAGE CROSSINGS (TLB MISS):         0 
cpu0_L1I AVERAGE MISS LATENCY: 22.9146 cycles
cpu0_ITLB TOTAL       ACCESS:   33281207  HIT:   31195985  MISS:    2085222  iACCESS:   33281207  iHIT:   31195985  iMISS:    2085222  dACCESS:          0  dHIT:          0  dMISS:          0  itACCESS:          0  itHIT:          0  itMISS:          0  dtACCESS:          0  dtHIT:          0  dtMISS:          0
cpu0_ITLB LOAD         ACCESS:   33281207  HIT:   31195985  MISS:    2085222  iACCESS:   33281207  iHIT:   31195985  iMISS:    2085222  dACCESS:          0  dHIT:          0  dMISS:          0  itACCESS:          0  itHIT:          0  itMISS:          0  dtACCESS:          0  dtHIT:          0  dtMISS:          0
cpu0_ITLB RFO          ACCESS:          0  HIT:          0  MISS:          0  iACCESS:          0  iHIT:          0  iMISS:          0  dACCESS:          0  dHIT:          0  dMISS:          0  itACCESS:          0  itHIT:          0  itMISS:          0  dtACCESS:          0  dtHIT:          0  dtMISS:          0
cpu0_ITLB PREFETCH     ACCESS:          0  HIT:          0  MISS:          0  iACCESS:          0  iHIT:          0  iMISS:          0  dACCESS:          0  dHIT:          0  dMISS:          0  itACCESS:          0  itHIT:          0  itMISS:          0  dtACCESS:          0  dtHIT:          0  dtMISS:          0
cpu0_ITLB WRITE        ACCESS:          0  HIT:          0  MISS:          0  iACCESS:          0  iHIT:          0  iMISS:          0  dACCESS:          0  dHIT:          0  dMISS:          0  itACCESS:          0  itHIT:          0  itMISS:          0  dtACCESS:          0  dtHIT:          0  dtMISS:          0
cpu0_ITLB TRANSLATION  ACCESS:          0  HIT:          0  MISS:          0  iACCESS:          0  iHIT:          0  iMISS:          0  dACCESS:          0  dHIT:          0  dMISS:          0  itACCESS:          0  itHIT:          0  itMISS:          0  dtACCESS:          0  dtHIT:          0  dtMISS:          0
cpu0_ITLB PREFETCH  REQUESTED:          0  ISSUED:          0  CROSSED:          0  USEFUL:     361154  USELESS:      75052
cpu0_ITLB AVERAGE iMISS LATENCY: 9.55375 cycles
cpu0_ITLB AVERAGE dMISS LATENCY: 0 cycles
cpu0_ITLB AVERAGE itMISS LATENCY: 0 cycles
cpu0_ITLB AVERAGE dtMISS LATENCY: 0 cycles
cpu0_ITLB PAGE CROSSINGS (TLB HIT):         0 
cpu0_ITLB PAGE CROSSINGS (TLB MISS):         0 
cpu0_ITLB AVERAGE MISS LATENCY: 9.55375 cycles
cpu0_DTLB TOTAL       ACCESS:   29634746  HIT:   25084458  MISS:    4550288  iACCESS:          0  iHIT:          0  iMISS:          0  dACCESS:   29634746  dHIT:   25084458  dMISS:    4550288  itACCESS:          0  itHIT:          0  itMISS:          0  dtACCESS:          0  dtHIT:          0  dtMISS:          0
cpu0_DTLB LOAD         ACCESS:   29634746  HIT:   25084458  MISS:    4550288  iACCESS:          0  iHIT:          0  iMISS:          0  dACCESS:   29634746  dHIT:   25084458  dMISS:    4550288  itACCESS:          0  itHIT:          0  itMISS:          0  dtACCESS:          0  dtHIT:          0  dtMISS:          0
cpu0_DTLB RFO          ACCESS:          0  HIT:          0  MISS:          0  iACCESS:          0  iHIT:          0  iMISS:          0  dACCESS:          0  dHIT:          0  dMISS:          0  itACCESS:          0  itHIT:          0  itMISS:          0  dtACCESS:          0  dtHIT:          0  dtMISS:          0
cpu0_DTLB PREFETCH     ACCESS:          0  HIT:          0  MISS:          0  iACCESS:          0  iHIT:          0  iMISS:          0  dACCESS:          0  dHIT:          0  dMISS:          0  itACCESS:          0  itHIT:          0  itMISS:          0  dtACCESS:          0  dtHIT:          0  dtMISS:          0
cpu0_DTLB WRITE        ACCESS:          0  HIT:          0  MISS:          0  iACCESS:          0  iHIT:          0  iMISS:          0  dACCESS:          0  dHIT:          0  dMISS:          0  itACCESS:          0  itHIT:          0  itMISS:          0  dtACCESS:          0  dtHIT:          0  dtMISS:          0
cpu0_DTLB TRANSLATION  ACCESS:          0  HIT:          0  MISS:          0  iACCESS:          0  iHIT:          0  iMISS:          0  dACCESS:          0  dHIT:          0  dMISS:          0  itACCESS:          0  itHIT:          0  itMISS:          0  dtACCESS:          0  dtHIT:          0  dtMISS:          0
cpu0_DTLB PREFETCH  REQUESTED:          0  ISSUED:          0  CROSSED:          0  USEFUL:          0  USELESS:          0
cpu0_DTLB AVERAGE iMISS LATENCY: 0 cycles
cpu0_DTLB AVERAGE dMISS LATENCY: 18.5535 cycles
cpu0_DTLB AVERAGE itMISS LATENCY: 0 cycles
cpu0_DTLB AVERAGE dtMISS LATENCY: 0 cycles
cpu0_DTLB PAGE CROSSINGS (TLB HIT):         0 
cpu0_DTLB PAGE CROSSINGS (TLB MISS):         0 
cpu0_DTLB AVERAGE MISS LATENCY: 18.5535 cycles
cpu0_STLB TOTAL       ACCESS:    2892901  HIT:    2563670  MISS:     329231  iACCESS:     436215  iHIT:     334331  iMISS:     101884  dACCESS:    2456686  dHIT:    2229339  dMISS:     227347  itACCESS:          0  itHIT:          0  itMISS:          0  dtACCESS:          0  dtHIT:          0  dtMISS:          0
cpu0_STLB LOAD         ACCESS:    2892901  HIT:    2563670  MISS:     329231  iACCESS:     436215  iHIT:     334331  iMISS:     101884  dACCESS:    2456686  dHIT:    2229339  dMISS:     227347  itACCESS:          0  itHIT:          0  itMISS:          0  dtACCESS:          0  dtHIT:          0  dtMISS:          0
cpu0_STLB RFO          ACCESS:          0  HIT:          0  MISS:          0  iACCESS:          0  iHIT:          0  iMISS:          0  dACCESS:          0  dHIT:          0  dMISS:          0  itACCESS:          0  itHIT:          0  itMISS:          0  dtACCESS:          0  dtHIT:          0  dtMISS:          0
cpu0_STLB PREFETCH     ACCESS:          0  HIT:          0  MISS:          0  iACCESS:          0  iHIT:          0  iMISS:          0  dACCESS:          0  dHIT:          0  dMISS:          0  itACCESS:          0  itHIT:          0  itMISS:          0  dtACCESS:          0  dtHIT:          0  dtMISS:          0
cpu0_STLB WRITE        ACCESS:          0  HIT:          0  MISS:          0  iACCESS:          0  iHIT:          0  iMISS:          0  dACCESS:          0  dHIT:          0  dMISS:          0  itACCESS:          0  itHIT:          0  itMISS:          0  dtACCESS:          0  dtHIT:          0  dtMISS:          0
cpu0_STLB TRANSLATION  ACCESS:          0  HIT:          0  MISS:          0  iACCESS:          0  iHIT:          0  iMISS:          0  dACCESS:          0  dHIT:          0  dMISS:          0  itACCESS:          0  itHIT:          0  itMISS:          0  dtACCESS:          0  dtHIT:          0  dtMISS:          0
cpu0_STLB PREFETCH  REQUESTED:          0  ISSUED:          0  CROSSED:          0  USEFUL:          0  USELESS:          0
cpu0_STLB AVERAGE iMISS LATENCY: 49.9276 cycles
cpu0_STLB AVERAGE dMISS LATENCY: 196.254 cycles
cpu0_STLB AVERAGE itMISS LATENCY: 0 cycles
cpu0_STLB AVERAGE dtMISS LATENCY: 0 cycles
cpu0_STLB PAGE CROSSINGS (TLB HIT):         0 
cpu0_STLB PAGE CROSSINGS (TLB MISS):         0 
cpu0_STLB AVERAGE MISS LATENCY: 246.181 cycles
cpu0_L1D TOTAL       ACCESS:   45804231  HIT:   39452421  MISS:    6351810  iACCESS:          0  iHIT:          0  iMISS:          0  dACCESS:   45320067  dHIT:   39422580  dMISS:    5897487  itACCESS:     113407  itHIT:      13622  itMISS:      99785  dtACCESS:     370757  dtHIT:      16219  dtMISS:     354538
cpu0_L1D LOAD         ACCESS:   21159418  HIT:   18141096  MISS:    3018322  iACCESS:          0  iHIT:          0  iMISS:          0  dACCESS:   21159418  dHIT:   18141096  dMISS:    3018322  itACCESS:          0  itHIT:          0  itMISS:          0  dtACCESS:          0  dtHIT:          0  dtMISS:          0
cpu0_L1D RFO          ACCESS:          0  HIT:          0  MISS:          0  iACCESS:          0  iHIT:          0  iMISS:          0  dACCESS:          0  dHIT:          0  dMISS:          0  itACCESS:          0  itHIT:          0  itMISS:          0  dtACCESS:          0  dtHIT:          0  dtMISS:          0
cpu0_L1D PREFETCH     ACCESS:   14110729  HIT:   11762003  MISS:    2348726  iACCESS:          0  iHIT:          0  iMISS:          0  dACCESS:   14110729  dHIT:   11762003  dMISS:    2348726  itACCESS:          0  itHIT:          0  itMISS:          0  dtACCESS:          0  dtHIT:          0  dtMISS:          0
cpu0_L1D WRITE        ACCESS:   10049920  HIT:    9519481  MISS:     530439  iACCESS:          0  iHIT:          0  iMISS:          0  dACCESS:   10049920  dHIT:    9519481  dMISS:     530439  itACCESS:          0  itHIT:          0  itMISS:          0  dtACCESS:          0  dtHIT:          0  dtMISS:          0
cpu0_L1D TRANSLATION  ACCESS:     484164  HIT:      29841  MISS:     454323  iACCESS:          0  iHIT:          0  iMISS:          0  dACCESS:          0  dHIT:          0  dMISS:          0  itACCESS:     113407  itHIT:      13622  itMISS:      99785  dtACCESS:     370757  dtHIT:      16219  dtMISS:     354538
cpu0_L1D PREFETCH  REQUESTED:   21159418  ISSUED:   18559427  CROSSED:          0  USEFUL:     351848  USELESS:     994409
cpu0_L1D AVERAGE iMISS LATENCY: 0 cycles
cpu0_L1D AVERAGE dMISS LATENCY: 41.1026 cycles
cpu0_L1D AVERAGE itMISS LATENCY: 2.43434 cycles
cpu0_L1D AVERAGE dtMISS LATENCY: 9.38658 cycles
cpu0_L1D PAGE CROSSINGS (TLB HIT):         0 
cpu0_L1D PAGE CROSSINGS (TLB MISS):         0 
cpu0_L1D AVERAGE MISS LATENCY: 52.9235 cycles
cpu0_L2C TOTAL       ACCESS:    8975357  HIT:    4982301  MISS:    3993056  iACCESS:    3538500  iHIT:    2212776  iMISS:    1325724  dACCESS:    5008296  dHIT:    2715611  dMISS:    2292685  itACCESS:      99514  itHIT:      18931  itMISS:      80583  dtACCESS:     329047  dtHIT:      34983  dtMISS:     294064
cpu0_L2C LOAD         ACCESS:    2690326  HIT:    1745179  MISS:     945147  iACCESS:     792206  iHIT:     516709  iMISS:     275497  dACCESS:    1898120  dHIT:    1228470  dMISS:     669650  itACCESS:          0  itHIT:          0  itMISS:          0  dtACCESS:          0  dtHIT:          0  dtMISS:          0
cpu0_L2C RFO          ACCESS:     213616  HIT:      93613  MISS:     120003  iACCESS:          0  iHIT:          0  iMISS:          0  dACCESS:     213616  dHIT:      93613  dMISS:     120003  itACCESS:          0  itHIT:          0  itMISS:          0  dtACCESS:          0  dtHIT:          0  dtMISS:          0
cpu0_L2C PREFETCH     ACCESS:    5307627  HIT:    2758153  MISS:    2549474  iACCESS:    2746294  iHIT:    1696067  iMISS:    1050227  dACCESS:    2561333  dHIT:    1062086  dMISS:    1499247  itACCESS:          0  itHIT:          0  itMISS:          0  dtACCESS:          0  dtHIT:          0  dtMISS:          0
cpu0_L2C WRITE        ACCESS:     335227  HIT:     331442  MISS:       3785  iACCESS:          0  iHIT:          0  iMISS:          0  dACCESS:     335227  dHIT:     331442  dMISS:       3785  itACCESS:          0  itHIT:          0  itMISS:          0  dtACCESS:          0  dtHIT:          0  dtMISS:          0
cpu0_L2C TRANSLATION  ACCESS:     428561  HIT:      53914  MISS:     374647  iACCESS:          0  iHIT:          0  iMISS:          0  dACCESS:          0  dHIT:          0  dMISS:          0  itACCESS:      99514  itHIT:      18931  itMISS:      80583  dtACCESS:     329047  dtHIT:      34983  dtMISS:     294064
cpu0_L2C PREFETCH  REQUESTED:    1438612  ISSUED:    1438575  CROSSED:          0  USEFUL:     336206  USELESS:     293894
cpu0_L2C AVERAGE iMISS LATENCY: 39.2877 cycles
cpu0_L2C AVERAGE dMISS LATENCY: 77.7369 cycles
cpu0_L2C AVERAGE itMISS LATENCY: 3.62717 cycles
cpu0_L2C AVERAGE dtMISS LATENCY: 14.1113 cycles
cpu0_L2C PAGE CROSSINGS (TLB HIT):         0 
cpu0_L2C PAGE CROSSINGS (TLB MISS):         0 
cpu0_L2C AVERAGE MISS LATENCY: 134.764 cycles
LLC TOTAL       ACCESS:    3987679  HIT:    1248315  MISS:    2739364  iACCESS:    1240249  iHIT:     389297  iMISS:     850952  dACCESS:    2372783  dHIT:     821221  dMISS:    1551562  itACCESS:      80583  itHIT:       7240  itMISS:      73343  dtACCESS:     294064  dtHIT:      30557  dtMISS:     263507
LLC LOAD         ACCESS:     939766  HIT:     311949  MISS:     627817  iACCESS:     274201  iHIT:      92405  iMISS:     181796  dACCESS:     665565  dHIT:     219544  dMISS:     446021  itACCESS:          0  itHIT:          0  itMISS:          0  dtACCESS:          0  dtHIT:          0  dtMISS:          0
LLC RFO          ACCESS:     120000  HIT:      39621  MISS:      80379  iACCESS:          0  iHIT:          0  iMISS:          0  dACCESS:     120000  dHIT:      39621  dMISS:      80379  itACCESS:          0  itHIT:          0  itMISS:          0  dtACCESS:          0  dtHIT:          0  dtMISS:          0
LLC PREFETCH     ACCESS:    2355806  HIT:     671299  MISS:    1684507  iACCESS:     966048  iHIT:     296892  iMISS:     669156  dACCESS:    1389758  dHIT:     374407  dMISS:    1015351  itACCESS:          0  itHIT:          0  itMISS:          0  dtACCESS:          0  dtHIT:          0  dtMISS:          0
LLC WRITE        ACCESS:     197460  HIT:     187649  MISS:       9811  iACCESS:          0  iHIT:          0  iMISS:          0  dACCESS:     197460  dHIT:     187649  dMISS:       9811  itACCESS:          0  itHIT:          0  itMISS:          0  dtACCESS:          0  dtHIT:          0  dtMISS:          0
LLC TRANSLATION  ACCESS:     374647  HIT:      37797  MISS:     336850  iACCESS:          0  iHIT:          0  iMISS:          0  dACCESS:          0  dHIT:          0  dMISS:          0  itACCESS:      80583  itHIT:       7240  itMISS:      73343  dtACCESS:     294064  dtHIT:      30557  dtMISS:     263507
LLC PREFETCH  REQUESTED:          0  ISSUED:          0  CROSSED:          0  USEFUL:          0  USELESS:          0
LLC AVERAGE iMISS LATENCY: 48.3437 cycles
LLC AVERAGE dMISS LATENCY: 98.3587 cycles
LLC AVERAGE itMISS LATENCY: 4.70395 cycles
LLC AVERAGE dtMISS LATENCY: 18.4473 cycles
LLC PAGE CROSSINGS (TLB HIT):         0 
LLC PAGE CROSSINGS (TLB MISS):         0 
LLC AVERAGE MISS LATENCY: 169.854 cycles

PageTableWalker TOTAL       ACCESS:     154596  
PageTableWalker AVERAGE LATENCY: 6.55396 cycles
PageTableWalker TOTAL LATENCY: 1013215 cycles

DRAM Statistics
Channel 0
 RQ ROW_BUFFER_HIT:     611364
  ROW_BUFFER_MISS:    2107491
 AVG DBUS CONGESTED CYCLE:    3.64921
 WQ ROW_BUFFER_HIT:      58938
  ROW_BUFFER_MISS:      49179  FULL:          0

