last_page:0x200000000000000
VMEM_RES_CAP:0x100000
PAGE_SIZE:4096
LOG2_PAGE_SIZE:12
LOG2_PAGE_TABLE_SIZE:9
page_table_levels:5
WARNING: physical memory size is smaller than virtual memory size
FDiP enabled with aggresivity 16

*** ChampSim Multicore Out-of-Order Simulator ***

Warmup Instructions: 50000000
Simulation Instructions: 100000000
Number of CPUs: 1
Small page size: 4096
Large page size: 2097152

CPU 0 Bimodal branch predictor
Basic BTB sets: 1024 ways: 8 indirect buffer size: 4096 RAS size: 64
Instruction page size distrubution: 0
Loading instruction page size distribution from /home/bsc/bsc018186/scratch/itp_asplos25_AE/dump/smt_srv537_ap_srv582_ap_1024i.pdst
Data page size distrubution: 0
Loading data page size distribution from /home/bsc/bsc018186/scratch/itp_asplos25_AE/dump/smt_srv537_ap_srv582_ap_1024i.pdst
cpu0_L2C IP-based stride prefetcher
cpu0_L1D next line prefetcher
cpu0_L1I next line prefetcher
Off-chip DRAM Size: 4 GiB Channels: 1 Width: 64-bit Data Rate: 3200 MT/s
Heartbeat CPU 0 instructions: 10000000 cycles: 2500832 heartbeat IPC: 3.99867 cumulative IPC: 3.99867 (Simulation time: 0 hr 0 min 44 sec) 
Heartbeat CPU 0 instructions: 20000002 cycles: 5001033 heartbeat IPC: 3.99968 cumulative IPC: 3.99918 (Simulation time: 0 hr 1 min 30 sec) 
Heartbeat CPU 0 instructions: 30000001 cycles: 7501327 heartbeat IPC: 3.99953 cumulative IPC: 3.9993 (Simulation time: 0 hr 2 min 15 sec) 
Heartbeat CPU 0 instructions: 40000002 cycles: 10001490 heartbeat IPC: 3.99974 cumulative IPC: 3.99941 (Simulation time: 0 hr 2 min 58 sec) 
Heartbeat CPU 0 instructions: 50000002 cycles: 12501767 heartbeat IPC: 3.99956 cumulative IPC: 3.99944 (Simulation time: 0 hr 3 min 44 sec) 
Warmup finished CPU 0 instructions: 50000002 cycles: 12501768 cumulative IPC: 3.99944 (Simulation time: 0 hr 3 min 44 sec) 

Warmup complete CPU 0 instructions: 50000002 cycles: 12501768 (Simulation time: 0 hr 3 min 44 sec) 

Heartbeat CPU 0 instructions: 60000000 cycles: 42539634 heartbeat IPC: 0.332914 cumulative IPC: 0.332914 (Simulation time: 0 hr 5 min 21 sec) 
Heartbeat CPU 0 instructions: 70000000 cycles: 73375238 heartbeat IPC: 0.324301 cumulative IPC: 0.328551 (Simulation time: 0 hr 6 min 56 sec) 
Heartbeat CPU 0 instructions: 80000002 cycles: 102721570 heartbeat IPC: 0.340759 cumulative IPC: 0.332522 (Simulation time: 0 hr 8 min 31 sec) 
Heartbeat CPU 0 instructions: 90000000 cycles: 132530073 heartbeat IPC: 0.335475 cumulative IPC: 0.333255 (Simulation time: 0 hr 10 min 8 sec) 
Heartbeat CPU 0 instructions: 100000003 cycles: 163093051 heartbeat IPC: 0.327194 cumulative IPC: 0.332025 (Simulation time: 0 hr 11 min 42 sec) 
Heartbeat CPU 0 instructions: 110000000 cycles: 194048786 heartbeat IPC: 0.323042 cumulative IPC: 0.330493 (Simulation time: 0 hr 13 min 21 sec) 
Heartbeat CPU 0 instructions: 120000002 cycles: 223669294 heartbeat IPC: 0.337605 cumulative IPC: 0.331491 (Simulation time: 0 hr 14 min 52 sec) 
Heartbeat CPU 0 instructions: 130000003 cycles: 252978086 heartbeat IPC: 0.341195 cumulative IPC: 0.332674 (Simulation time: 0 hr 16 min 18 sec) 
Heartbeat CPU 0 instructions: 140000001 cycles: 282959961 heartbeat IPC: 0.333535 cumulative IPC: 0.332769 (Simulation time: 0 hr 17 min 45 sec) 
Heartbeat CPU 0 instructions: 150000002 cycles: 312231419 heartbeat IPC: 0.34163 cumulative IPC: 0.333634 (Simulation time: 0 hr 19 min 9 sec) 
Simulation finished CPU 0 instructions: 100000000 cycles: 299729652 cumulative IPC: 0.333634 (Simulation time: 0 hr 19 min 9 sec) 

Simulation complete CPU 0 instructions: 100000000 cycles: 299729652 (Simulation time: 0 hr 19 min 9 sec) 


ChampSim completed all CPUs

Saving instructions large page distribution to /home/bsc/bsc018186/scratch/itp_asplos25_AE/dump/smt_srv537_ap_srv582_ap_1024i.pdst...
Saving data large page distribution to /home/bsc/bsc018186/scratch/itp_asplos25_AE/dump/smt_srv537_ap_srv582_ap_1024i.pdst...
=== Simulation ===
CPU 0 runs /gpfs/projects/bsc18/MN4/bsc18/romol/ChampSim/traces/qualcomm_srv/smt_srv537_ap_srv582_ap_1024i.champsimtrace.xz

Region of Interest Statistics

CPU 0 cumulative IPC: 0.333634 instructions: 100000000 cycles: 299729652
CPU 0 Branch Prediction Accuracy: 75.196% MPKI: 44.8116 Average ROB Occupancy at Mispredict: 10.6825
Branch type MPKI
BRANCH_DIRECT_JUMP: 1.38828
BRANCH_INDIRECT: 23.1194
BRANCH_CONDITIONAL: 13.0578
BRANCH_DIRECT_CALL: 2.67902
BRANCH_INDIRECT_CALL: 1.03442
BRANCH_RETURN: 3.53271

Instructions large pages: 0
Instructions small pages: 10288
Large page distribution for instructions: 0%

Data large pages: 0
Data small pages: 8888
Large page distribution for data: 0%

cpu0_L1I TOTAL       ACCESS:   39368411  HIT:   30607180  MISS:    8761231  iACCESS:   39368411  iHIT:   30607180  iMISS:    8761231  dACCESS:          0  dHIT:          0  dMISS:          0  itACCESS:          0  itHIT:          0  itMISS:          0  dtACCESS:          0  dtHIT:          0  dtMISS:          0
cpu0_L1I LOAD         ACCESS:   11790513  HIT:    9404157  MISS:    2386356  iACCESS:   11790513  iHIT:    9404157  iMISS:    2386356  dACCESS:          0  dHIT:          0  dMISS:          0  itACCESS:          0  itHIT:          0  itMISS:          0  dtACCESS:          0  dtHIT:          0  dtMISS:          0
cpu0_L1I RFO          ACCESS:          0  HIT:          0  MISS:          0  iACCESS:          0  iHIT:          0  iMISS:          0  dACCESS:          0  dHIT:          0  dMISS:          0  itACCESS:          0  itHIT:          0  itMISS:          0  dtACCESS:          0  dtHIT:          0  dtMISS:          0
cpu0_L1I PREFETCH     ACCESS:   27577898  HIT:   21203023  MISS:    6374875  iACCESS:   27577898  iHIT:   21203023  iMISS:    6374875  dACCESS:          0  dHIT:          0  dMISS:          0  itACCESS:          0  itHIT:          0  itMISS:          0  dtACCESS:          0  dtHIT:          0  dtMISS:          0
cpu0_L1I WRITE        ACCESS:          0  HIT:          0  MISS:          0  iACCESS:          0  iHIT:          0  iMISS:          0  dACCESS:          0  dHIT:          0  dMISS:          0  itACCESS:          0  itHIT:          0  itMISS:          0  dtACCESS:          0  dtHIT:          0  dtMISS:          0
cpu0_L1I TRANSLATION  ACCESS:          0  HIT:          0  MISS:          0  iACCESS:          0  iHIT:          0  iMISS:          0  dACCESS:          0  dHIT:          0  dMISS:          0  itACCESS:          0  itHIT:          0  itMISS:          0  dtACCESS:          0  dtHIT:          0  dtMISS:          0
cpu0_L1I PREFETCH  REQUESTED:   30417953  ISSUED:   30417644  CROSSED:          0  USEFUL:    2223646  USELESS:     774633
cpu0_L1I AVERAGE iMISS LATENCY: 24.3758 cycles
cpu0_L1I AVERAGE dMISS LATENCY: 0 cycles
cpu0_L1I AVERAGE itMISS LATENCY: 0 cycles
cpu0_L1I AVERAGE dtMISS LATENCY: 0 cycles
cpu0_L1I PAGE CROSSINGS (TLB HIT):         0 
cpu0_L1I PAGE CROSSINGS (TLB MISS):         0 
cpu0_L1I AVERAGE MISS LATENCY: 24.3758 cycles
cpu0_ITLB TOTAL       ACCESS:   33329636  HIT:   31069626  MISS:    2260010  iACCESS:   33329636  iHIT:   31069626  iMISS:    2260010  dACCESS:          0  dHIT:          0  dMISS:          0  itACCESS:          0  itHIT:          0  itMISS:          0  dtACCESS:          0  dtHIT:          0  dtMISS:          0
cpu0_ITLB LOAD         ACCESS:   33329636  HIT:   31069626  MISS:    2260010  iACCESS:   33329636  iHIT:   31069626  iMISS:    2260010  dACCESS:          0  dHIT:          0  dMISS:          0  itACCESS:          0  itHIT:          0  itMISS:          0  dtACCESS:          0  dtHIT:          0  dtMISS:          0
cpu0_ITLB RFO          ACCESS:          0  HIT:          0  MISS:          0  iACCESS:          0  iHIT:          0  iMISS:          0  dACCESS:          0  dHIT:          0  dMISS:          0  itACCESS:          0  itHIT:          0  itMISS:          0  dtACCESS:          0  dtHIT:          0  dtMISS:          0
cpu0_ITLB PREFETCH     ACCESS:          0  HIT:          0  MISS:          0  iACCESS:          0  iHIT:          0  iMISS:          0  dACCESS:          0  dHIT:          0  dMISS:          0  itACCESS:          0  itHIT:          0  itMISS:          0  dtACCESS:          0  dtHIT:          0  dtMISS:          0
cpu0_ITLB WRITE        ACCESS:          0  HIT:          0  MISS:          0  iACCESS:          0  iHIT:          0  iMISS:          0  dACCESS:          0  dHIT:          0  dMISS:          0  itACCESS:          0  itHIT:          0  itMISS:          0  dtACCESS:          0  dtHIT:          0  dtMISS:          0
cpu0_ITLB TRANSLATION  ACCESS:          0  HIT:          0  MISS:          0  iACCESS:          0  iHIT:          0  iMISS:          0  dACCESS:          0  dHIT:          0  dMISS:          0  itACCESS:          0  itHIT:          0  itMISS:          0  dtACCESS:          0  dtHIT:          0  dtMISS:          0
cpu0_ITLB PREFETCH  REQUESTED:          0  ISSUED:          0  CROSSED:          0  USEFUL:     393647  USELESS:      80483
cpu0_ITLB AVERAGE iMISS LATENCY: 10.1249 cycles
cpu0_ITLB AVERAGE dMISS LATENCY: 0 cycles
cpu0_ITLB AVERAGE itMISS LATENCY: 0 cycles
cpu0_ITLB AVERAGE dtMISS LATENCY: 0 cycles
cpu0_ITLB PAGE CROSSINGS (TLB HIT):         0 
cpu0_ITLB PAGE CROSSINGS (TLB MISS):         0 
cpu0_ITLB AVERAGE MISS LATENCY: 10.1249 cycles
cpu0_DTLB TOTAL       ACCESS:   28846503  HIT:   25465751  MISS:    3380752  iACCESS:          0  iHIT:          0  iMISS:          0  dACCESS:   28846503  dHIT:   25465751  dMISS:    3380752  itACCESS:          0  itHIT:          0  itMISS:          0  dtACCESS:          0  dtHIT:          0  dtMISS:          0
cpu0_DTLB LOAD         ACCESS:   28846503  HIT:   25465751  MISS:    3380752  iACCESS:          0  iHIT:          0  iMISS:          0  dACCESS:   28846503  dHIT:   25465751  dMISS:    3380752  itACCESS:          0  itHIT:          0  itMISS:          0  dtACCESS:          0  dtHIT:          0  dtMISS:          0
cpu0_DTLB RFO          ACCESS:          0  HIT:          0  MISS:          0  iACCESS:          0  iHIT:          0  iMISS:          0  dACCESS:          0  dHIT:          0  dMISS:          0  itACCESS:          0  itHIT:          0  itMISS:          0  dtACCESS:          0  dtHIT:          0  dtMISS:          0
cpu0_DTLB PREFETCH     ACCESS:          0  HIT:          0  MISS:          0  iACCESS:          0  iHIT:          0  iMISS:          0  dACCESS:          0  dHIT:          0  dMISS:          0  itACCESS:          0  itHIT:          0  itMISS:          0  dtACCESS:          0  dtHIT:          0  dtMISS:          0
cpu0_DTLB WRITE        ACCESS:          0  HIT:          0  MISS:          0  iACCESS:          0  iHIT:          0  iMISS:          0  dACCESS:          0  dHIT:          0  dMISS:          0  itACCESS:          0  itHIT:          0  itMISS:          0  dtACCESS:          0  dtHIT:          0  dtMISS:          0
cpu0_DTLB TRANSLATION  ACCESS:          0  HIT:          0  MISS:          0  iACCESS:          0  iHIT:          0  iMISS:          0  dACCESS:          0  dHIT:          0  dMISS:          0  itACCESS:          0  itHIT:          0  itMISS:          0  dtACCESS:          0  dtHIT:          0  dtMISS:          0
cpu0_DTLB PREFETCH  REQUESTED:          0  ISSUED:          0  CROSSED:          0  USEFUL:          0  USELESS:          0
cpu0_DTLB AVERAGE iMISS LATENCY: 0 cycles
cpu0_DTLB AVERAGE dMISS LATENCY: 25.7431 cycles
cpu0_DTLB AVERAGE itMISS LATENCY: 0 cycles
cpu0_DTLB AVERAGE dtMISS LATENCY: 0 cycles
cpu0_DTLB PAGE CROSSINGS (TLB HIT):         0 
cpu0_DTLB PAGE CROSSINGS (TLB MISS):         0 
cpu0_DTLB AVERAGE MISS LATENCY: 25.7431 cycles
cpu0_STLB TOTAL       ACCESS:    2416897  HIT:    2048317  MISS:     368580  iACCESS:     474133  iHIT:     356651  iMISS:     117482  dACCESS:    1942764  dHIT:    1691666  dMISS:     251098  itACCESS:          0  itHIT:          0  itMISS:          0  dtACCESS:          0  dtHIT:          0  dtMISS:          0
cpu0_STLB LOAD         ACCESS:    2416897  HIT:    2048317  MISS:     368580  iACCESS:     474133  iHIT:     356651  iMISS:     117482  dACCESS:    1942764  dHIT:    1691666  dMISS:     251098  itACCESS:          0  itHIT:          0  itMISS:          0  dtACCESS:          0  dtHIT:          0  dtMISS:          0
cpu0_STLB RFO          ACCESS:          0  HIT:          0  MISS:          0  iACCESS:          0  iHIT:          0  iMISS:          0  dACCESS:          0  dHIT:          0  dMISS:          0  itACCESS:          0  itHIT:          0  itMISS:          0  dtACCESS:          0  dtHIT:          0  dtMISS:          0
cpu0_STLB PREFETCH     ACCESS:          0  HIT:          0  MISS:          0  iACCESS:          0  iHIT:          0  iMISS:          0  dACCESS:          0  dHIT:          0  dMISS:          0  itACCESS:          0  itHIT:          0  itMISS:          0  dtACCESS:          0  dtHIT:          0  dtMISS:          0
cpu0_STLB WRITE        ACCESS:          0  HIT:          0  MISS:          0  iACCESS:          0  iHIT:          0  iMISS:          0  dACCESS:          0  dHIT:          0  dMISS:          0  itACCESS:          0  itHIT:          0  itMISS:          0  dtACCESS:          0  dtHIT:          0  dtMISS:          0
cpu0_STLB TRANSLATION  ACCESS:          0  HIT:          0  MISS:          0  iACCESS:          0  iHIT:          0  iMISS:          0  dACCESS:          0  dHIT:          0  dMISS:          0  itACCESS:          0  itHIT:          0  itMISS:          0  dtACCESS:          0  dtHIT:          0  dtMISS:          0
cpu0_STLB PREFETCH  REQUESTED:          0  ISSUED:          0  CROSSED:          0  USEFUL:          0  USELESS:          0
cpu0_STLB AVERAGE iMISS LATENCY: 51.7803 cycles
cpu0_STLB AVERAGE dMISS LATENCY: 193.735 cycles
cpu0_STLB AVERAGE itMISS LATENCY: 0 cycles
cpu0_STLB AVERAGE dtMISS LATENCY: 0 cycles
cpu0_STLB PAGE CROSSINGS (TLB HIT):         0 
cpu0_STLB PAGE CROSSINGS (TLB MISS):         0 
cpu0_STLB AVERAGE MISS LATENCY: 245.515 cycles
cpu0_L1D TOTAL       ACCESS:   44859170  HIT:   39246172  MISS:    5612998  iACCESS:          0  iHIT:          0  iMISS:          0  dACCESS:   44321680  dHIT:   39213532  dMISS:    5108148  itACCESS:     130110  itHIT:      15801  itMISS:     114309  dtACCESS:     407380  dtHIT:      16839  dtMISS:     390541
cpu0_L1D LOAD         ACCESS:   20211391  HIT:   17914774  MISS:    2296617  iACCESS:          0  iHIT:          0  iMISS:          0  dACCESS:   20211391  dHIT:   17914774  dMISS:    2296617  itACCESS:          0  itHIT:          0  itMISS:          0  dtACCESS:          0  dtHIT:          0  dtMISS:          0
cpu0_L1D RFO          ACCESS:          0  HIT:          0  MISS:          0  iACCESS:          0  iHIT:          0  iMISS:          0  dACCESS:          0  dHIT:          0  dMISS:          0  itACCESS:          0  itHIT:          0  itMISS:          0  dtACCESS:          0  dtHIT:          0  dtMISS:          0
cpu0_L1D PREFETCH     ACCESS:   13928027  HIT:   11678879  MISS:    2249148  iACCESS:          0  iHIT:          0  iMISS:          0  dACCESS:   13928027  dHIT:   11678879  dMISS:    2249148  itACCESS:          0  itHIT:          0  itMISS:          0  dtACCESS:          0  dtHIT:          0  dtMISS:          0
cpu0_L1D WRITE        ACCESS:   10182262  HIT:    9619879  MISS:     562383  iACCESS:          0  iHIT:          0  iMISS:          0  dACCESS:   10182262  dHIT:    9619879  dMISS:     562383  itACCESS:          0  itHIT:          0  itMISS:          0  dtACCESS:          0  dtHIT:          0  dtMISS:          0
cpu0_L1D TRANSLATION  ACCESS:     537490  HIT:      32640  MISS:     504850  iACCESS:          0  iHIT:          0  iMISS:          0  dACCESS:          0  dHIT:          0  dMISS:          0  itACCESS:     130110  itHIT:      15801  itMISS:     114309  dtACCESS:     407380  dtHIT:      16839  dtMISS:     390541
cpu0_L1D PREFETCH  REQUESTED:   20211391  ISSUED:   18389693  CROSSED:          0  USEFUL:     371534  USELESS:     911558
cpu0_L1D AVERAGE iMISS LATENCY: 0 cycles
cpu0_L1D AVERAGE dMISS LATENCY: 50.2398 cycles
cpu0_L1D AVERAGE itMISS LATENCY: 3.20287 cycles
cpu0_L1D AVERAGE dtMISS LATENCY: 11.9054 cycles
cpu0_L1D PAGE CROSSINGS (TLB HIT):         0 
cpu0_L1D PAGE CROSSINGS (TLB MISS):         0 
cpu0_L1D AVERAGE MISS LATENCY: 65.348 cycles
cpu0_L2C TOTAL       ACCESS:    8636172  HIT:    4184409  MISS:    4451763  iACCESS:    3816246  iHIT:    2315731  iMISS:    1500515  dACCESS:    4347037  dHIT:    1810963  dMISS:    2536074  itACCESS:     114133  itHIT:      21527  itMISS:      92606  dtACCESS:     358756  dtHIT:      36188  dtMISS:     322568
cpu0_L2C LOAD         ACCESS:    2060511  HIT:    1007838  MISS:    1052673  iACCESS:     856165  iHIT:     544066  iMISS:     312099  dACCESS:    1204346  dHIT:     463772  dMISS:     740574  itACCESS:          0  itHIT:          0  itMISS:          0  dtACCESS:          0  dtHIT:          0  dtMISS:          0
cpu0_L2C RFO          ACCESS:     214186  HIT:      78609  MISS:     135577  iACCESS:          0  iHIT:          0  iMISS:          0  dACCESS:     214186  dHIT:      78609  dMISS:     135577  itACCESS:          0  itHIT:          0  itMISS:          0  dtACCESS:          0  dtHIT:          0  dtMISS:          0
cpu0_L2C PREFETCH     ACCESS:    5543779  HIT:    2699667  MISS:    2844112  iACCESS:    2960081  iHIT:    1771665  iMISS:    1188416  dACCESS:    2583698  dHIT:     928002  dMISS:    1655696  itACCESS:          0  itHIT:          0  itMISS:          0  dtACCESS:          0  dtHIT:          0  dtMISS:          0
cpu0_L2C WRITE        ACCESS:     344807  HIT:     340580  MISS:       4227  iACCESS:          0  iHIT:          0  iMISS:          0  dACCESS:     344807  dHIT:     340580  dMISS:       4227  itACCESS:          0  itHIT:          0  itMISS:          0  dtACCESS:          0  dtHIT:          0  dtMISS:          0
cpu0_L2C TRANSLATION  ACCESS:     472889  HIT:      57715  MISS:     415174  iACCESS:          0  iHIT:          0  iMISS:          0  dACCESS:          0  dHIT:          0  dMISS:          0  itACCESS:     114133  itHIT:      21527  itMISS:      92606  dtACCESS:     358756  dtHIT:      36188  dtMISS:     322568
cpu0_L2C PREFETCH  REQUESTED:    1544640  ISSUED:    1544638  CROSSED:          0  USEFUL:     361494  USELESS:     329717
cpu0_L2C AVERAGE iMISS LATENCY: 40.788 cycles
cpu0_L2C AVERAGE dMISS LATENCY: 79.1773 cycles
cpu0_L2C AVERAGE itMISS LATENCY: 3.78603 cycles
cpu0_L2C AVERAGE dtMISS LATENCY: 14.2087 cycles
cpu0_L2C PAGE CROSSINGS (TLB HIT):         0 
cpu0_L2C PAGE CROSSINGS (TLB MISS):         0 
cpu0_L2C AVERAGE MISS LATENCY: 137.96 cycles
LLC TOTAL       ACCESS:    4437072  HIT:    1319865  MISS:    3117207  iACCESS:    1408034  iHIT:     428441  iMISS:     979593  dACCESS:    2613864  dHIT:     853507  dMISS:    1760357  itACCESS:      92606  itHIT:       8456  itMISS:      84150  dtACCESS:     322568  dtHIT:      29461  dtMISS:     293107
LLC LOAD         ACCESS:    1045284  HIT:     327334  MISS:     717950  iACCESS:     310885  iHIT:     100347  iMISS:     210538  dACCESS:     734399  dHIT:     226987  dMISS:     507412  itACCESS:          0  itHIT:          0  itMISS:          0  dtACCESS:          0  dtHIT:          0  dtMISS:          0
LLC RFO          ACCESS:     135573  HIT:      41250  MISS:      94323  iACCESS:          0  iHIT:          0  iMISS:          0  dACCESS:     135573  dHIT:      41250  dMISS:      94323  itACCESS:          0  itHIT:          0  itMISS:          0  dtACCESS:          0  dtHIT:          0  dtMISS:          0
LLC PREFETCH     ACCESS:    2625393  HIT:     708800  MISS:    1916593  iACCESS:    1097149  iHIT:     328094  iMISS:     769055  dACCESS:    1528244  dHIT:     380706  dMISS:    1147538  itACCESS:          0  itHIT:          0  itMISS:          0  dtACCESS:          0  dtHIT:          0  dtMISS:          0
LLC WRITE        ACCESS:     215648  HIT:     204564  MISS:      11084  iACCESS:          0  iHIT:          0  iMISS:          0  dACCESS:     215648  dHIT:     204564  dMISS:      11084  itACCESS:          0  itHIT:          0  itMISS:          0  dtACCESS:          0  dtHIT:          0  dtMISS:          0
LLC TRANSLATION  ACCESS:     415174  HIT:      37917  MISS:     377257  iACCESS:          0  iHIT:          0  iMISS:          0  dACCESS:          0  dHIT:          0  dMISS:          0  itACCESS:      92606  itHIT:       8456  itMISS:      84150  dtACCESS:     322568  dtHIT:      29461  dtMISS:     293107
LLC PREFETCH  REQUESTED:          0  ISSUED:          0  CROSSED:          0  USEFUL:          0  USELESS:          0
LLC AVERAGE iMISS LATENCY: 49.3485 cycles
LLC AVERAGE dMISS LATENCY: 98.7166 cycles
LLC AVERAGE itMISS LATENCY: 4.81817 cycles
LLC AVERAGE dtMISS LATENCY: 18.245 cycles
LLC PAGE CROSSINGS (TLB HIT):         0 
LLC PAGE CROSSINGS (TLB MISS):         0 
LLC AVERAGE MISS LATENCY: 171.129 cycles

PageTableWalker TOTAL       ACCESS:     186644  
PageTableWalker AVERAGE LATENCY: 6.50022 cycles
PageTableWalker TOTAL LATENCY: 1213227 cycles

DRAM Statistics
Channel 0
 RQ ROW_BUFFER_HIT:     675046
  ROW_BUFFER_MISS:    2412887
 AVG DBUS CONGESTED CYCLE:    3.65027
 WQ ROW_BUFFER_HIT:      67326
  ROW_BUFFER_MISS:      57183  FULL:          0

