last_page:0x200000000000000
VMEM_RES_CAP:0x100000
PAGE_SIZE:4096
LOG2_PAGE_SIZE:12
LOG2_PAGE_TABLE_SIZE:9
page_table_levels:5
WARNING: physical memory size is smaller than virtual memory size
FDiP enabled with aggresivity 16

*** ChampSim Multicore Out-of-Order Simulator ***

Warmup Instructions: 50000000
Simulation Instructions: 100000000
Number of CPUs: 1
Small page size: 4096
Large page size: 2097152

CPU 0 Bimodal branch predictor
Basic BTB sets: 1024 ways: 8 indirect buffer size: 4096 RAS size: 64
Instruction page size distrubution: 0
Loading instruction page size distribution from /home/bsc/bsc018186/scratch/itp_asplos25_AE/dump/smt_srv540_ap_srv582_ap_1024i.pdst
Data page size distrubution: 0
Loading data page size distribution from /home/bsc/bsc018186/scratch/itp_asplos25_AE/dump/smt_srv540_ap_srv582_ap_1024i.pdst
cpu0_L2C IP-based stride prefetcher
cpu0_L1D next line prefetcher
cpu0_L1I next line prefetcher
Off-chip DRAM Size: 4 GiB Channels: 1 Width: 64-bit Data Rate: 3200 MT/s
Heartbeat CPU 0 instructions: 10000002 cycles: 2500375 heartbeat IPC: 3.99941 cumulative IPC: 3.99941 (Simulation time: 0 hr 0 min 40 sec) 
Heartbeat CPU 0 instructions: 20000001 cycles: 5000612 heartbeat IPC: 3.99963 cumulative IPC: 3.99952 (Simulation time: 0 hr 1 min 22 sec) 
Heartbeat CPU 0 instructions: 30000000 cycles: 7500746 heartbeat IPC: 3.99979 cumulative IPC: 3.99961 (Simulation time: 0 hr 2 min 5 sec) 
Heartbeat CPU 0 instructions: 40000003 cycles: 10000900 heartbeat IPC: 3.99976 cumulative IPC: 3.99965 (Simulation time: 0 hr 2 min 48 sec) 
Heartbeat CPU 0 instructions: 50000001 cycles: 12501290 heartbeat IPC: 3.99938 cumulative IPC: 3.99959 (Simulation time: 0 hr 3 min 32 sec) 
Warmup finished CPU 0 instructions: 50000001 cycles: 12501291 cumulative IPC: 3.99959 (Simulation time: 0 hr 3 min 32 sec) 

Warmup complete CPU 0 instructions: 50000001 cycles: 12501291 (Simulation time: 0 hr 3 min 32 sec) 

Heartbeat CPU 0 instructions: 60000002 cycles: 40307906 heartbeat IPC: 0.359627 cumulative IPC: 0.359627 (Simulation time: 0 hr 4 min 59 sec) 
Heartbeat CPU 0 instructions: 70000000 cycles: 68542277 heartbeat IPC: 0.354179 cumulative IPC: 0.356882 (Simulation time: 0 hr 6 min 28 sec) 
Heartbeat CPU 0 instructions: 80000000 cycles: 95921481 heartbeat IPC: 0.365241 cumulative IPC: 0.359626 (Simulation time: 0 hr 7 min 54 sec) 
Heartbeat CPU 0 instructions: 90000000 cycles: 123852616 heartbeat IPC: 0.358024 cumulative IPC: 0.359224 (Simulation time: 0 hr 9 min 23 sec) 
Heartbeat CPU 0 instructions: 100000001 cycles: 152851113 heartbeat IPC: 0.344846 cumulative IPC: 0.356253 (Simulation time: 0 hr 10 min 52 sec) 
Heartbeat CPU 0 instructions: 110000000 cycles: 180881017 heartbeat IPC: 0.356762 cumulative IPC: 0.356338 (Simulation time: 0 hr 12 min 21 sec) 
Heartbeat CPU 0 instructions: 120000004 cycles: 209149590 heartbeat IPC: 0.35375 cumulative IPC: 0.355966 (Simulation time: 0 hr 13 min 50 sec) 
Heartbeat CPU 0 instructions: 130000000 cycles: 236759218 heartbeat IPC: 0.362193 cumulative IPC: 0.356733 (Simulation time: 0 hr 15 min 18 sec) 
Heartbeat CPU 0 instructions: 140000002 cycles: 264534413 heartbeat IPC: 0.360034 cumulative IPC: 0.357096 (Simulation time: 0 hr 16 min 47 sec) 
Heartbeat CPU 0 instructions: 150000001 cycles: 290932060 heartbeat IPC: 0.378822 cumulative IPC: 0.359156 (Simulation time: 0 hr 18 min 17 sec) 
Simulation finished CPU 0 instructions: 100000000 cycles: 278430770 cumulative IPC: 0.359156 (Simulation time: 0 hr 18 min 17 sec) 

Simulation complete CPU 0 instructions: 100000000 cycles: 278430770 (Simulation time: 0 hr 18 min 17 sec) 


ChampSim completed all CPUs

Saving instructions large page distribution to /home/bsc/bsc018186/scratch/itp_asplos25_AE/dump/smt_srv540_ap_srv582_ap_1024i.pdst...
Saving data large page distribution to /home/bsc/bsc018186/scratch/itp_asplos25_AE/dump/smt_srv540_ap_srv582_ap_1024i.pdst...
=== Simulation ===
CPU 0 runs /gpfs/projects/bsc18/MN4/bsc18/romol/ChampSim/traces/qualcomm_srv/smt_srv540_ap_srv582_ap_1024i.champsimtrace.xz

Region of Interest Statistics

CPU 0 cumulative IPC: 0.359156 instructions: 100000000 cycles: 278430770
CPU 0 Branch Prediction Accuracy: 75.1418% MPKI: 44.8327 Average ROB Occupancy at Mispredict: 10.4619
Branch type MPKI
BRANCH_DIRECT_JUMP: 1.39704
BRANCH_INDIRECT: 23.1452
BRANCH_CONDITIONAL: 13.0321
BRANCH_DIRECT_CALL: 2.68799
BRANCH_INDIRECT_CALL: 1.02459
BRANCH_RETURN: 3.54575

Instructions large pages: 0
Instructions small pages: 9622
Large page distribution for instructions: 0%

Data large pages: 0
Data small pages: 8277
Large page distribution for data: 0%

cpu0_L1I TOTAL       ACCESS:   39640569  HIT:   30453660  MISS:    9186909  iACCESS:   39640569  iHIT:   30453660  iMISS:    9186909  dACCESS:          0  dHIT:          0  dMISS:          0  itACCESS:          0  itHIT:          0  itMISS:          0  dtACCESS:          0  dtHIT:          0  dtMISS:          0
cpu0_L1I LOAD         ACCESS:   11850724  HIT:    9357329  MISS:    2493395  iACCESS:   11850724  iHIT:    9357329  iMISS:    2493395  dACCESS:          0  dHIT:          0  dMISS:          0  itACCESS:          0  itHIT:          0  itMISS:          0  dtACCESS:          0  dtHIT:          0  dtMISS:          0
cpu0_L1I RFO          ACCESS:          0  HIT:          0  MISS:          0  iACCESS:          0  iHIT:          0  iMISS:          0  dACCESS:          0  dHIT:          0  dMISS:          0  itACCESS:          0  itHIT:          0  itMISS:          0  dtACCESS:          0  dtHIT:          0  dtMISS:          0
cpu0_L1I PREFETCH     ACCESS:   27789845  HIT:   21096331  MISS:    6693514  iACCESS:   27789845  iHIT:   21096331  iMISS:    6693514  dACCESS:          0  dHIT:          0  dMISS:          0  itACCESS:          0  itHIT:          0  itMISS:          0  dtACCESS:          0  dtHIT:          0  dtMISS:          0
cpu0_L1I WRITE        ACCESS:          0  HIT:          0  MISS:          0  iACCESS:          0  iHIT:          0  iMISS:          0  dACCESS:          0  dHIT:          0  dMISS:          0  itACCESS:          0  itHIT:          0  itMISS:          0  dtACCESS:          0  dtHIT:          0  dtMISS:          0
cpu0_L1I TRANSLATION  ACCESS:          0  HIT:          0  MISS:          0  iACCESS:          0  iHIT:          0  iMISS:          0  dACCESS:          0  dHIT:          0  dMISS:          0  itACCESS:          0  itHIT:          0  itMISS:          0  dtACCESS:          0  dtHIT:          0  dtMISS:          0
cpu0_L1I PREFETCH  REQUESTED:   30426841  ISSUED:   30425143  CROSSED:          0  USEFUL:    2211577  USELESS:     764703
cpu0_L1I AVERAGE iMISS LATENCY: 24.2227 cycles
cpu0_L1I AVERAGE dMISS LATENCY: 0 cycles
cpu0_L1I AVERAGE itMISS LATENCY: 0 cycles
cpu0_L1I AVERAGE dtMISS LATENCY: 0 cycles
cpu0_L1I PAGE CROSSINGS (TLB HIT):         0 
cpu0_L1I PAGE CROSSINGS (TLB MISS):         0 
cpu0_L1I AVERAGE MISS LATENCY: 24.2227 cycles
cpu0_ITLB TOTAL       ACCESS:   33329194  HIT:   31108777  MISS:    2220417  iACCESS:   33329194  iHIT:   31108777  iMISS:    2220417  dACCESS:          0  dHIT:          0  dMISS:          0  itACCESS:          0  itHIT:          0  itMISS:          0  dtACCESS:          0  dtHIT:          0  dtMISS:          0
cpu0_ITLB LOAD         ACCESS:   33329194  HIT:   31108777  MISS:    2220417  iACCESS:   33329194  iHIT:   31108777  iMISS:    2220417  dACCESS:          0  dHIT:          0  dMISS:          0  itACCESS:          0  itHIT:          0  itMISS:          0  dtACCESS:          0  dtHIT:          0  dtMISS:          0
cpu0_ITLB RFO          ACCESS:          0  HIT:          0  MISS:          0  iACCESS:          0  iHIT:          0  iMISS:          0  dACCESS:          0  dHIT:          0  dMISS:          0  itACCESS:          0  itHIT:          0  itMISS:          0  dtACCESS:          0  dtHIT:          0  dtMISS:          0
cpu0_ITLB PREFETCH     ACCESS:          0  HIT:          0  MISS:          0  iACCESS:          0  iHIT:          0  iMISS:          0  dACCESS:          0  dHIT:          0  dMISS:          0  itACCESS:          0  itHIT:          0  itMISS:          0  dtACCESS:          0  dtHIT:          0  dtMISS:          0
cpu0_ITLB WRITE        ACCESS:          0  HIT:          0  MISS:          0  iACCESS:          0  iHIT:          0  iMISS:          0  dACCESS:          0  dHIT:          0  dMISS:          0  itACCESS:          0  itHIT:          0  itMISS:          0  dtACCESS:          0  dtHIT:          0  dtMISS:          0
cpu0_ITLB TRANSLATION  ACCESS:          0  HIT:          0  MISS:          0  iACCESS:          0  iHIT:          0  iMISS:          0  dACCESS:          0  dHIT:          0  dMISS:          0  itACCESS:          0  itHIT:          0  itMISS:          0  dtACCESS:          0  dtHIT:          0  dtMISS:          0
cpu0_ITLB PREFETCH  REQUESTED:          0  ISSUED:          0  CROSSED:          0  USEFUL:     389363  USELESS:      79089
cpu0_ITLB AVERAGE iMISS LATENCY: 7.93183 cycles
cpu0_ITLB AVERAGE dMISS LATENCY: 0 cycles
cpu0_ITLB AVERAGE itMISS LATENCY: 0 cycles
cpu0_ITLB AVERAGE dtMISS LATENCY: 0 cycles
cpu0_ITLB PAGE CROSSINGS (TLB HIT):         0 
cpu0_ITLB PAGE CROSSINGS (TLB MISS):         0 
cpu0_ITLB AVERAGE MISS LATENCY: 7.93183 cycles
cpu0_DTLB TOTAL       ACCESS:   28875996  HIT:   25277136  MISS:    3598860  iACCESS:          0  iHIT:          0  iMISS:          0  dACCESS:   28875996  dHIT:   25277136  dMISS:    3598860  itACCESS:          0  itHIT:          0  itMISS:          0  dtACCESS:          0  dtHIT:          0  dtMISS:          0
cpu0_DTLB LOAD         ACCESS:   28875996  HIT:   25277136  MISS:    3598860  iACCESS:          0  iHIT:          0  iMISS:          0  dACCESS:   28875996  dHIT:   25277136  dMISS:    3598860  itACCESS:          0  itHIT:          0  itMISS:          0  dtACCESS:          0  dtHIT:          0  dtMISS:          0
cpu0_DTLB RFO          ACCESS:          0  HIT:          0  MISS:          0  iACCESS:          0  iHIT:          0  iMISS:          0  dACCESS:          0  dHIT:          0  dMISS:          0  itACCESS:          0  itHIT:          0  itMISS:          0  dtACCESS:          0  dtHIT:          0  dtMISS:          0
cpu0_DTLB PREFETCH     ACCESS:          0  HIT:          0  MISS:          0  iACCESS:          0  iHIT:          0  iMISS:          0  dACCESS:          0  dHIT:          0  dMISS:          0  itACCESS:          0  itHIT:          0  itMISS:          0  dtACCESS:          0  dtHIT:          0  dtMISS:          0
cpu0_DTLB WRITE        ACCESS:          0  HIT:          0  MISS:          0  iACCESS:          0  iHIT:          0  iMISS:          0  dACCESS:          0  dHIT:          0  dMISS:          0  itACCESS:          0  itHIT:          0  itMISS:          0  dtACCESS:          0  dtHIT:          0  dtMISS:          0
cpu0_DTLB TRANSLATION  ACCESS:          0  HIT:          0  MISS:          0  iACCESS:          0  iHIT:          0  iMISS:          0  dACCESS:          0  dHIT:          0  dMISS:          0  itACCESS:          0  itHIT:          0  itMISS:          0  dtACCESS:          0  dtHIT:          0  dtMISS:          0
cpu0_DTLB PREFETCH  REQUESTED:          0  ISSUED:          0  CROSSED:          0  USEFUL:          0  USELESS:          0
cpu0_DTLB AVERAGE iMISS LATENCY: 0 cycles
cpu0_DTLB AVERAGE dMISS LATENCY: 16.8936 cycles
cpu0_DTLB AVERAGE itMISS LATENCY: 0 cycles
cpu0_DTLB AVERAGE dtMISS LATENCY: 0 cycles
cpu0_DTLB PAGE CROSSINGS (TLB HIT):         0 
cpu0_DTLB PAGE CROSSINGS (TLB MISS):         0 
cpu0_DTLB AVERAGE MISS LATENCY: 16.8936 cycles
cpu0_STLB TOTAL       ACCESS:    2574112  HIT:    2191788  MISS:     382324  iACCESS:     468456  iHIT:     349895  iMISS:     118561  dACCESS:    2105656  dHIT:    1841893  dMISS:     263763  itACCESS:          0  itHIT:          0  itMISS:          0  dtACCESS:          0  dtHIT:          0  dtMISS:          0
cpu0_STLB LOAD         ACCESS:    2574112  HIT:    2191788  MISS:     382324  iACCESS:     468456  iHIT:     349895  iMISS:     118561  dACCESS:    2105656  dHIT:    1841893  dMISS:     263763  itACCESS:          0  itHIT:          0  itMISS:          0  dtACCESS:          0  dtHIT:          0  dtMISS:          0
cpu0_STLB RFO          ACCESS:          0  HIT:          0  MISS:          0  iACCESS:          0  iHIT:          0  iMISS:          0  dACCESS:          0  dHIT:          0  dMISS:          0  itACCESS:          0  itHIT:          0  itMISS:          0  dtACCESS:          0  dtHIT:          0  dtMISS:          0
cpu0_STLB PREFETCH     ACCESS:          0  HIT:          0  MISS:          0  iACCESS:          0  iHIT:          0  iMISS:          0  dACCESS:          0  dHIT:          0  dMISS:          0  itACCESS:          0  itHIT:          0  itMISS:          0  dtACCESS:          0  dtHIT:          0  dtMISS:          0
cpu0_STLB WRITE        ACCESS:          0  HIT:          0  MISS:          0  iACCESS:          0  iHIT:          0  iMISS:          0  dACCESS:          0  dHIT:          0  dMISS:          0  itACCESS:          0  itHIT:          0  itMISS:          0  dtACCESS:          0  dtHIT:          0  dtMISS:          0
cpu0_STLB TRANSLATION  ACCESS:          0  HIT:          0  MISS:          0  iACCESS:          0  iHIT:          0  iMISS:          0  dACCESS:          0  dHIT:          0  dMISS:          0  itACCESS:          0  itHIT:          0  itMISS:          0  dtACCESS:          0  dtHIT:          0  dtMISS:          0
cpu0_STLB PREFETCH  REQUESTED:          0  ISSUED:          0  CROSSED:          0  USEFUL:          0  USELESS:          0
cpu0_STLB AVERAGE iMISS LATENCY: 36.2628 cycles
cpu0_STLB AVERAGE dMISS LATENCY: 114.749 cycles
cpu0_STLB AVERAGE itMISS LATENCY: 0 cycles
cpu0_STLB AVERAGE dtMISS LATENCY: 0 cycles
cpu0_STLB PAGE CROSSINGS (TLB HIT):         0 
cpu0_STLB PAGE CROSSINGS (TLB MISS):         0 
cpu0_STLB AVERAGE MISS LATENCY: 151.011 cycles
cpu0_L1D TOTAL       ACCESS:   45074611  HIT:   39120238  MISS:    5954373  iACCESS:          0  iHIT:          0  iMISS:          0  dACCESS:   44524826  dHIT:   39086160  dMISS:    5438666  itACCESS:     132685  itHIT:      14473  itMISS:     118212  dtACCESS:     417100  dtHIT:      19605  dtMISS:     397495
cpu0_L1D LOAD         ACCESS:   20341085  HIT:   17900919  MISS:    2440166  iACCESS:          0  iHIT:          0  iMISS:          0  dACCESS:   20341085  dHIT:   17900919  dMISS:    2440166  itACCESS:          0  itHIT:          0  itMISS:          0  dtACCESS:          0  dtHIT:          0  dtMISS:          0
cpu0_L1D RFO          ACCESS:          0  HIT:          0  MISS:          0  iACCESS:          0  iHIT:          0  iMISS:          0  dACCESS:          0  dHIT:          0  dMISS:          0  itACCESS:          0  itHIT:          0  itMISS:          0  dtACCESS:          0  dtHIT:          0  dtMISS:          0
cpu0_L1D PREFETCH     ACCESS:   14033034  HIT:   11610658  MISS:    2422376  iACCESS:          0  iHIT:          0  iMISS:          0  dACCESS:   14033034  dHIT:   11610658  dMISS:    2422376  itACCESS:          0  itHIT:          0  itMISS:          0  dtACCESS:          0  dtHIT:          0  dtMISS:          0
cpu0_L1D WRITE        ACCESS:   10150707  HIT:    9574583  MISS:     576124  iACCESS:          0  iHIT:          0  iMISS:          0  dACCESS:   10150707  dHIT:    9574583  dMISS:     576124  itACCESS:          0  itHIT:          0  itMISS:          0  dtACCESS:          0  dtHIT:          0  dtMISS:          0
cpu0_L1D TRANSLATION  ACCESS:     549785  HIT:      34078  MISS:     515707  iACCESS:          0  iHIT:          0  iMISS:          0  dACCESS:          0  dHIT:          0  dMISS:          0  itACCESS:     132685  itHIT:      14473  itMISS:     118212  dtACCESS:     417100  dtHIT:      19605  dtMISS:     397495
cpu0_L1D PREFETCH  REQUESTED:   20341085  ISSUED:   18468122  CROSSED:          0  USEFUL:     361041  USELESS:     926050
cpu0_L1D AVERAGE iMISS LATENCY: 0 cycles
cpu0_L1D AVERAGE dMISS LATENCY: 49.6002 cycles
cpu0_L1D AVERAGE itMISS LATENCY: 2.14576 cycles
cpu0_L1D AVERAGE dtMISS LATENCY: 6.63296 cycles
cpu0_L1D PAGE CROSSINGS (TLB HIT):         0 
cpu0_L1D PAGE CROSSINGS (TLB MISS):         0 
cpu0_L1D AVERAGE MISS LATENCY: 58.3789 cycles
cpu0_L2C TOTAL       ACCESS:    8623416  HIT:    1564814  MISS:    7058602  iACCESS:    3778414  iHIT:     835628  iMISS:    2942786  dACCESS:    4354716  dHIT:     529923  dMISS:    3824793  itACCESS:     117407  itHIT:      41806  itMISS:      75601  dtACCESS:     372879  dtHIT:     157457  dtMISS:     215422
cpu0_L2C LOAD         ACCESS:    2033346  HIT:     207318  MISS:    1826028  iACCESS:     838775  iHIT:     121338  iMISS:     717437  dACCESS:    1194571  dHIT:      85980  dMISS:    1108591  itACCESS:          0  itHIT:          0  itMISS:          0  dtACCESS:          0  dtHIT:          0  dtMISS:          0
cpu0_L2C RFO          ACCESS:     219494  HIT:      29378  MISS:     190116  iACCESS:          0  iHIT:          0  iMISS:          0  dACCESS:     219494  dHIT:      29378  dMISS:     190116  itACCESS:          0  itHIT:          0  itMISS:          0  dtACCESS:          0  dtHIT:          0  dtMISS:          0
cpu0_L2C PREFETCH     ACCESS:    5535523  HIT:    1033333  MISS:    4502190  iACCESS:    2939639  iHIT:     714290  iMISS:    2225349  dACCESS:    2595884  dHIT:     319043  dMISS:    2276841  itACCESS:          0  itHIT:          0  itMISS:          0  dtACCESS:          0  dtHIT:          0  dtMISS:          0
cpu0_L2C WRITE        ACCESS:     344767  HIT:      95522  MISS:     249245  iACCESS:          0  iHIT:          0  iMISS:          0  dACCESS:     344767  dHIT:      95522  dMISS:     249245  itACCESS:          0  itHIT:          0  itMISS:          0  dtACCESS:          0  dtHIT:          0  dtMISS:          0
cpu0_L2C TRANSLATION  ACCESS:     490286  HIT:     199263  MISS:     291023  iACCESS:          0  iHIT:          0  iMISS:          0  dACCESS:          0  dHIT:          0  dMISS:          0  itACCESS:     117407  itHIT:      41806  itMISS:      75601  dtACCESS:     372879  dtHIT:     157457  dtMISS:     215422
cpu0_L2C PREFETCH  REQUESTED:    1551103  ISSUED:    1551101  CROSSED:          0  USEFUL:     416314  USELESS:     493679
cpu0_L2C AVERAGE iMISS LATENCY: 26.9147 cycles
cpu0_L2C AVERAGE dMISS LATENCY: 51.6792 cycles
cpu0_L2C AVERAGE itMISS LATENCY: 1.64924 cycles
cpu0_L2C AVERAGE dtMISS LATENCY: 5.08714 cycles
cpu0_L2C PAGE CROSSINGS (TLB HIT):         0 
cpu0_L2C PAGE CROSSINGS (TLB MISS):         0 
cpu0_L2C AVERAGE MISS LATENCY: 85.3303 cycles
LLC TOTAL       ACCESS:    6857159  HIT:    4102199  MISS:    2754960  iACCESS:    2848209  iHIT:    1991921  iMISS:     856288  dACCESS:    3717927  dHIT:    2041805  dMISS:    1676122  itACCESS:      75601  itHIT:      18434  itMISS:      57167  dtACCESS:     215422  dtHIT:      50039  dtMISS:     165383
LLC LOAD         ACCESS:    1818467  HIT:    1153624  MISS:     664843  iACCESS:     715935  iHIT:     534382  iMISS:     181553  dACCESS:    1102532  dHIT:     619242  dMISS:     483290  itACCESS:          0  itHIT:          0  itMISS:          0  dtACCESS:          0  dtHIT:          0  dtMISS:          0
LLC RFO          ACCESS:     190079  HIT:      93693  MISS:      96386  iACCESS:          0  iHIT:          0  iMISS:          0  dACCESS:     190079  dHIT:      93693  dMISS:      96386  itACCESS:          0  itHIT:          0  itMISS:          0  dtACCESS:          0  dtHIT:          0  dtMISS:          0
LLC PREFETCH     ACCESS:    4280944  HIT:    2515926  MISS:    1765018  iACCESS:    2132274  iHIT:    1457539  iMISS:     674735  dACCESS:    2148670  dHIT:    1058387  dMISS:    1090283  itACCESS:          0  itHIT:          0  itMISS:          0  dtACCESS:          0  dtHIT:          0  dtMISS:          0
LLC WRITE        ACCESS:     276646  HIT:     270483  MISS:       6163  iACCESS:          0  iHIT:          0  iMISS:          0  dACCESS:     276646  dHIT:     270483  dMISS:       6163  itACCESS:          0  itHIT:          0  itMISS:          0  dtACCESS:          0  dtHIT:          0  dtMISS:          0
LLC TRANSLATION  ACCESS:     291023  HIT:      68473  MISS:     222550  iACCESS:          0  iHIT:          0  iMISS:          0  dACCESS:          0  dHIT:          0  dMISS:          0  itACCESS:      75601  itHIT:      18434  itMISS:      57167  dtACCESS:     215422  dtHIT:      50039  dtMISS:     165383
LLC PREFETCH  REQUESTED:          0  ISSUED:          0  CROSSED:          0  USEFUL:          0  USELESS:          0
LLC AVERAGE iMISS LATENCY: 48.8724 cycles
LLC AVERAGE dMISS LATENCY: 109.314 cycles
LLC AVERAGE itMISS LATENCY: 3.68508 cycles
LLC AVERAGE dtMISS LATENCY: 11.494 cycles
LLC PAGE CROSSINGS (TLB HIT):         0 
LLC PAGE CROSSINGS (TLB MISS):         0 
LLC AVERAGE MISS LATENCY: 173.366 cycles

PageTableWalker TOTAL       ACCESS:     195960  
PageTableWalker AVERAGE LATENCY: 5.75484 cycles
PageTableWalker TOTAL LATENCY: 1127717 cycles

DRAM Statistics
Channel 0
 RQ ROW_BUFFER_HIT:     597134
  ROW_BUFFER_MISS:    2129788
 AVG DBUS CONGESTED CYCLE:    3.65488
 WQ ROW_BUFFER_HIT:      68036
  ROW_BUFFER_MISS:      63377  FULL:          0

