last_page:0x200000000000000
VMEM_RES_CAP:0x100000
PAGE_SIZE:4096
LOG2_PAGE_SIZE:12
LOG2_PAGE_TABLE_SIZE:9
page_table_levels:5
WARNING: physical memory size is smaller than virtual memory size
FDiP enabled with aggresivity 16

*** ChampSim Multicore Out-of-Order Simulator ***

Warmup Instructions: 50000000
Simulation Instructions: 100000000
Number of CPUs: 1
Small page size: 4096
Large page size: 2097152

CPU 0 Bimodal branch predictor
Basic BTB sets: 1024 ways: 8 indirect buffer size: 4096 RAS size: 64
Instruction page size distrubution: 0
Loading instruction page size distribution from /home/bsc/bsc018186/scratch/itp_asplos25_AE/dump/smt_srv12_ap_srv495_ap_1024i.pdst
Data page size distrubution: 0
Loading data page size distribution from /home/bsc/bsc018186/scratch/itp_asplos25_AE/dump/smt_srv12_ap_srv495_ap_1024i.pdst
cpu0_L2C IP-based stride prefetcher
cpu0_L1D next line prefetcher
cpu0_STLB using iTP with max lru@8
cpu0_STLB using iTP with instr@0 and data@2
Init sat counter with 3 bits (max:50).
cpu0_L1I next line prefetcher
Off-chip DRAM Size: 4 GiB Channels: 1 Width: 64-bit Data Rate: 3200 MT/s
Heartbeat CPU 0 instructions: 10000002 cycles: 2500337 heartbeat IPC: 3.99947 cumulative IPC: 3.99947 (Simulation time: 0 hr 0 min 35 sec) 
Heartbeat CPU 0 instructions: 20000000 cycles: 5000373 heartbeat IPC: 3.99995 cumulative IPC: 3.99971 (Simulation time: 0 hr 1 min 13 sec) 
Heartbeat CPU 0 instructions: 30000001 cycles: 7501090 heartbeat IPC: 3.99886 cumulative IPC: 3.99942 (Simulation time: 0 hr 1 min 52 sec) 
Heartbeat CPU 0 instructions: 40000000 cycles: 10001136 heartbeat IPC: 3.99993 cumulative IPC: 3.99955 (Simulation time: 0 hr 2 min 30 sec) 
Heartbeat CPU 0 instructions: 50000002 cycles: 12501264 heartbeat IPC: 3.9998 cumulative IPC: 3.9996 (Simulation time: 0 hr 3 min 8 sec) 
Warmup finished CPU 0 instructions: 50000002 cycles: 12501265 cumulative IPC: 3.9996 (Simulation time: 0 hr 3 min 8 sec) 

Warmup complete CPU 0 instructions: 50000002 cycles: 12501265 (Simulation time: 0 hr 3 min 8 sec) 

Heartbeat CPU 0 instructions: 60000001 cycles: 44286224 heartbeat IPC: 0.314615 cumulative IPC: 0.314615 (Simulation time: 0 hr 4 min 31 sec) 
Heartbeat CPU 0 instructions: 70000003 cycles: 75504103 heartbeat IPC: 0.32033 cumulative IPC: 0.317447 (Simulation time: 0 hr 5 min 53 sec) 
Heartbeat CPU 0 instructions: 80000000 cycles: 107609545 heartbeat IPC: 0.311474 cumulative IPC: 0.31543 (Simulation time: 0 hr 7 min 17 sec) 
Heartbeat CPU 0 instructions: 90000000 cycles: 135612527 heartbeat IPC: 0.357105 cumulative IPC: 0.32491 (Simulation time: 0 hr 8 min 35 sec) 
Heartbeat CPU 0 instructions: 100000001 cycles: 166443449 heartbeat IPC: 0.32435 cumulative IPC: 0.324798 (Simulation time: 0 hr 9 min 57 sec) 
Heartbeat CPU 0 instructions: 110000000 cycles: 198097227 heartbeat IPC: 0.315919 cumulative IPC: 0.323283 (Simulation time: 0 hr 11 min 20 sec) 
Heartbeat CPU 0 instructions: 120000000 cycles: 228960029 heartbeat IPC: 0.324015 cumulative IPC: 0.323388 (Simulation time: 0 hr 12 min 42 sec) 
Heartbeat CPU 0 instructions: 130000002 cycles: 259723413 heartbeat IPC: 0.325062 cumulative IPC: 0.323596 (Simulation time: 0 hr 14 min 4 sec) 
Heartbeat CPU 0 instructions: 140000000 cycles: 290695843 heartbeat IPC: 0.322868 cumulative IPC: 0.323515 (Simulation time: 0 hr 15 min 27 sec) 
Heartbeat CPU 0 instructions: 150000002 cycles: 321565514 heartbeat IPC: 0.323943 cumulative IPC: 0.323558 (Simulation time: 0 hr 16 min 49 sec) 
Simulation finished CPU 0 instructions: 100000000 cycles: 309064250 cumulative IPC: 0.323558 (Simulation time: 0 hr 16 min 49 sec) 

Simulation complete CPU 0 instructions: 100000000 cycles: 309064250 (Simulation time: 0 hr 16 min 49 sec) 


ChampSim completed all CPUs

Saving instructions large page distribution to /home/bsc/bsc018186/scratch/itp_asplos25_AE/dump/smt_srv12_ap_srv495_ap_1024i.pdst...
Saving data large page distribution to /home/bsc/bsc018186/scratch/itp_asplos25_AE/dump/smt_srv12_ap_srv495_ap_1024i.pdst...
=== Simulation ===
CPU 0 runs /gpfs/projects/bsc18/MN4/bsc18/romol/ChampSim/traces/qualcomm_srv/smt_srv12_ap_srv495_ap_1024i.champsimtrace.xz

Region of Interest Statistics

CPU 0 cumulative IPC: 0.323558 instructions: 100000000 cycles: 309064250
CPU 0 Branch Prediction Accuracy: 74.6867% MPKI: 45.8673 Average ROB Occupancy at Mispredict: 10.6128
Branch type MPKI
BRANCH_DIRECT_JUMP: 1.43964
BRANCH_INDIRECT: 23.3814
BRANCH_CONDITIONAL: 13.5832
BRANCH_DIRECT_CALL: 2.79001
BRANCH_INDIRECT_CALL: 1.12069
BRANCH_RETURN: 3.55248

Instructions large pages: 0
Instructions small pages: 11363
Large page distribution for instructions: 0%

Data large pages: 0
Data small pages: 9536
Large page distribution for data: 0%

cpu0_L1I TOTAL       ACCESS:   39240241  HIT:   30524789  MISS:    8715452  iACCESS:   39240241  iHIT:   30524789  iMISS:    8715452  dACCESS:          0  dHIT:          0  dMISS:          0  itACCESS:          0  itHIT:          0  itMISS:          0  dtACCESS:          0  dtHIT:          0  dtMISS:          0
cpu0_L1I LOAD         ACCESS:   11666242  HIT:    9300219  MISS:    2366023  iACCESS:   11666242  iHIT:    9300219  iMISS:    2366023  dACCESS:          0  dHIT:          0  dMISS:          0  itACCESS:          0  itHIT:          0  itMISS:          0  dtACCESS:          0  dtHIT:          0  dtMISS:          0
cpu0_L1I RFO          ACCESS:          0  HIT:          0  MISS:          0  iACCESS:          0  iHIT:          0  iMISS:          0  dACCESS:          0  dHIT:          0  dMISS:          0  itACCESS:          0  itHIT:          0  itMISS:          0  dtACCESS:          0  dtHIT:          0  dtMISS:          0
cpu0_L1I PREFETCH     ACCESS:   27573999  HIT:   21224570  MISS:    6349429  iACCESS:   27573999  iHIT:   21224570  iMISS:    6349429  dACCESS:          0  dHIT:          0  dMISS:          0  itACCESS:          0  itHIT:          0  itMISS:          0  dtACCESS:          0  dtHIT:          0  dtMISS:          0
cpu0_L1I WRITE        ACCESS:          0  HIT:          0  MISS:          0  iACCESS:          0  iHIT:          0  iMISS:          0  dACCESS:          0  dHIT:          0  dMISS:          0  itACCESS:          0  itHIT:          0  itMISS:          0  dtACCESS:          0  dtHIT:          0  dtMISS:          0
cpu0_L1I TRANSLATION  ACCESS:          0  HIT:          0  MISS:          0  iACCESS:          0  iHIT:          0  iMISS:          0  dACCESS:          0  dHIT:          0  dMISS:          0  itACCESS:          0  itHIT:          0  itMISS:          0  dtACCESS:          0  dtHIT:          0  dtMISS:          0
cpu0_L1I PREFETCH  REQUESTED:   30317086  ISSUED:   30316761  CROSSED:          0  USEFUL:    2220722  USELESS:     776446
cpu0_L1I AVERAGE iMISS LATENCY: 25.6031 cycles
cpu0_L1I AVERAGE dMISS LATENCY: 0 cycles
cpu0_L1I AVERAGE itMISS LATENCY: 0 cycles
cpu0_L1I AVERAGE dtMISS LATENCY: 0 cycles
cpu0_L1I PAGE CROSSINGS (TLB HIT):         0 
cpu0_L1I PAGE CROSSINGS (TLB MISS):         0 
cpu0_L1I AVERAGE MISS LATENCY: 25.6031 cycles
cpu0_ITLB TOTAL       ACCESS:   33316052  HIT:   31064215  MISS:    2251837  iACCESS:   33316052  iHIT:   31064215  iMISS:    2251837  dACCESS:          0  dHIT:          0  dMISS:          0  itACCESS:          0  itHIT:          0  itMISS:          0  dtACCESS:          0  dtHIT:          0  dtMISS:          0
cpu0_ITLB LOAD         ACCESS:   33316052  HIT:   31064215  MISS:    2251837  iACCESS:   33316052  iHIT:   31064215  iMISS:    2251837  dACCESS:          0  dHIT:          0  dMISS:          0  itACCESS:          0  itHIT:          0  itMISS:          0  dtACCESS:          0  dtHIT:          0  dtMISS:          0
cpu0_ITLB RFO          ACCESS:          0  HIT:          0  MISS:          0  iACCESS:          0  iHIT:          0  iMISS:          0  dACCESS:          0  dHIT:          0  dMISS:          0  itACCESS:          0  itHIT:          0  itMISS:          0  dtACCESS:          0  dtHIT:          0  dtMISS:          0
cpu0_ITLB PREFETCH     ACCESS:          0  HIT:          0  MISS:          0  iACCESS:          0  iHIT:          0  iMISS:          0  dACCESS:          0  dHIT:          0  dMISS:          0  itACCESS:          0  itHIT:          0  itMISS:          0  dtACCESS:          0  dtHIT:          0  dtMISS:          0
cpu0_ITLB WRITE        ACCESS:          0  HIT:          0  MISS:          0  iACCESS:          0  iHIT:          0  iMISS:          0  dACCESS:          0  dHIT:          0  dMISS:          0  itACCESS:          0  itHIT:          0  itMISS:          0  dtACCESS:          0  dtHIT:          0  dtMISS:          0
cpu0_ITLB TRANSLATION  ACCESS:          0  HIT:          0  MISS:          0  iACCESS:          0  iHIT:          0  iMISS:          0  dACCESS:          0  dHIT:          0  dMISS:          0  itACCESS:          0  itHIT:          0  itMISS:          0  dtACCESS:          0  dtHIT:          0  dtMISS:          0
cpu0_ITLB PREFETCH  REQUESTED:          0  ISSUED:          0  CROSSED:          0  USEFUL:     396632  USELESS:      80819
cpu0_ITLB AVERAGE iMISS LATENCY: 7.25302 cycles
cpu0_ITLB AVERAGE dMISS LATENCY: 0 cycles
cpu0_ITLB AVERAGE itMISS LATENCY: 0 cycles
cpu0_ITLB AVERAGE dtMISS LATENCY: 0 cycles
cpu0_ITLB PAGE CROSSINGS (TLB HIT):         0 
cpu0_ITLB PAGE CROSSINGS (TLB MISS):         0 
cpu0_ITLB AVERAGE MISS LATENCY: 7.25302 cycles
cpu0_DTLB TOTAL       ACCESS:   28970244  HIT:   25410079  MISS:    3560165  iACCESS:          0  iHIT:          0  iMISS:          0  dACCESS:   28970244  dHIT:   25410079  dMISS:    3560165  itACCESS:          0  itHIT:          0  itMISS:          0  dtACCESS:          0  dtHIT:          0  dtMISS:          0
cpu0_DTLB LOAD         ACCESS:   28970244  HIT:   25410079  MISS:    3560165  iACCESS:          0  iHIT:          0  iMISS:          0  dACCESS:   28970244  dHIT:   25410079  dMISS:    3560165  itACCESS:          0  itHIT:          0  itMISS:          0  dtACCESS:          0  dtHIT:          0  dtMISS:          0
cpu0_DTLB RFO          ACCESS:          0  HIT:          0  MISS:          0  iACCESS:          0  iHIT:          0  iMISS:          0  dACCESS:          0  dHIT:          0  dMISS:          0  itACCESS:          0  itHIT:          0  itMISS:          0  dtACCESS:          0  dtHIT:          0  dtMISS:          0
cpu0_DTLB PREFETCH     ACCESS:          0  HIT:          0  MISS:          0  iACCESS:          0  iHIT:          0  iMISS:          0  dACCESS:          0  dHIT:          0  dMISS:          0  itACCESS:          0  itHIT:          0  itMISS:          0  dtACCESS:          0  dtHIT:          0  dtMISS:          0
cpu0_DTLB WRITE        ACCESS:          0  HIT:          0  MISS:          0  iACCESS:          0  iHIT:          0  iMISS:          0  dACCESS:          0  dHIT:          0  dMISS:          0  itACCESS:          0  itHIT:          0  itMISS:          0  dtACCESS:          0  dtHIT:          0  dtMISS:          0
cpu0_DTLB TRANSLATION  ACCESS:          0  HIT:          0  MISS:          0  iACCESS:          0  iHIT:          0  iMISS:          0  dACCESS:          0  dHIT:          0  dMISS:          0  itACCESS:          0  itHIT:          0  itMISS:          0  dtACCESS:          0  dtHIT:          0  dtMISS:          0
cpu0_DTLB PREFETCH  REQUESTED:          0  ISSUED:          0  CROSSED:          0  USEFUL:          0  USELESS:          0
cpu0_DTLB AVERAGE iMISS LATENCY: 0 cycles
cpu0_DTLB AVERAGE dMISS LATENCY: 28.7332 cycles
cpu0_DTLB AVERAGE itMISS LATENCY: 0 cycles
cpu0_DTLB AVERAGE dtMISS LATENCY: 0 cycles
cpu0_DTLB PAGE CROSSINGS (TLB HIT):         0 
cpu0_DTLB PAGE CROSSINGS (TLB MISS):         0 
cpu0_DTLB AVERAGE MISS LATENCY: 28.7332 cycles
cpu0_STLB TOTAL       ACCESS:    2560669  HIT:    2180485  MISS:     380184  iACCESS:     477450  iHIT:     413178  iMISS:      64272  dACCESS:    2083219  dHIT:    1767307  dMISS:     315912  itACCESS:          0  itHIT:          0  itMISS:          0  dtACCESS:          0  dtHIT:          0  dtMISS:          0
cpu0_STLB LOAD         ACCESS:    2560669  HIT:    2180485  MISS:     380184  iACCESS:     477450  iHIT:     413178  iMISS:      64272  dACCESS:    2083219  dHIT:    1767307  dMISS:     315912  itACCESS:          0  itHIT:          0  itMISS:          0  dtACCESS:          0  dtHIT:          0  dtMISS:          0
cpu0_STLB RFO          ACCESS:          0  HIT:          0  MISS:          0  iACCESS:          0  iHIT:          0  iMISS:          0  dACCESS:          0  dHIT:          0  dMISS:          0  itACCESS:          0  itHIT:          0  itMISS:          0  dtACCESS:          0  dtHIT:          0  dtMISS:          0
cpu0_STLB PREFETCH     ACCESS:          0  HIT:          0  MISS:          0  iACCESS:          0  iHIT:          0  iMISS:          0  dACCESS:          0  dHIT:          0  dMISS:          0  itACCESS:          0  itHIT:          0  itMISS:          0  dtACCESS:          0  dtHIT:          0  dtMISS:          0
cpu0_STLB WRITE        ACCESS:          0  HIT:          0  MISS:          0  iACCESS:          0  iHIT:          0  iMISS:          0  dACCESS:          0  dHIT:          0  dMISS:          0  itACCESS:          0  itHIT:          0  itMISS:          0  dtACCESS:          0  dtHIT:          0  dtMISS:          0
cpu0_STLB TRANSLATION  ACCESS:          0  HIT:          0  MISS:          0  iACCESS:          0  iHIT:          0  iMISS:          0  dACCESS:          0  dHIT:          0  dMISS:          0  itACCESS:          0  itHIT:          0  itMISS:          0  dtACCESS:          0  dtHIT:          0  dtMISS:          0
cpu0_STLB PREFETCH  REQUESTED:          0  ISSUED:          0  CROSSED:          0  USEFUL:          0  USELESS:          0
cpu0_STLB AVERAGE iMISS LATENCY: 33.0664 cycles
cpu0_STLB AVERAGE dMISS LATENCY: 224.801 cycles
cpu0_STLB AVERAGE itMISS LATENCY: 0 cycles
cpu0_STLB AVERAGE dtMISS LATENCY: 0 cycles
cpu0_STLB PAGE CROSSINGS (TLB HIT):         0 
cpu0_STLB PAGE CROSSINGS (TLB MISS):         0 
cpu0_STLB AVERAGE MISS LATENCY: 257.867 cycles
cpu0_L1D TOTAL       ACCESS:   44996164  HIT:   39309266  MISS:    5686898  iACCESS:          0  iHIT:          0  iMISS:          0  dACCESS:   44414353  dHIT:   39279946  dMISS:    5134407  itACCESS:      75138  itHIT:       6216  itMISS:      68922  dtACCESS:     506673  dtHIT:      23104  dtMISS:     483569
cpu0_L1D LOAD         ACCESS:   20298810  HIT:   17999313  MISS:    2299497  iACCESS:          0  iHIT:          0  iMISS:          0  dACCESS:   20298810  dHIT:   17999313  dMISS:    2299497  itACCESS:          0  itHIT:          0  itMISS:          0  dtACCESS:          0  dtHIT:          0  dtMISS:          0
cpu0_L1D RFO          ACCESS:          0  HIT:          0  MISS:          0  iACCESS:          0  iHIT:          0  iMISS:          0  dACCESS:          0  dHIT:          0  dMISS:          0  itACCESS:          0  itHIT:          0  itMISS:          0  dtACCESS:          0  dtHIT:          0  dtMISS:          0
cpu0_L1D PREFETCH     ACCESS:   13945673  HIT:   11686130  MISS:    2259543  iACCESS:          0  iHIT:          0  iMISS:          0  dACCESS:   13945673  dHIT:   11686130  dMISS:    2259543  itACCESS:          0  itHIT:          0  itMISS:          0  dtACCESS:          0  dtHIT:          0  dtMISS:          0
cpu0_L1D WRITE        ACCESS:   10169870  HIT:    9594503  MISS:     575367  iACCESS:          0  iHIT:          0  iMISS:          0  dACCESS:   10169870  dHIT:    9594503  dMISS:     575367  itACCESS:          0  itHIT:          0  itMISS:          0  dtACCESS:          0  dtHIT:          0  dtMISS:          0
cpu0_L1D TRANSLATION  ACCESS:     581811  HIT:      29320  MISS:     552491  iACCESS:          0  iHIT:          0  iMISS:          0  dACCESS:          0  dHIT:          0  dMISS:          0  itACCESS:      75138  itHIT:       6216  itMISS:      68922  dtACCESS:     506673  dtHIT:      23104  dtMISS:     483569
cpu0_L1D PREFETCH  REQUESTED:   20298810  ISSUED:   18546956  CROSSED:          0  USEFUL:     363633  USELESS:     936931
cpu0_L1D AVERAGE iMISS LATENCY: 0 cycles
cpu0_L1D AVERAGE dMISS LATENCY: 51.1737 cycles
cpu0_L1D AVERAGE itMISS LATENCY: 2.08031 cycles
cpu0_L1D AVERAGE dtMISS LATENCY: 14.08 cycles
cpu0_L1D PAGE CROSSINGS (TLB HIT):         0 
cpu0_L1D PAGE CROSSINGS (TLB MISS):         0 
cpu0_L1D AVERAGE MISS LATENCY: 67.334 cycles
cpu0_L2C TOTAL       ACCESS:    8708626  HIT:    4194135  MISS:    4514491  iACCESS:    3809933  iHIT:    2292699  iMISS:    1517234  dACCESS:    4376813  dHIT:    1834404  dMISS:    2542409  itACCESS:      68750  itHIT:       9941  itMISS:      58809  dtACCESS:     453130  dtHIT:      57091  dtMISS:     396039
cpu0_L2C LOAD         ACCESS:    2061995  HIT:    1010440  MISS:    1051555  iACCESS:     849795  iHIT:     537084  iMISS:     312711  dACCESS:    1212200  dHIT:     473356  dMISS:     738844  itACCESS:          0  itHIT:          0  itMISS:          0  dtACCESS:          0  dtHIT:          0  dtMISS:          0
cpu0_L2C RFO          ACCESS:     215699  HIT:      80418  MISS:     135281  iACCESS:          0  iHIT:          0  iMISS:          0  dACCESS:     215699  dHIT:      80418  dMISS:     135281  itACCESS:          0  itHIT:          0  itMISS:          0  dtACCESS:          0  dtHIT:          0  dtMISS:          0
cpu0_L2C PREFETCH     ACCESS:    5568008  HIT:    2699186  MISS:    2868822  iACCESS:    2960138  iHIT:    1755615  iMISS:    1204523  dACCESS:    2607870  dHIT:     943571  dMISS:    1664299  itACCESS:          0  itHIT:          0  itMISS:          0  dtACCESS:          0  dtHIT:          0  dtMISS:          0
cpu0_L2C WRITE        ACCESS:     341044  HIT:     337059  MISS:       3985  iACCESS:          0  iHIT:          0  iMISS:          0  dACCESS:     341044  dHIT:     337059  dMISS:       3985  itACCESS:          0  itHIT:          0  itMISS:          0  dtACCESS:          0  dtHIT:          0  dtMISS:          0
cpu0_L2C TRANSLATION  ACCESS:     521880  HIT:      67032  MISS:     454848  iACCESS:          0  iHIT:          0  iMISS:          0  dACCESS:          0  dHIT:          0  dMISS:          0  itACCESS:      68750  itHIT:       9941  itMISS:      58809  dtACCESS:     453130  dtHIT:      57091  dtMISS:     396039
cpu0_L2C PREFETCH  REQUESTED:    1544136  ISSUED:    1544130  CROSSED:          0  USEFUL:     365183  USELESS:     333644
cpu0_L2C AVERAGE iMISS LATENCY: 42.4439 cycles
cpu0_L2C AVERAGE dMISS LATENCY: 81.0527 cycles
cpu0_L2C AVERAGE itMISS LATENCY: 2.46998 cycles
cpu0_L2C AVERAGE dtMISS LATENCY: 16.7396 cycles
cpu0_L2C PAGE CROSSINGS (TLB HIT):         0 
cpu0_L2C PAGE CROSSINGS (TLB MISS):         0 
cpu0_L2C AVERAGE MISS LATENCY: 142.707 cycles
LLC TOTAL       ACCESS:    4494063  HIT:    1242206  MISS:    3251857  iACCESS:    1423643  iHIT:     394803  iMISS:    1028840  dACCESS:    2615572  dHIT:     796682  dMISS:    1818890  itACCESS:      58809  itHIT:       3207  itMISS:      55602  dtACCESS:     396039  dtHIT:      47514  dtMISS:     348525
LLC LOAD         ACCESS:    1044806  HIT:     304265  MISS:     740541  iACCESS:     311553  iHIT:      94015  iMISS:     217538  dACCESS:     733253  dHIT:     210250  dMISS:     523003  itACCESS:          0  itHIT:          0  itMISS:          0  dtACCESS:          0  dtHIT:          0  dtMISS:          0
LLC RFO          ACCESS:     135269  HIT:      39200  MISS:      96069  iACCESS:          0  iHIT:          0  iMISS:          0  dACCESS:     135269  dHIT:      39200  dMISS:      96069  itACCESS:          0  itHIT:          0  itMISS:          0  dtACCESS:          0  dtHIT:          0  dtMISS:          0
LLC PREFETCH     ACCESS:    2649982  HIT:     650241  MISS:    1999741  iACCESS:    1112090  iHIT:     300788  iMISS:     811302  dACCESS:    1537892  dHIT:     349453  dMISS:    1188439  itACCESS:          0  itHIT:          0  itMISS:          0  dtACCESS:          0  dtHIT:          0  dtMISS:          0
LLC WRITE        ACCESS:     209158  HIT:     197779  MISS:      11379  iACCESS:          0  iHIT:          0  iMISS:          0  dACCESS:     209158  dHIT:     197779  dMISS:      11379  itACCESS:          0  itHIT:          0  itMISS:          0  dtACCESS:          0  dtHIT:          0  dtMISS:          0
LLC TRANSLATION  ACCESS:     454848  HIT:      50721  MISS:     404127  iACCESS:          0  iHIT:          0  iMISS:          0  dACCESS:          0  dHIT:          0  dMISS:          0  itACCESS:      58809  itHIT:       3207  itMISS:      55602  dtACCESS:     396039  dtHIT:      47514  dtMISS:     348525
LLC PREFETCH  REQUESTED:          0  ISSUED:          0  CROSSED:          0  USEFUL:          0  USELESS:          0
LLC AVERAGE iMISS LATENCY: 50.2932 cycles
LLC AVERAGE dMISS LATENCY: 98.7332 cycles
LLC AVERAGE itMISS LATENCY: 3.07008 cycles
LLC AVERAGE dtMISS LATENCY: 20.8325 cycles
LLC PAGE CROSSINGS (TLB HIT):         0 
LLC PAGE CROSSINGS (TLB MISS):         0 
LLC AVERAGE MISS LATENCY: 172.929 cycles

PageTableWalker TOTAL       ACCESS:     180831  
PageTableWalker AVERAGE LATENCY: 6.81121 cycles
PageTableWalker TOTAL LATENCY: 1231677 cycles

DRAM Statistics
Channel 0
 RQ ROW_BUFFER_HIT:     692903
  ROW_BUFFER_MISS:    2529346
 AVG DBUS CONGESTED CYCLE:    3.65335
 WQ ROW_BUFFER_HIT:      67133
  ROW_BUFFER_MISS:      58028  FULL:          0

