last_page:0x200000000000000
VMEM_RES_CAP:0x100000
PAGE_SIZE:4096
LOG2_PAGE_SIZE:12
LOG2_PAGE_TABLE_SIZE:9
page_table_levels:5
WARNING: physical memory size is smaller than virtual memory size
FDiP enabled with aggresivity 16

*** ChampSim Multicore Out-of-Order Simulator ***

Warmup Instructions: 50000000
Simulation Instructions: 100000000
Number of CPUs: 1
Small page size: 4096
Large page size: 2097152

CPU 0 Bimodal branch predictor
Basic BTB sets: 1024 ways: 8 indirect buffer size: 4096 RAS size: 64
Instruction page size distrubution: 0
Loading instruction page size distribution from /home/bsc/bsc018186/scratch/itp_asplos25_AE/dump/smt_srv85_ap_srv194_ap_1024i.pdst
Data page size distrubution: 0
Loading data page size distribution from /home/bsc/bsc018186/scratch/itp_asplos25_AE/dump/smt_srv85_ap_srv194_ap_1024i.pdst
cpu0_L2C IP-based stride prefetcher
cpu0_L1D next line prefetcher
cpu0_L1I next line prefetcher
Off-chip DRAM Size: 4 GiB Channels: 1 Width: 64-bit Data Rate: 3200 MT/s
Heartbeat CPU 0 instructions: 10000002 cycles: 2500412 heartbeat IPC: 3.99935 cumulative IPC: 3.99935 (Simulation time: 0 hr 0 min 46 sec) 
Heartbeat CPU 0 instructions: 20000000 cycles: 5001023 heartbeat IPC: 3.99903 cumulative IPC: 3.99919 (Simulation time: 0 hr 1 min 34 sec) 
Heartbeat CPU 0 instructions: 30000002 cycles: 7501503 heartbeat IPC: 3.99924 cumulative IPC: 3.9992 (Simulation time: 0 hr 2 min 23 sec) 
Heartbeat CPU 0 instructions: 40000002 cycles: 10002376 heartbeat IPC: 3.99861 cumulative IPC: 3.99906 (Simulation time: 0 hr 3 min 12 sec) 
Heartbeat CPU 0 instructions: 50000000 cycles: 12579587 heartbeat IPC: 3.88017 cumulative IPC: 3.9747 (Simulation time: 0 hr 4 min 0 sec) 
Warmup finished CPU 0 instructions: 50000000 cycles: 12579588 cumulative IPC: 3.9747 (Simulation time: 0 hr 4 min 0 sec) 

Warmup complete CPU 0 instructions: 50000000 cycles: 12579588 (Simulation time: 0 hr 4 min 0 sec) 

Heartbeat CPU 0 instructions: 60000004 cycles: 28831523 heartbeat IPC: 0.615312 cumulative IPC: 0.615312 (Simulation time: 0 hr 5 min 23 sec) 
Heartbeat CPU 0 instructions: 70000002 cycles: 49883538 heartbeat IPC: 0.475014 cumulative IPC: 0.536137 (Simulation time: 0 hr 6 min 52 sec) 
Heartbeat CPU 0 instructions: 80000002 cycles: 79766677 heartbeat IPC: 0.334637 cumulative IPC: 0.446515 (Simulation time: 0 hr 8 min 29 sec) 
Heartbeat CPU 0 instructions: 90000002 cycles: 109249077 heartbeat IPC: 0.339186 cumulative IPC: 0.413782 (Simulation time: 0 hr 10 min 9 sec) 
Heartbeat CPU 0 instructions: 100000000 cycles: 139122391 heartbeat IPC: 0.334747 cumulative IPC: 0.395124 (Simulation time: 0 hr 11 min 50 sec) 
Heartbeat CPU 0 instructions: 110000000 cycles: 168231855 heartbeat IPC: 0.343531 cumulative IPC: 0.385475 (Simulation time: 0 hr 13 min 29 sec) 
Heartbeat CPU 0 instructions: 120000003 cycles: 198563041 heartbeat IPC: 0.329694 cumulative IPC: 0.376378 (Simulation time: 0 hr 15 min 11 sec) 
Heartbeat CPU 0 instructions: 130000000 cycles: 228926592 heartbeat IPC: 0.329343 cumulative IPC: 0.369777 (Simulation time: 0 hr 16 min 52 sec) 
Heartbeat CPU 0 instructions: 140000002 cycles: 258926144 heartbeat IPC: 0.333339 cumulative IPC: 0.365339 (Simulation time: 0 hr 18 min 35 sec) 
Heartbeat CPU 0 instructions: 150000000 cycles: 289713842 heartbeat IPC: 0.324805 cumulative IPC: 0.360836 (Simulation time: 0 hr 20 min 13 sec) 
Simulation finished CPU 0 instructions: 100000000 cycles: 277134255 cumulative IPC: 0.360836 (Simulation time: 0 hr 20 min 13 sec) 

Simulation complete CPU 0 instructions: 100000000 cycles: 277134255 (Simulation time: 0 hr 20 min 13 sec) 


ChampSim completed all CPUs

Saving instructions large page distribution to /home/bsc/bsc018186/scratch/itp_asplos25_AE/dump/smt_srv85_ap_srv194_ap_1024i.pdst...
Saving data large page distribution to /home/bsc/bsc018186/scratch/itp_asplos25_AE/dump/smt_srv85_ap_srv194_ap_1024i.pdst...
=== Simulation ===
CPU 0 runs /gpfs/projects/bsc18/MN4/bsc18/romol/ChampSim/traces/qualcomm_srv/smt_srv85_ap_srv194_ap_1024i.champsimtrace.xz

Region of Interest Statistics

CPU 0 cumulative IPC: 0.360836 instructions: 100000000 cycles: 277134255
CPU 0 Branch Prediction Accuracy: 76.7098% MPKI: 44.3237 Average ROB Occupancy at Mispredict: 10.5211
Branch type MPKI
BRANCH_DIRECT_JUMP: 1.39154
BRANCH_INDIRECT: 23.3942
BRANCH_CONDITIONAL: 12.3324
BRANCH_DIRECT_CALL: 2.62712
BRANCH_INDIRECT_CALL: 1.1123
BRANCH_RETURN: 3.46615

Instructions large pages: 0
Instructions small pages: 11317
Large page distribution for instructions: 0%

Data large pages: 0
Data small pages: 9525
Large page distribution for data: 0%

cpu0_L1I TOTAL       ACCESS:   40242211  HIT:   31431734  MISS:    8810477  iACCESS:   40242211  iHIT:   31431734  iMISS:    8810477  dACCESS:          0  dHIT:          0  dMISS:          0  itACCESS:          0  itHIT:          0  itMISS:          0  dtACCESS:          0  dtHIT:          0  dtMISS:          0
cpu0_L1I LOAD         ACCESS:   11573513  HIT:    9170817  MISS:    2402696  iACCESS:   11573513  iHIT:    9170817  iMISS:    2402696  dACCESS:          0  dHIT:          0  dMISS:          0  itACCESS:          0  itHIT:          0  itMISS:          0  dtACCESS:          0  dtHIT:          0  dtMISS:          0
cpu0_L1I RFO          ACCESS:          0  HIT:          0  MISS:          0  iACCESS:          0  iHIT:          0  iMISS:          0  dACCESS:          0  dHIT:          0  dMISS:          0  itACCESS:          0  itHIT:          0  itMISS:          0  dtACCESS:          0  dtHIT:          0  dtMISS:          0
cpu0_L1I PREFETCH     ACCESS:   28668698  HIT:   22260917  MISS:    6407781  iACCESS:   28668698  iHIT:   22260917  iMISS:    6407781  dACCESS:          0  dHIT:          0  dMISS:          0  itACCESS:          0  itHIT:          0  itMISS:          0  dtACCESS:          0  dtHIT:          0  dtMISS:          0
cpu0_L1I WRITE        ACCESS:          0  HIT:          0  MISS:          0  iACCESS:          0  iHIT:          0  iMISS:          0  dACCESS:          0  dHIT:          0  dMISS:          0  itACCESS:          0  itHIT:          0  itMISS:          0  dtACCESS:          0  dtHIT:          0  dtMISS:          0
cpu0_L1I TRANSLATION  ACCESS:          0  HIT:          0  MISS:          0  iACCESS:          0  iHIT:          0  iMISS:          0  dACCESS:          0  dHIT:          0  dMISS:          0  itACCESS:          0  itHIT:          0  itMISS:          0  dtACCESS:          0  dtHIT:          0  dtMISS:          0
cpu0_L1I PREFETCH  REQUESTED:   31121157  ISSUED:   31119643  CROSSED:          0  USEFUL:    2096560  USELESS:     749979
cpu0_L1I AVERAGE iMISS LATENCY: 24.6782 cycles
cpu0_L1I AVERAGE dMISS LATENCY: 0 cycles
cpu0_L1I AVERAGE itMISS LATENCY: 0 cycles
cpu0_L1I AVERAGE dtMISS LATENCY: 0 cycles
cpu0_L1I PAGE CROSSINGS (TLB HIT):         0 
cpu0_L1I PAGE CROSSINGS (TLB MISS):         0 
cpu0_L1I AVERAGE MISS LATENCY: 24.6782 cycles
cpu0_ITLB TOTAL       ACCESS:   33819454  HIT:   31652585  MISS:    2166869  iACCESS:   33819454  iHIT:   31652585  iMISS:    2166869  dACCESS:          0  dHIT:          0  dMISS:          0  itACCESS:          0  itHIT:          0  itMISS:          0  dtACCESS:          0  dtHIT:          0  dtMISS:          0
cpu0_ITLB LOAD         ACCESS:   33819454  HIT:   31652585  MISS:    2166869  iACCESS:   33819454  iHIT:   31652585  iMISS:    2166869  dACCESS:          0  dHIT:          0  dMISS:          0  itACCESS:          0  itHIT:          0  itMISS:          0  dtACCESS:          0  dtHIT:          0  dtMISS:          0
cpu0_ITLB RFO          ACCESS:          0  HIT:          0  MISS:          0  iACCESS:          0  iHIT:          0  iMISS:          0  dACCESS:          0  dHIT:          0  dMISS:          0  itACCESS:          0  itHIT:          0  itMISS:          0  dtACCESS:          0  dtHIT:          0  dtMISS:          0
cpu0_ITLB PREFETCH     ACCESS:          0  HIT:          0  MISS:          0  iACCESS:          0  iHIT:          0  iMISS:          0  dACCESS:          0  dHIT:          0  dMISS:          0  itACCESS:          0  itHIT:          0  itMISS:          0  dtACCESS:          0  dtHIT:          0  dtMISS:          0
cpu0_ITLB WRITE        ACCESS:          0  HIT:          0  MISS:          0  iACCESS:          0  iHIT:          0  iMISS:          0  dACCESS:          0  dHIT:          0  dMISS:          0  itACCESS:          0  itHIT:          0  itMISS:          0  dtACCESS:          0  dtHIT:          0  dtMISS:          0
cpu0_ITLB TRANSLATION  ACCESS:          0  HIT:          0  MISS:          0  iACCESS:          0  iHIT:          0  iMISS:          0  dACCESS:          0  dHIT:          0  dMISS:          0  itACCESS:          0  itHIT:          0  itMISS:          0  dtACCESS:          0  dtHIT:          0  dtMISS:          0
cpu0_ITLB PREFETCH  REQUESTED:          0  ISSUED:          0  CROSSED:          0  USEFUL:     380619  USELESS:      82557
cpu0_ITLB AVERAGE iMISS LATENCY: 8.33907 cycles
cpu0_ITLB AVERAGE dMISS LATENCY: 0 cycles
cpu0_ITLB AVERAGE itMISS LATENCY: 0 cycles
cpu0_ITLB AVERAGE dtMISS LATENCY: 0 cycles
cpu0_ITLB PAGE CROSSINGS (TLB HIT):         0 
cpu0_ITLB PAGE CROSSINGS (TLB MISS):         0 
cpu0_ITLB AVERAGE MISS LATENCY: 8.33907 cycles
cpu0_DTLB TOTAL       ACCESS:   30349243  HIT:   25153557  MISS:    5195686  iACCESS:          0  iHIT:          0  iMISS:          0  dACCESS:   30349243  dHIT:   25153557  dMISS:    5195686  itACCESS:          0  itHIT:          0  itMISS:          0  dtACCESS:          0  dtHIT:          0  dtMISS:          0
cpu0_DTLB LOAD         ACCESS:   30349243  HIT:   25153557  MISS:    5195686  iACCESS:          0  iHIT:          0  iMISS:          0  dACCESS:   30349243  dHIT:   25153557  dMISS:    5195686  itACCESS:          0  itHIT:          0  itMISS:          0  dtACCESS:          0  dtHIT:          0  dtMISS:          0
cpu0_DTLB RFO          ACCESS:          0  HIT:          0  MISS:          0  iACCESS:          0  iHIT:          0  iMISS:          0  dACCESS:          0  dHIT:          0  dMISS:          0  itACCESS:          0  itHIT:          0  itMISS:          0  dtACCESS:          0  dtHIT:          0  dtMISS:          0
cpu0_DTLB PREFETCH     ACCESS:          0  HIT:          0  MISS:          0  iACCESS:          0  iHIT:          0  iMISS:          0  dACCESS:          0  dHIT:          0  dMISS:          0  itACCESS:          0  itHIT:          0  itMISS:          0  dtACCESS:          0  dtHIT:          0  dtMISS:          0
cpu0_DTLB WRITE        ACCESS:          0  HIT:          0  MISS:          0  iACCESS:          0  iHIT:          0  iMISS:          0  dACCESS:          0  dHIT:          0  dMISS:          0  itACCESS:          0  itHIT:          0  itMISS:          0  dtACCESS:          0  dtHIT:          0  dtMISS:          0
cpu0_DTLB TRANSLATION  ACCESS:          0  HIT:          0  MISS:          0  iACCESS:          0  iHIT:          0  iMISS:          0  dACCESS:          0  dHIT:          0  dMISS:          0  itACCESS:          0  itHIT:          0  itMISS:          0  dtACCESS:          0  dtHIT:          0  dtMISS:          0
cpu0_DTLB PREFETCH  REQUESTED:          0  ISSUED:          0  CROSSED:          0  USEFUL:          0  USELESS:          0
cpu0_DTLB AVERAGE iMISS LATENCY: 0 cycles
cpu0_DTLB AVERAGE dMISS LATENCY: 13.0222 cycles
cpu0_DTLB AVERAGE itMISS LATENCY: 0 cycles
cpu0_DTLB AVERAGE dtMISS LATENCY: 0 cycles
cpu0_DTLB PAGE CROSSINGS (TLB HIT):         0 
cpu0_DTLB PAGE CROSSINGS (TLB MISS):         0 
cpu0_DTLB AVERAGE MISS LATENCY: 13.0222 cycles
cpu0_STLB TOTAL       ACCESS:    3333779  HIT:    2964927  MISS:     368852  iACCESS:     463182  iHIT:     347267  iMISS:     115915  dACCESS:    2870597  dHIT:    2617660  dMISS:     252937  itACCESS:          0  itHIT:          0  itMISS:          0  dtACCESS:          0  dtHIT:          0  dtMISS:          0
cpu0_STLB LOAD         ACCESS:    3333779  HIT:    2964927  MISS:     368852  iACCESS:     463182  iHIT:     347267  iMISS:     115915  dACCESS:    2870597  dHIT:    2617660  dMISS:     252937  itACCESS:          0  itHIT:          0  itMISS:          0  dtACCESS:          0  dtHIT:          0  dtMISS:          0
cpu0_STLB RFO          ACCESS:          0  HIT:          0  MISS:          0  iACCESS:          0  iHIT:          0  iMISS:          0  dACCESS:          0  dHIT:          0  dMISS:          0  itACCESS:          0  itHIT:          0  itMISS:          0  dtACCESS:          0  dtHIT:          0  dtMISS:          0
cpu0_STLB PREFETCH     ACCESS:          0  HIT:          0  MISS:          0  iACCESS:          0  iHIT:          0  iMISS:          0  dACCESS:          0  dHIT:          0  dMISS:          0  itACCESS:          0  itHIT:          0  itMISS:          0  dtACCESS:          0  dtHIT:          0  dtMISS:          0
cpu0_STLB WRITE        ACCESS:          0  HIT:          0  MISS:          0  iACCESS:          0  iHIT:          0  iMISS:          0  dACCESS:          0  dHIT:          0  dMISS:          0  itACCESS:          0  itHIT:          0  itMISS:          0  dtACCESS:          0  dtHIT:          0  dtMISS:          0
cpu0_STLB TRANSLATION  ACCESS:          0  HIT:          0  MISS:          0  iACCESS:          0  iHIT:          0  iMISS:          0  dACCESS:          0  dHIT:          0  dMISS:          0  itACCESS:          0  itHIT:          0  itMISS:          0  dtACCESS:          0  dtHIT:          0  dtMISS:          0
cpu0_STLB PREFETCH  REQUESTED:          0  ISSUED:          0  CROSSED:          0  USEFUL:          0  USELESS:          0
cpu0_STLB AVERAGE iMISS LATENCY: 38.9485 cycles
cpu0_STLB AVERAGE dMISS LATENCY: 120.536 cycles
cpu0_STLB AVERAGE itMISS LATENCY: 0 cycles
cpu0_STLB AVERAGE dtMISS LATENCY: 0 cycles
cpu0_STLB PAGE CROSSINGS (TLB HIT):         0 
cpu0_STLB PAGE CROSSINGS (TLB MISS):         0 
cpu0_STLB AVERAGE MISS LATENCY: 159.484 cycles
cpu0_L1D TOTAL       ACCESS:   48170620  HIT:   39779298  MISS:    8391322  iACCESS:          0  iHIT:          0  iMISS:          0  dACCESS:   47629878  dHIT:   39748762  dMISS:    7881116  itACCESS:     130432  itHIT:      13417  itMISS:     117015  dtACCESS:     410310  dtHIT:      17119  dtMISS:     393191
cpu0_L1D LOAD         ACCESS:   22466162  HIT:   18280545  MISS:    4185617  iACCESS:          0  iHIT:          0  iMISS:          0  dACCESS:   22466162  dHIT:   18280545  dMISS:    4185617  itACCESS:          0  itHIT:          0  itMISS:          0  dtACCESS:          0  dtHIT:          0  dtMISS:          0
cpu0_L1D RFO          ACCESS:          0  HIT:          0  MISS:          0  iACCESS:          0  iHIT:          0  iMISS:          0  dACCESS:          0  dHIT:          0  dMISS:          0  itACCESS:          0  itHIT:          0  itMISS:          0  dtACCESS:          0  dtHIT:          0  dtMISS:          0
cpu0_L1D PREFETCH     ACCESS:   15101960  HIT:   12040738  MISS:    3061222  iACCESS:          0  iHIT:          0  iMISS:          0  dACCESS:   15101960  dHIT:   12040738  dMISS:    3061222  itACCESS:          0  itHIT:          0  itMISS:          0  dtACCESS:          0  dtHIT:          0  dtMISS:          0
cpu0_L1D WRITE        ACCESS:   10061756  HIT:    9427479  MISS:     634277  iACCESS:          0  iHIT:          0  iMISS:          0  dACCESS:   10061756  dHIT:    9427479  dMISS:     634277  itACCESS:          0  itHIT:          0  itMISS:          0  dtACCESS:          0  dtHIT:          0  dtMISS:          0
cpu0_L1D TRANSLATION  ACCESS:     540742  HIT:      30536  MISS:     510206  iACCESS:          0  iHIT:          0  iMISS:          0  dACCESS:          0  dHIT:          0  dMISS:          0  itACCESS:     130432  itHIT:      13417  itMISS:     117015  dtACCESS:     410310  dtHIT:      17119  dtMISS:     393191
cpu0_L1D PREFETCH  REQUESTED:   22466162  ISSUED:   18870356  CROSSED:          0  USEFUL:     333187  USELESS:     998767
cpu0_L1D AVERAGE iMISS LATENCY: 0 cycles
cpu0_L1D AVERAGE dMISS LATENCY: 36.8498 cycles
cpu0_L1D AVERAGE itMISS LATENCY: 1.58174 cycles
cpu0_L1D AVERAGE dtMISS LATENCY: 4.78515 cycles
cpu0_L1D PAGE CROSSINGS (TLB HIT):         0 
cpu0_L1D PAGE CROSSINGS (TLB MISS):         0 
cpu0_L1D AVERAGE MISS LATENCY: 43.2166 cycles
cpu0_L2C TOTAL       ACCESS:    9546466  HIT:    1998186  MISS:    7548280  iACCESS:    3628517  iHIT:     727401  iMISS:    2901116  dACCESS:    5442265  dHIT:    1091469  dMISS:    4350796  itACCESS:     116343  itHIT:      39226  itMISS:      77117  dtACCESS:     359341  dtHIT:     140090  dtMISS:     219251
cpu0_L2C LOAD         ACCESS:    3150548  HIT:     732628  MISS:    2417920  iACCESS:     813092  iHIT:     100996  iMISS:     712096  dACCESS:    2337456  dHIT:     631632  dMISS:    1705824  itACCESS:          0  itHIT:          0  itMISS:          0  dtACCESS:          0  dtHIT:          0  dtMISS:          0
cpu0_L2C RFO          ACCESS:     239368  HIT:      32765  MISS:     206603  iACCESS:          0  iHIT:          0  iMISS:          0  dACCESS:     239368  dHIT:      32765  dMISS:     206603  itACCESS:          0  itHIT:          0  itMISS:          0  dtACCESS:          0  dtHIT:          0  dtMISS:          0
cpu0_L2C PREFETCH     ACCESS:    5346036  HIT:     954087  MISS:    4391949  iACCESS:    2815425  iHIT:     626405  iMISS:    2189020  dACCESS:    2530611  dHIT:     327682  dMISS:    2202929  itACCESS:          0  itHIT:          0  itMISS:          0  dtACCESS:          0  dtHIT:          0  dtMISS:          0
cpu0_L2C WRITE        ACCESS:     334830  HIT:      99390  MISS:     235440  iACCESS:          0  iHIT:          0  iMISS:          0  dACCESS:     334830  dHIT:      99390  dMISS:     235440  itACCESS:          0  itHIT:          0  itMISS:          0  dtACCESS:          0  dtHIT:          0  dtMISS:          0
cpu0_L2C TRANSLATION  ACCESS:     475684  HIT:     179316  MISS:     296368  iACCESS:          0  iHIT:          0  iMISS:          0  dACCESS:          0  dHIT:          0  dMISS:          0  itACCESS:     116343  itHIT:      39226  itMISS:      77117  dtACCESS:     359341  dtHIT:     140090  dtMISS:     219251
cpu0_L2C PREFETCH  REQUESTED:    1418351  ISSUED:    1418351  CROSSED:          0  USEFUL:     375028  USELESS:     464065
cpu0_L2C AVERAGE iMISS LATENCY: 24.7403 cycles
cpu0_L2C AVERAGE dMISS LATENCY: 47.4132 cycles
cpu0_L2C AVERAGE itMISS LATENCY: 1.60905 cycles
cpu0_L2C AVERAGE dtMISS LATENCY: 4.85997 cycles
cpu0_L2C PAGE CROSSINGS (TLB HIT):         0 
cpu0_L2C PAGE CROSSINGS (TLB MISS):         0 
cpu0_L2C AVERAGE MISS LATENCY: 78.6224 cycles
LLC TOTAL       ACCESS:    7375143  HIT:    4718777  MISS:    2656366  iACCESS:    2818952  iHIT:    1980636  iMISS:     838316  dACCESS:    4259823  dHIT:    2670222  dMISS:    1589601  itACCESS:      77117  itHIT:      17448  itMISS:      59669  dtACCESS:     219251  dtHIT:      50471  dtMISS:     168780
LLC LOAD         ACCESS:    2409732  HIT:    1762234  MISS:     647498  iACCESS:     710843  iHIT:     535129  iMISS:     175714  dACCESS:    1698889  dHIT:    1227105  dMISS:     471784  itACCESS:          0  itHIT:          0  itMISS:          0  dtACCESS:          0  dtHIT:          0  dtMISS:          0
LLC RFO          ACCESS:     206595  HIT:     114042  MISS:      92553  iACCESS:          0  iHIT:          0  iMISS:          0  dACCESS:     206595  dHIT:     114042  dMISS:      92553  itACCESS:          0  itHIT:          0  itMISS:          0  dtACCESS:          0  dtHIT:          0  dtMISS:          0
LLC PREFETCH     ACCESS:    4197074  HIT:    2514844  MISS:    1682230  iACCESS:    2108109  iHIT:    1445507  iMISS:     662602  dACCESS:    2088965  dHIT:    1069337  dMISS:    1019628  itACCESS:          0  itHIT:          0  itMISS:          0  dtACCESS:          0  dtHIT:          0  dtMISS:          0
LLC WRITE        ACCESS:     265374  HIT:     259738  MISS:       5636  iACCESS:          0  iHIT:          0  iMISS:          0  dACCESS:     265374  dHIT:     259738  dMISS:       5636  itACCESS:          0  itHIT:          0  itMISS:          0  dtACCESS:          0  dtHIT:          0  dtMISS:          0
LLC TRANSLATION  ACCESS:     296368  HIT:      67919  MISS:     228449  iACCESS:          0  iHIT:          0  iMISS:          0  dACCESS:          0  dHIT:          0  dMISS:          0  itACCESS:      77117  itHIT:      17448  itMISS:      59669  dtACCESS:     219251  dtHIT:      50471  dtMISS:     168780
LLC PREFETCH  REQUESTED:          0  ISSUED:          0  CROSSED:          0  USEFUL:          0  USELESS:          0
LLC AVERAGE iMISS LATENCY: 49.6922 cycles
LLC AVERAGE dMISS LATENCY: 106.378 cycles
LLC AVERAGE itMISS LATENCY: 4.0001 cycles
LLC AVERAGE dtMISS LATENCY: 12.1846 cycles
LLC PAGE CROSSINGS (TLB HIT):         0 
LLC PAGE CROSSINGS (TLB MISS):         0 
LLC AVERAGE MISS LATENCY: 172.255 cycles

PageTableWalker TOTAL       ACCESS:     182441  
PageTableWalker AVERAGE LATENCY: 5.99572 cycles
PageTableWalker TOTAL LATENCY: 1093864 cycles

DRAM Statistics
Channel 0
 RQ ROW_BUFFER_HIT:     583804
  ROW_BUFFER_MISS:    2049319
 AVG DBUS CONGESTED CYCLE:    3.65296
 WQ ROW_BUFFER_HIT:      65701
  ROW_BUFFER_MISS:      63410  FULL:          0

