last_page:0x200000000000000
VMEM_RES_CAP:0x100000
PAGE_SIZE:4096
LOG2_PAGE_SIZE:12
LOG2_PAGE_TABLE_SIZE:9
page_table_levels:5
WARNING: physical memory size is smaller than virtual memory size
FDiP enabled with aggresivity 16

*** ChampSim Multicore Out-of-Order Simulator ***

Warmup Instructions: 50000000
Simulation Instructions: 100000000
Number of CPUs: 1
Small page size: 4096
Large page size: 2097152

CPU 0 Bimodal branch predictor
Basic BTB sets: 1024 ways: 8 indirect buffer size: 4096 RAS size: 64
Instruction page size distrubution: 0
Loading instruction page size distribution from /home/bsc/bsc018186/scratch/itp_asplos25_AE/dump/smt_srv207_ap_srv697_ap_1024i.pdst
Data page size distrubution: 0
Loading data page size distribution from /home/bsc/bsc018186/scratch/itp_asplos25_AE/dump/smt_srv207_ap_srv697_ap_1024i.pdst
cpu0_L2C IP-based stride prefetcher
cpu0_L1D next line prefetcher
cpu0_STLB using iTP with max lru@8
cpu0_STLB using iTP with instr@0 and data@2
Init sat counter with 3 bits (max:50).
cpu0_L1I next line prefetcher
Off-chip DRAM Size: 4 GiB Channels: 1 Width: 64-bit Data Rate: 3200 MT/s
Heartbeat CPU 0 instructions: 10000002 cycles: 2500378 heartbeat IPC: 3.9994 cumulative IPC: 3.9994 (Simulation time: 0 hr 0 min 36 sec) 
Heartbeat CPU 0 instructions: 20000000 cycles: 5000570 heartbeat IPC: 3.9997 cumulative IPC: 3.99955 (Simulation time: 0 hr 1 min 13 sec) 
Heartbeat CPU 0 instructions: 30000000 cycles: 7500629 heartbeat IPC: 3.99991 cumulative IPC: 3.99967 (Simulation time: 0 hr 1 min 51 sec) 
Heartbeat CPU 0 instructions: 40000002 cycles: 10000874 heartbeat IPC: 3.99961 cumulative IPC: 3.99966 (Simulation time: 0 hr 2 min 30 sec) 
Heartbeat CPU 0 instructions: 50000002 cycles: 12500948 heartbeat IPC: 3.99989 cumulative IPC: 3.9997 (Simulation time: 0 hr 3 min 8 sec) 
Warmup finished CPU 0 instructions: 50000002 cycles: 12500949 cumulative IPC: 3.9997 (Simulation time: 0 hr 3 min 8 sec) 

Warmup complete CPU 0 instructions: 50000002 cycles: 12500949 (Simulation time: 0 hr 3 min 8 sec) 

Heartbeat CPU 0 instructions: 60000003 cycles: 42555260 heartbeat IPC: 0.332731 cumulative IPC: 0.332732 (Simulation time: 0 hr 4 min 29 sec) 
Heartbeat CPU 0 instructions: 70000002 cycles: 71067773 heartbeat IPC: 0.350724 cumulative IPC: 0.341491 (Simulation time: 0 hr 5 min 48 sec) 
Heartbeat CPU 0 instructions: 80000001 cycles: 101434711 heartbeat IPC: 0.329306 cumulative IPC: 0.33733 (Simulation time: 0 hr 7 min 10 sec) 
Heartbeat CPU 0 instructions: 90000000 cycles: 131832996 heartbeat IPC: 0.328966 cumulative IPC: 0.3352 (Simulation time: 0 hr 8 min 31 sec) 
Heartbeat CPU 0 instructions: 100000003 cycles: 161285851 heartbeat IPC: 0.339526 cumulative IPC: 0.336056 (Simulation time: 0 hr 9 min 52 sec) 
Heartbeat CPU 0 instructions: 110000002 cycles: 190511226 heartbeat IPC: 0.342169 cumulative IPC: 0.33706 (Simulation time: 0 hr 11 min 12 sec) 
Heartbeat CPU 0 instructions: 120000001 cycles: 220018593 heartbeat IPC: 0.338899 cumulative IPC: 0.337321 (Simulation time: 0 hr 12 min 34 sec) 
Heartbeat CPU 0 instructions: 130000004 cycles: 249131607 heartbeat IPC: 0.34349 cumulative IPC: 0.33808 (Simulation time: 0 hr 13 min 54 sec) 
Heartbeat CPU 0 instructions: 140000002 cycles: 278911710 heartbeat IPC: 0.335795 cumulative IPC: 0.337825 (Simulation time: 0 hr 15 min 15 sec) 
Heartbeat CPU 0 instructions: 150000000 cycles: 308762493 heartbeat IPC: 0.335 cumulative IPC: 0.33754 (Simulation time: 0 hr 16 min 37 sec) 
Simulation finished CPU 0 instructions: 100000003 cycles: 296261546 cumulative IPC: 0.33754 (Simulation time: 0 hr 16 min 37 sec) 

Simulation complete CPU 0 instructions: 100000003 cycles: 296261546 (Simulation time: 0 hr 16 min 37 sec) 


ChampSim completed all CPUs

Saving instructions large page distribution to /home/bsc/bsc018186/scratch/itp_asplos25_AE/dump/smt_srv207_ap_srv697_ap_1024i.pdst...
Saving data large page distribution to /home/bsc/bsc018186/scratch/itp_asplos25_AE/dump/smt_srv207_ap_srv697_ap_1024i.pdst...
=== Simulation ===
CPU 0 runs /gpfs/projects/bsc18/MN4/bsc18/romol/ChampSim/traces/qualcomm_srv/smt_srv207_ap_srv697_ap_1024i.champsimtrace.xz

Region of Interest Statistics

CPU 0 cumulative IPC: 0.33754 instructions: 100000003 cycles: 296261546
CPU 0 Branch Prediction Accuracy: 75.3513% MPKI: 44.268 Average ROB Occupancy at Mispredict: 11.5436
Branch type MPKI
BRANCH_DIRECT_JUMP: 1.35476
BRANCH_INDIRECT: 23.4079
BRANCH_CONDITIONAL: 12.5038
BRANCH_DIRECT_CALL: 2.54273
BRANCH_INDIRECT_CALL: 0.94822
BRANCH_RETURN: 3.51059

Instructions large pages: 0
Instructions small pages: 14748
Large page distribution for instructions: 0%

Data large pages: 0
Data small pages: 13364
Large page distribution for data: 0%

cpu0_L1I TOTAL       ACCESS:   39019036  HIT:   30308662  MISS:    8710374  iACCESS:   39019036  iHIT:   30308662  iMISS:    8710374  dACCESS:          0  dHIT:          0  dMISS:          0  itACCESS:          0  itHIT:          0  itMISS:          0  dtACCESS:          0  dtHIT:          0  dtMISS:          0
cpu0_L1I LOAD         ACCESS:   11634171  HIT:    9250888  MISS:    2383283  iACCESS:   11634171  iHIT:    9250888  iMISS:    2383283  dACCESS:          0  dHIT:          0  dMISS:          0  itACCESS:          0  itHIT:          0  itMISS:          0  dtACCESS:          0  dtHIT:          0  dtMISS:          0
cpu0_L1I RFO          ACCESS:          0  HIT:          0  MISS:          0  iACCESS:          0  iHIT:          0  iMISS:          0  dACCESS:          0  dHIT:          0  dMISS:          0  itACCESS:          0  itHIT:          0  itMISS:          0  dtACCESS:          0  dtHIT:          0  dtMISS:          0
cpu0_L1I PREFETCH     ACCESS:   27384865  HIT:   21057774  MISS:    6327091  iACCESS:   27384865  iHIT:   21057774  iMISS:    6327091  dACCESS:          0  dHIT:          0  dMISS:          0  itACCESS:          0  itHIT:          0  itMISS:          0  dtACCESS:          0  dtHIT:          0  dtMISS:          0
cpu0_L1I WRITE        ACCESS:          0  HIT:          0  MISS:          0  iACCESS:          0  iHIT:          0  iMISS:          0  dACCESS:          0  dHIT:          0  dMISS:          0  itACCESS:          0  itHIT:          0  itMISS:          0  dtACCESS:          0  dtHIT:          0  dtMISS:          0
cpu0_L1I TRANSLATION  ACCESS:          0  HIT:          0  MISS:          0  iACCESS:          0  iHIT:          0  iMISS:          0  dACCESS:          0  dHIT:          0  dMISS:          0  itACCESS:          0  itHIT:          0  itMISS:          0  dtACCESS:          0  dtHIT:          0  dtMISS:          0
cpu0_L1I PREFETCH  REQUESTED:   30186407  ISSUED:   30186371  CROSSED:          0  USEFUL:    2195768  USELESS:     780913
cpu0_L1I AVERAGE iMISS LATENCY: 24.0452 cycles
cpu0_L1I AVERAGE dMISS LATENCY: 0 cycles
cpu0_L1I AVERAGE itMISS LATENCY: 0 cycles
cpu0_L1I AVERAGE dtMISS LATENCY: 0 cycles
cpu0_L1I PAGE CROSSINGS (TLB HIT):         0 
cpu0_L1I PAGE CROSSINGS (TLB MISS):         0 
cpu0_L1I AVERAGE MISS LATENCY: 24.0452 cycles
cpu0_ITLB TOTAL       ACCESS:   33004832  HIT:   30774119  MISS:    2230713  iACCESS:   33004832  iHIT:   30774119  iMISS:    2230713  dACCESS:          0  dHIT:          0  dMISS:          0  itACCESS:          0  itHIT:          0  itMISS:          0  dtACCESS:          0  dtHIT:          0  dtMISS:          0
cpu0_ITLB LOAD         ACCESS:   33004832  HIT:   30774119  MISS:    2230713  iACCESS:   33004832  iHIT:   30774119  iMISS:    2230713  dACCESS:          0  dHIT:          0  dMISS:          0  itACCESS:          0  itHIT:          0  itMISS:          0  dtACCESS:          0  dtHIT:          0  dtMISS:          0
cpu0_ITLB RFO          ACCESS:          0  HIT:          0  MISS:          0  iACCESS:          0  iHIT:          0  iMISS:          0  dACCESS:          0  dHIT:          0  dMISS:          0  itACCESS:          0  itHIT:          0  itMISS:          0  dtACCESS:          0  dtHIT:          0  dtMISS:          0
cpu0_ITLB PREFETCH     ACCESS:          0  HIT:          0  MISS:          0  iACCESS:          0  iHIT:          0  iMISS:          0  dACCESS:          0  dHIT:          0  dMISS:          0  itACCESS:          0  itHIT:          0  itMISS:          0  dtACCESS:          0  dtHIT:          0  dtMISS:          0
cpu0_ITLB WRITE        ACCESS:          0  HIT:          0  MISS:          0  iACCESS:          0  iHIT:          0  iMISS:          0  dACCESS:          0  dHIT:          0  dMISS:          0  itACCESS:          0  itHIT:          0  itMISS:          0  dtACCESS:          0  dtHIT:          0  dtMISS:          0
cpu0_ITLB TRANSLATION  ACCESS:          0  HIT:          0  MISS:          0  iACCESS:          0  iHIT:          0  iMISS:          0  dACCESS:          0  dHIT:          0  dMISS:          0  itACCESS:          0  itHIT:          0  itMISS:          0  dtACCESS:          0  dtHIT:          0  dtMISS:          0
cpu0_ITLB PREFETCH  REQUESTED:          0  ISSUED:          0  CROSSED:          0  USEFUL:     392561  USELESS:      80158
cpu0_ITLB AVERAGE iMISS LATENCY: 6.2065 cycles
cpu0_ITLB AVERAGE dMISS LATENCY: 0 cycles
cpu0_ITLB AVERAGE itMISS LATENCY: 0 cycles
cpu0_ITLB AVERAGE dtMISS LATENCY: 0 cycles
cpu0_ITLB PAGE CROSSINGS (TLB HIT):         0 
cpu0_ITLB PAGE CROSSINGS (TLB MISS):         0 
cpu0_ITLB AVERAGE MISS LATENCY: 6.2065 cycles
cpu0_DTLB TOTAL       ACCESS:   29103052  HIT:   25468622  MISS:    3634430  iACCESS:          0  iHIT:          0  iMISS:          0  dACCESS:   29103052  dHIT:   25468622  dMISS:    3634430  itACCESS:          0  itHIT:          0  itMISS:          0  dtACCESS:          0  dtHIT:          0  dtMISS:          0
cpu0_DTLB LOAD         ACCESS:   29103052  HIT:   25468622  MISS:    3634430  iACCESS:          0  iHIT:          0  iMISS:          0  dACCESS:   29103052  dHIT:   25468622  dMISS:    3634430  itACCESS:          0  itHIT:          0  itMISS:          0  dtACCESS:          0  dtHIT:          0  dtMISS:          0
cpu0_DTLB RFO          ACCESS:          0  HIT:          0  MISS:          0  iACCESS:          0  iHIT:          0  iMISS:          0  dACCESS:          0  dHIT:          0  dMISS:          0  itACCESS:          0  itHIT:          0  itMISS:          0  dtACCESS:          0  dtHIT:          0  dtMISS:          0
cpu0_DTLB PREFETCH     ACCESS:          0  HIT:          0  MISS:          0  iACCESS:          0  iHIT:          0  iMISS:          0  dACCESS:          0  dHIT:          0  dMISS:          0  itACCESS:          0  itHIT:          0  itMISS:          0  dtACCESS:          0  dtHIT:          0  dtMISS:          0
cpu0_DTLB WRITE        ACCESS:          0  HIT:          0  MISS:          0  iACCESS:          0  iHIT:          0  iMISS:          0  dACCESS:          0  dHIT:          0  dMISS:          0  itACCESS:          0  itHIT:          0  itMISS:          0  dtACCESS:          0  dtHIT:          0  dtMISS:          0
cpu0_DTLB TRANSLATION  ACCESS:          0  HIT:          0  MISS:          0  iACCESS:          0  iHIT:          0  iMISS:          0  dACCESS:          0  dHIT:          0  dMISS:          0  itACCESS:          0  itHIT:          0  itMISS:          0  dtACCESS:          0  dtHIT:          0  dtMISS:          0
cpu0_DTLB PREFETCH  REQUESTED:          0  ISSUED:          0  CROSSED:          0  USEFUL:          0  USELESS:          0
cpu0_DTLB AVERAGE iMISS LATENCY: 0 cycles
cpu0_DTLB AVERAGE dMISS LATENCY: 27.8441 cycles
cpu0_DTLB AVERAGE itMISS LATENCY: 0 cycles
cpu0_DTLB AVERAGE dtMISS LATENCY: 0 cycles
cpu0_DTLB PAGE CROSSINGS (TLB HIT):         0 
cpu0_DTLB PAGE CROSSINGS (TLB MISS):         0 
cpu0_DTLB AVERAGE MISS LATENCY: 27.8441 cycles
cpu0_STLB TOTAL       ACCESS:    2586818  HIT:    2218326  MISS:     368492  iACCESS:     472721  iHIT:     420363  iMISS:      52358  dACCESS:    2114097  dHIT:    1797963  dMISS:     316134  itACCESS:          0  itHIT:          0  itMISS:          0  dtACCESS:          0  dtHIT:          0  dtMISS:          0
cpu0_STLB LOAD         ACCESS:    2586818  HIT:    2218326  MISS:     368492  iACCESS:     472721  iHIT:     420363  iMISS:      52358  dACCESS:    2114097  dHIT:    1797963  dMISS:     316134  itACCESS:          0  itHIT:          0  itMISS:          0  dtACCESS:          0  dtHIT:          0  dtMISS:          0
cpu0_STLB RFO          ACCESS:          0  HIT:          0  MISS:          0  iACCESS:          0  iHIT:          0  iMISS:          0  dACCESS:          0  dHIT:          0  dMISS:          0  itACCESS:          0  itHIT:          0  itMISS:          0  dtACCESS:          0  dtHIT:          0  dtMISS:          0
cpu0_STLB PREFETCH     ACCESS:          0  HIT:          0  MISS:          0  iACCESS:          0  iHIT:          0  iMISS:          0  dACCESS:          0  dHIT:          0  dMISS:          0  itACCESS:          0  itHIT:          0  itMISS:          0  dtACCESS:          0  dtHIT:          0  dtMISS:          0
cpu0_STLB WRITE        ACCESS:          0  HIT:          0  MISS:          0  iACCESS:          0  iHIT:          0  iMISS:          0  dACCESS:          0  dHIT:          0  dMISS:          0  itACCESS:          0  itHIT:          0  itMISS:          0  dtACCESS:          0  dtHIT:          0  dtMISS:          0
cpu0_STLB TRANSLATION  ACCESS:          0  HIT:          0  MISS:          0  iACCESS:          0  iHIT:          0  iMISS:          0  dACCESS:          0  dHIT:          0  dMISS:          0  itACCESS:          0  itHIT:          0  itMISS:          0  dtACCESS:          0  dtHIT:          0  dtMISS:          0
cpu0_STLB PREFETCH  REQUESTED:          0  ISSUED:          0  CROSSED:          0  USEFUL:          0  USELESS:          0
cpu0_STLB AVERAGE iMISS LATENCY: 27.5068 cycles
cpu0_STLB AVERAGE dMISS LATENCY: 228.311 cycles
cpu0_STLB AVERAGE itMISS LATENCY: 0 cycles
cpu0_STLB AVERAGE dtMISS LATENCY: 0 cycles
cpu0_STLB PAGE CROSSINGS (TLB HIT):         0 
cpu0_STLB PAGE CROSSINGS (TLB MISS):         0 
cpu0_STLB AVERAGE MISS LATENCY: 255.818 cycles
cpu0_L1D TOTAL       ACCESS:   44984667  HIT:   39524630  MISS:    5460037  iACCESS:          0  iHIT:          0  iMISS:          0  dACCESS:   44419905  dHIT:   39494933  dMISS:    4924972  itACCESS:      62483  itHIT:       5202  itMISS:      57281  dtACCESS:     502279  dtHIT:      24495  dtMISS:     477784
cpu0_L1D LOAD         ACCESS:   20340378  HIT:   18125985  MISS:    2214393  iACCESS:          0  iHIT:          0  iMISS:          0  dACCESS:   20340378  dHIT:   18125985  dMISS:    2214393  itACCESS:          0  itHIT:          0  itMISS:          0  dtACCESS:          0  dtHIT:          0  dtMISS:          0
cpu0_L1D RFO          ACCESS:          0  HIT:          0  MISS:          0  iACCESS:          0  iHIT:          0  iMISS:          0  dACCESS:          0  dHIT:          0  dMISS:          0  itACCESS:          0  itHIT:          0  itMISS:          0  dtACCESS:          0  dtHIT:          0  dtMISS:          0
cpu0_L1D PREFETCH     ACCESS:   13972083  HIT:   11832376  MISS:    2139707  iACCESS:          0  iHIT:          0  iMISS:          0  dACCESS:   13972083  dHIT:   11832376  dMISS:    2139707  itACCESS:          0  itHIT:          0  itMISS:          0  dtACCESS:          0  dtHIT:          0  dtMISS:          0
cpu0_L1D WRITE        ACCESS:   10107444  HIT:    9536572  MISS:     570872  iACCESS:          0  iHIT:          0  iMISS:          0  dACCESS:   10107444  dHIT:    9536572  dMISS:     570872  itACCESS:          0  itHIT:          0  itMISS:          0  dtACCESS:          0  dtHIT:          0  dtMISS:          0
cpu0_L1D TRANSLATION  ACCESS:     564762  HIT:      29697  MISS:     535065  iACCESS:          0  iHIT:          0  iMISS:          0  dACCESS:          0  dHIT:          0  dMISS:          0  itACCESS:      62483  itHIT:       5202  itMISS:      57281  dtACCESS:     502279  dtHIT:      24495  dtMISS:     477784
cpu0_L1D PREFETCH  REQUESTED:   20340378  ISSUED:   18695339  CROSSED:          0  USEFUL:     376513  USELESS:     950296
cpu0_L1D AVERAGE iMISS LATENCY: 0 cycles
cpu0_L1D AVERAGE dMISS LATENCY: 51.2292 cycles
cpu0_L1D AVERAGE itMISS LATENCY: 1.75693 cycles
cpu0_L1D AVERAGE dtMISS LATENCY: 14.3116 cycles
cpu0_L1D PAGE CROSSINGS (TLB HIT):         0 
cpu0_L1D PAGE CROSSINGS (TLB MISS):         0 
cpu0_L1D AVERAGE MISS LATENCY: 67.2977 cycles
cpu0_L2C TOTAL       ACCESS:    8684957  HIT:    4225505  MISS:    4459452  iACCESS:    3792718  iHIT:    2295128  iMISS:    1497590  dACCESS:    4384559  dHIT:    1864881  dMISS:    2519678  itACCESS:      57054  itHIT:       8434  itMISS:      48620  dtACCESS:     450626  dtHIT:      57062  dtMISS:     393564
cpu0_L2C LOAD         ACCESS:    2090783  HIT:    1022161  MISS:    1068622  iACCESS:     852047  iHIT:     540007  iMISS:     312040  dACCESS:    1238736  dHIT:     482154  dMISS:     756582  itACCESS:          0  itHIT:          0  itMISS:          0  dtACCESS:          0  dtHIT:          0  dtMISS:          0
cpu0_L2C RFO          ACCESS:     218968  HIT:      90189  MISS:     128779  iACCESS:          0  iHIT:          0  iMISS:          0  dACCESS:     218968  dHIT:      90189  dMISS:     128779  itACCESS:          0  itHIT:          0  itMISS:          0  dtACCESS:          0  dtHIT:          0  dtMISS:          0
cpu0_L2C PREFETCH     ACCESS:    5517610  HIT:    2701818  MISS:    2815792  iACCESS:    2940671  iHIT:    1755121  iMISS:    1185550  dACCESS:    2576939  dHIT:     946697  dMISS:    1630242  itACCESS:          0  itHIT:          0  itMISS:          0  dtACCESS:          0  dtHIT:          0  dtMISS:          0
cpu0_L2C WRITE        ACCESS:     349916  HIT:     345841  MISS:       4075  iACCESS:          0  iHIT:          0  iMISS:          0  dACCESS:     349916  dHIT:     345841  dMISS:       4075  itACCESS:          0  itHIT:          0  itMISS:          0  dtACCESS:          0  dtHIT:          0  dtMISS:          0
cpu0_L2C TRANSLATION  ACCESS:     507680  HIT:      65496  MISS:     442184  iACCESS:          0  iHIT:          0  iMISS:          0  dACCESS:          0  dHIT:          0  dMISS:          0  itACCESS:      57054  itHIT:       8434  itMISS:      48620  dtACCESS:     450626  dtHIT:      57062  dtMISS:     393564
cpu0_L2C PREFETCH  REQUESTED:    1492185  ISSUED:    1492182  CROSSED:          0  USEFUL:     348870  USELESS:     321272
cpu0_L2C AVERAGE iMISS LATENCY: 39.7969 cycles
cpu0_L2C AVERAGE dMISS LATENCY: 77.3052 cycles
cpu0_L2C AVERAGE itMISS LATENCY: 2.02473 cycles
cpu0_L2C AVERAGE dtMISS LATENCY: 16.5187 cycles
cpu0_L2C PAGE CROSSINGS (TLB HIT):         0 
cpu0_L2C PAGE CROSSINGS (TLB MISS):         0 
cpu0_L2C AVERAGE MISS LATENCY: 135.646 cycles
LLC TOTAL       ACCESS:    4468708  HIT:    1442106  MISS:    3026602  iACCESS:    1411882  iHIT:     477709  iMISS:     934173  dACCESS:    2614642  dHIT:     909392  dMISS:    1705250  itACCESS:      48620  itHIT:       3591  itMISS:      45029  dtACCESS:     393564  dtHIT:      51414  dtMISS:     342150
LLC LOAD         ACCESS:    1063130  HIT:     359077  MISS:     704053  iACCESS:     310834  iHIT:     112169  iMISS:     198665  dACCESS:     752296  dHIT:     246908  dMISS:     505388  itACCESS:          0  itHIT:          0  itMISS:          0  dtACCESS:          0  dtHIT:          0  dtMISS:          0
LLC RFO          ACCESS:     128776  HIT:      41412  MISS:      87364  iACCESS:          0  iHIT:          0  iMISS:          0  dACCESS:     128776  dHIT:      41412  dMISS:      87364  itACCESS:          0  itHIT:          0  itMISS:          0  dtACCESS:          0  dtHIT:          0  dtMISS:          0
LLC PREFETCH     ACCESS:    2621362  HIT:     784279  MISS:    1837083  iACCESS:    1101048  iHIT:     365540  iMISS:     735508  dACCESS:    1520314  dHIT:     418739  dMISS:    1101575  itACCESS:          0  itHIT:          0  itMISS:          0  dtACCESS:          0  dtHIT:          0  dtMISS:          0
LLC WRITE        ACCESS:     213256  HIT:     202333  MISS:      10923  iACCESS:          0  iHIT:          0  iMISS:          0  dACCESS:     213256  dHIT:     202333  dMISS:      10923  itACCESS:          0  itHIT:          0  itMISS:          0  dtACCESS:          0  dtHIT:          0  dtMISS:          0
LLC TRANSLATION  ACCESS:     442184  HIT:      55005  MISS:     387179  iACCESS:          0  iHIT:          0  iMISS:          0  dACCESS:          0  dHIT:          0  dMISS:          0  itACCESS:      48620  itHIT:       3591  itMISS:      45029  dtACCESS:     393564  dtHIT:      51414  dtMISS:     342150
LLC PREFETCH  REQUESTED:          0  ISSUED:          0  CROSSED:          0  USEFUL:          0  USELESS:          0
LLC AVERAGE iMISS LATENCY: 49.4583 cycles
LLC AVERAGE dMISS LATENCY: 98.8952 cycles
LLC AVERAGE itMISS LATENCY: 2.66478 cycles
LLC AVERAGE dtMISS LATENCY: 21.7696 cycles
LLC PAGE CROSSINGS (TLB HIT):         0 
LLC PAGE CROSSINGS (TLB MISS):         0 
LLC AVERAGE MISS LATENCY: 172.788 cycles

PageTableWalker TOTAL       ACCESS:     177693  
PageTableWalker AVERAGE LATENCY: 6.82416 cycles
PageTableWalker TOTAL LATENCY: 1212604 cycles

DRAM Statistics
Channel 0
 RQ ROW_BUFFER_HIT:     641362
  ROW_BUFFER_MISS:    2363828
 AVG DBUS CONGESTED CYCLE:    3.64855
 WQ ROW_BUFFER_HIT:      65477
  ROW_BUFFER_MISS:      53955  FULL:          0

