last_page:0x200000000000000
VMEM_RES_CAP:0x100000
PAGE_SIZE:4096
LOG2_PAGE_SIZE:12
LOG2_PAGE_TABLE_SIZE:9
page_table_levels:5
WARNING: physical memory size is smaller than virtual memory size
FDiP enabled with aggresivity 16

*** ChampSim Multicore Out-of-Order Simulator ***

Warmup Instructions: 50000000
Simulation Instructions: 100000000
Number of CPUs: 1
Small page size: 4096
Large page size: 2097152

CPU 0 Bimodal branch predictor
Basic BTB sets: 1024 ways: 8 indirect buffer size: 4096 RAS size: 64
Instruction page size distrubution: 0
Loading instruction page size distribution from /home/bsc/bsc018186/scratch/itp_asplos25_AE/dump/smt_srv537_ap_srv73_ap_1024i.pdst
Data page size distrubution: 0
Loading data page size distribution from /home/bsc/bsc018186/scratch/itp_asplos25_AE/dump/smt_srv537_ap_srv73_ap_1024i.pdst
cpu0_L2C IP-based stride prefetcher
cpu0_L1D next line prefetcher
CHiRPing...
cpu0_L1I next line prefetcher
Off-chip DRAM Size: 4 GiB Channels: 1 Width: 64-bit Data Rate: 3200 MT/s
Heartbeat CPU 0 instructions: 10000000 cycles: 2500776 heartbeat IPC: 3.99876 cumulative IPC: 3.99876 (Simulation time: 0 hr 0 min 43 sec) 
Heartbeat CPU 0 instructions: 20000003 cycles: 5001323 heartbeat IPC: 3.99913 cumulative IPC: 3.99895 (Simulation time: 0 hr 1 min 28 sec) 
Heartbeat CPU 0 instructions: 30000003 cycles: 7501643 heartbeat IPC: 3.99949 cumulative IPC: 3.99913 (Simulation time: 0 hr 2 min 12 sec) 
Heartbeat CPU 0 instructions: 40000002 cycles: 10002044 heartbeat IPC: 3.99936 cumulative IPC: 3.99919 (Simulation time: 0 hr 2 min 58 sec) 
Heartbeat CPU 0 instructions: 50000003 cycles: 12503271 heartbeat IPC: 3.99804 cumulative IPC: 3.99896 (Simulation time: 0 hr 3 min 43 sec) 
Warmup finished CPU 0 instructions: 50000003 cycles: 12503272 cumulative IPC: 3.99896 (Simulation time: 0 hr 3 min 43 sec) 

Warmup complete CPU 0 instructions: 50000003 cycles: 12503272 (Simulation time: 0 hr 3 min 43 sec) 

Heartbeat CPU 0 instructions: 60000001 cycles: 35911254 heartbeat IPC: 0.427205 cumulative IPC: 0.427205 (Simulation time: 0 hr 5 min 2 sec) 
Heartbeat CPU 0 instructions: 70000000 cycles: 57011709 heartbeat IPC: 0.473924 cumulative IPC: 0.449353 (Simulation time: 0 hr 6 min 18 sec) 
Heartbeat CPU 0 instructions: 80000003 cycles: 78606009 heartbeat IPC: 0.463086 cumulative IPC: 0.453839 (Simulation time: 0 hr 7 min 34 sec) 
Heartbeat CPU 0 instructions: 90000000 cycles: 106194272 heartbeat IPC: 0.362473 cumulative IPC: 0.426936 (Simulation time: 0 hr 8 min 59 sec) 
Heartbeat CPU 0 instructions: 100000003 cycles: 135131997 heartbeat IPC: 0.34557 cumulative IPC: 0.407735 (Simulation time: 0 hr 10 min 29 sec) 
Heartbeat CPU 0 instructions: 110000002 cycles: 164560682 heartbeat IPC: 0.339805 cumulative IPC: 0.394588 (Simulation time: 0 hr 12 min 1 sec) 
Heartbeat CPU 0 instructions: 120000001 cycles: 191498857 heartbeat IPC: 0.371221 cumulative IPC: 0.391072 (Simulation time: 0 hr 13 min 29 sec) 
Heartbeat CPU 0 instructions: 130000000 cycles: 207797572 heartbeat IPC: 0.613546 cumulative IPC: 0.409639 (Simulation time: 0 hr 14 min 48 sec) 
Heartbeat CPU 0 instructions: 140000003 cycles: 227786838 heartbeat IPC: 0.500269 cumulative IPC: 0.418054 (Simulation time: 0 hr 16 min 9 sec) 
Heartbeat CPU 0 instructions: 150000002 cycles: 255806432 heartbeat IPC: 0.356894 cumulative IPC: 0.41101 (Simulation time: 0 hr 17 min 39 sec) 
Simulation finished CPU 0 instructions: 100000004 cycles: 243303162 cumulative IPC: 0.41101 (Simulation time: 0 hr 17 min 39 sec) 

Simulation complete CPU 0 instructions: 100000004 cycles: 243303162 (Simulation time: 0 hr 17 min 39 sec) 


ChampSim completed all CPUs

Saving instructions large page distribution to /home/bsc/bsc018186/scratch/itp_asplos25_AE/dump/smt_srv537_ap_srv73_ap_1024i.pdst...
Saving data large page distribution to /home/bsc/bsc018186/scratch/itp_asplos25_AE/dump/smt_srv537_ap_srv73_ap_1024i.pdst...
=== Simulation ===
CPU 0 runs /gpfs/projects/bsc18/MN4/bsc18/romol/ChampSim/traces/qualcomm_srv/smt_srv537_ap_srv73_ap_1024i.champsimtrace.xz

Region of Interest Statistics

CPU 0 cumulative IPC: 0.41101 instructions: 100000004 cycles: 243303162
CPU 0 Branch Prediction Accuracy: 78.0605% MPKI: 42.6412 Average ROB Occupancy at Mispredict: 11.0559
Branch type MPKI
BRANCH_DIRECT_JUMP: 1.087
BRANCH_INDIRECT: 22.7445
BRANCH_CONDITIONAL: 12.2037
BRANCH_DIRECT_CALL: 2.01296
BRANCH_INDIRECT_CALL: 1.68504
BRANCH_RETURN: 2.90804

Instructions large pages: 0
Instructions small pages: 11665
Large page distribution for instructions: 0%

Data large pages: 0
Data small pages: 9807
Large page distribution for data: 0%

cpu0_L1I TOTAL       ACCESS:   38540968  HIT:   31018800  MISS:    7522168  iACCESS:   38540968  iHIT:   31018800  iMISS:    7522168  dACCESS:          0  dHIT:          0  dMISS:          0  itACCESS:          0  itHIT:          0  itMISS:          0  dtACCESS:          0  dtHIT:          0  dtMISS:          0
cpu0_L1I LOAD         ACCESS:   10681803  HIT:    8624775  MISS:    2057028  iACCESS:   10681803  iHIT:    8624775  iMISS:    2057028  dACCESS:          0  dHIT:          0  dMISS:          0  itACCESS:          0  itHIT:          0  itMISS:          0  dtACCESS:          0  dtHIT:          0  dtMISS:          0
cpu0_L1I RFO          ACCESS:          0  HIT:          0  MISS:          0  iACCESS:          0  iHIT:          0  iMISS:          0  dACCESS:          0  dHIT:          0  dMISS:          0  itACCESS:          0  itHIT:          0  itMISS:          0  dtACCESS:          0  dtHIT:          0  dtMISS:          0
cpu0_L1I PREFETCH     ACCESS:   27859165  HIT:   22394025  MISS:    5465140  iACCESS:   27859165  iHIT:   22394025  iMISS:    5465140  dACCESS:          0  dHIT:          0  dMISS:          0  itACCESS:          0  itHIT:          0  itMISS:          0  dtACCESS:          0  dtHIT:          0  dtMISS:          0
cpu0_L1I WRITE        ACCESS:          0  HIT:          0  MISS:          0  iACCESS:          0  iHIT:          0  iMISS:          0  dACCESS:          0  dHIT:          0  dMISS:          0  itACCESS:          0  itHIT:          0  itMISS:          0  dtACCESS:          0  dtHIT:          0  dtMISS:          0
cpu0_L1I TRANSLATION  ACCESS:          0  HIT:          0  MISS:          0  iACCESS:          0  iHIT:          0  iMISS:          0  dACCESS:          0  dHIT:          0  dMISS:          0  itACCESS:          0  itHIT:          0  itMISS:          0  dtACCESS:          0  dtHIT:          0  dtMISS:          0
cpu0_L1I PREFETCH  REQUESTED:   30145043  ISSUED:   30144034  CROSSED:          0  USEFUL:    1801527  USELESS:     645319
cpu0_L1I AVERAGE iMISS LATENCY: 23.6017 cycles
cpu0_L1I AVERAGE dMISS LATENCY: 0 cycles
cpu0_L1I AVERAGE itMISS LATENCY: 0 cycles
cpu0_L1I AVERAGE dtMISS LATENCY: 0 cycles
cpu0_L1I PAGE CROSSINGS (TLB HIT):         0 
cpu0_L1I PAGE CROSSINGS (TLB MISS):         0 
cpu0_L1I AVERAGE MISS LATENCY: 23.6017 cycles
cpu0_ITLB TOTAL       ACCESS:   32411588  HIT:   30567832  MISS:    1843756  iACCESS:   32411588  iHIT:   30567832  iMISS:    1843756  dACCESS:          0  dHIT:          0  dMISS:          0  itACCESS:          0  itHIT:          0  itMISS:          0  dtACCESS:          0  dtHIT:          0  dtMISS:          0
cpu0_ITLB LOAD         ACCESS:   32411588  HIT:   30567832  MISS:    1843756  iACCESS:   32411588  iHIT:   30567832  iMISS:    1843756  dACCESS:          0  dHIT:          0  dMISS:          0  itACCESS:          0  itHIT:          0  itMISS:          0  dtACCESS:          0  dtHIT:          0  dtMISS:          0
cpu0_ITLB RFO          ACCESS:          0  HIT:          0  MISS:          0  iACCESS:          0  iHIT:          0  iMISS:          0  dACCESS:          0  dHIT:          0  dMISS:          0  itACCESS:          0  itHIT:          0  itMISS:          0  dtACCESS:          0  dtHIT:          0  dtMISS:          0
cpu0_ITLB PREFETCH     ACCESS:          0  HIT:          0  MISS:          0  iACCESS:          0  iHIT:          0  iMISS:          0  dACCESS:          0  dHIT:          0  dMISS:          0  itACCESS:          0  itHIT:          0  itMISS:          0  dtACCESS:          0  dtHIT:          0  dtMISS:          0
cpu0_ITLB WRITE        ACCESS:          0  HIT:          0  MISS:          0  iACCESS:          0  iHIT:          0  iMISS:          0  dACCESS:          0  dHIT:          0  dMISS:          0  itACCESS:          0  itHIT:          0  itMISS:          0  dtACCESS:          0  dtHIT:          0  dtMISS:          0
cpu0_ITLB TRANSLATION  ACCESS:          0  HIT:          0  MISS:          0  iACCESS:          0  iHIT:          0  iMISS:          0  dACCESS:          0  dHIT:          0  dMISS:          0  itACCESS:          0  itHIT:          0  itMISS:          0  dtACCESS:          0  dtHIT:          0  dtMISS:          0
cpu0_ITLB PREFETCH  REQUESTED:          0  ISSUED:          0  CROSSED:          0  USEFUL:     324917  USELESS:      67499
cpu0_ITLB AVERAGE iMISS LATENCY: 7.69481 cycles
cpu0_ITLB AVERAGE dMISS LATENCY: 0 cycles
cpu0_ITLB AVERAGE itMISS LATENCY: 0 cycles
cpu0_ITLB AVERAGE dtMISS LATENCY: 0 cycles
cpu0_ITLB PAGE CROSSINGS (TLB HIT):         0 
cpu0_ITLB PAGE CROSSINGS (TLB MISS):         0 
cpu0_ITLB AVERAGE MISS LATENCY: 7.69481 cycles
cpu0_DTLB TOTAL       ACCESS:   31264908  HIT:   26071763  MISS:    5193145  iACCESS:          0  iHIT:          0  iMISS:          0  dACCESS:   31264908  dHIT:   26071763  dMISS:    5193145  itACCESS:          0  itHIT:          0  itMISS:          0  dtACCESS:          0  dtHIT:          0  dtMISS:          0
cpu0_DTLB LOAD         ACCESS:   31264908  HIT:   26071763  MISS:    5193145  iACCESS:          0  iHIT:          0  iMISS:          0  dACCESS:   31264908  dHIT:   26071763  dMISS:    5193145  itACCESS:          0  itHIT:          0  itMISS:          0  dtACCESS:          0  dtHIT:          0  dtMISS:          0
cpu0_DTLB RFO          ACCESS:          0  HIT:          0  MISS:          0  iACCESS:          0  iHIT:          0  iMISS:          0  dACCESS:          0  dHIT:          0  dMISS:          0  itACCESS:          0  itHIT:          0  itMISS:          0  dtACCESS:          0  dtHIT:          0  dtMISS:          0
cpu0_DTLB PREFETCH     ACCESS:          0  HIT:          0  MISS:          0  iACCESS:          0  iHIT:          0  iMISS:          0  dACCESS:          0  dHIT:          0  dMISS:          0  itACCESS:          0  itHIT:          0  itMISS:          0  dtACCESS:          0  dtHIT:          0  dtMISS:          0
cpu0_DTLB WRITE        ACCESS:          0  HIT:          0  MISS:          0  iACCESS:          0  iHIT:          0  iMISS:          0  dACCESS:          0  dHIT:          0  dMISS:          0  itACCESS:          0  itHIT:          0  itMISS:          0  dtACCESS:          0  dtHIT:          0  dtMISS:          0
cpu0_DTLB TRANSLATION  ACCESS:          0  HIT:          0  MISS:          0  iACCESS:          0  iHIT:          0  iMISS:          0  dACCESS:          0  dHIT:          0  dMISS:          0  itACCESS:          0  itHIT:          0  itMISS:          0  dtACCESS:          0  dtHIT:          0  dtMISS:          0
cpu0_DTLB PREFETCH  REQUESTED:          0  ISSUED:          0  CROSSED:          0  USEFUL:          0  USELESS:          0
cpu0_DTLB AVERAGE iMISS LATENCY: 0 cycles
cpu0_DTLB AVERAGE dMISS LATENCY: 10.7128 cycles
cpu0_DTLB AVERAGE itMISS LATENCY: 0 cycles
cpu0_DTLB AVERAGE dtMISS LATENCY: 0 cycles
cpu0_DTLB PAGE CROSSINGS (TLB HIT):         0 
cpu0_DTLB PAGE CROSSINGS (TLB MISS):         0 
cpu0_DTLB AVERAGE MISS LATENCY: 10.7128 cycles
cpu0_STLB TOTAL       ACCESS:    3164062  HIT:    2888430  MISS:     275632  iACCESS:     392425  iHIT:     303013  iMISS:      89412  dACCESS:    2771637  dHIT:    2585417  dMISS:     186220  itACCESS:          0  itHIT:          0  itMISS:          0  dtACCESS:          0  dtHIT:          0  dtMISS:          0
cpu0_STLB LOAD         ACCESS:    3164062  HIT:    2888430  MISS:     275632  iACCESS:     392425  iHIT:     303013  iMISS:      89412  dACCESS:    2771637  dHIT:    2585417  dMISS:     186220  itACCESS:          0  itHIT:          0  itMISS:          0  dtACCESS:          0  dtHIT:          0  dtMISS:          0
cpu0_STLB RFO          ACCESS:          0  HIT:          0  MISS:          0  iACCESS:          0  iHIT:          0  iMISS:          0  dACCESS:          0  dHIT:          0  dMISS:          0  itACCESS:          0  itHIT:          0  itMISS:          0  dtACCESS:          0  dtHIT:          0  dtMISS:          0
cpu0_STLB PREFETCH     ACCESS:          0  HIT:          0  MISS:          0  iACCESS:          0  iHIT:          0  iMISS:          0  dACCESS:          0  dHIT:          0  dMISS:          0  itACCESS:          0  itHIT:          0  itMISS:          0  dtACCESS:          0  dtHIT:          0  dtMISS:          0
cpu0_STLB WRITE        ACCESS:          0  HIT:          0  MISS:          0  iACCESS:          0  iHIT:          0  iMISS:          0  dACCESS:          0  dHIT:          0  dMISS:          0  itACCESS:          0  itHIT:          0  itMISS:          0  dtACCESS:          0  dtHIT:          0  dtMISS:          0
cpu0_STLB TRANSLATION  ACCESS:          0  HIT:          0  MISS:          0  iACCESS:          0  iHIT:          0  iMISS:          0  dACCESS:          0  dHIT:          0  dMISS:          0  itACCESS:          0  itHIT:          0  itMISS:          0  dtACCESS:          0  dtHIT:          0  dtMISS:          0
cpu0_STLB PREFETCH  REQUESTED:          0  ISSUED:          0  CROSSED:          0  USEFUL:          0  USELESS:          0
cpu0_STLB AVERAGE iMISS LATENCY: 40.1168 cycles
cpu0_STLB AVERAGE dMISS LATENCY: 120.677 cycles
cpu0_STLB AVERAGE itMISS LATENCY: 0 cycles
cpu0_STLB AVERAGE dtMISS LATENCY: 0 cycles
cpu0_STLB PAGE CROSSINGS (TLB HIT):         0 
cpu0_STLB PAGE CROSSINGS (TLB MISS):         0 
cpu0_STLB AVERAGE MISS LATENCY: 160.794 cycles
cpu0_L1D TOTAL       ACCESS:   50285479  HIT:   40808016  MISS:    9477463  iACCESS:          0  iHIT:          0  iMISS:          0  dACCESS:   49837481  dHIT:   40785195  dMISS:    9052286  itACCESS:     109397  itHIT:      10704  itMISS:      98693  dtACCESS:     338601  dtHIT:      12117  dtMISS:     326484
cpu0_L1D LOAD         ACCESS:   24081658  HIT:   19278038  MISS:    4803620  iACCESS:          0  iHIT:          0  iMISS:          0  dACCESS:   24081658  dHIT:   19278038  dMISS:    4803620  itACCESS:          0  itHIT:          0  itMISS:          0  dtACCESS:          0  dtHIT:          0  dtMISS:          0
cpu0_L1D RFO          ACCESS:          0  HIT:          0  MISS:          0  iACCESS:          0  iHIT:          0  iMISS:          0  dACCESS:          0  dHIT:          0  dMISS:          0  itACCESS:          0  itHIT:          0  itMISS:          0  dtACCESS:          0  dtHIT:          0  dtMISS:          0
cpu0_L1D PREFETCH     ACCESS:   15894551  HIT:   12429382  MISS:    3465169  iACCESS:          0  iHIT:          0  iMISS:          0  dACCESS:   15894551  dHIT:   12429382  dMISS:    3465169  itACCESS:          0  itHIT:          0  itMISS:          0  dtACCESS:          0  dtHIT:          0  dtMISS:          0
cpu0_L1D WRITE        ACCESS:    9861272  HIT:    9077775  MISS:     783497  iACCESS:          0  iHIT:          0  iMISS:          0  dACCESS:    9861272  dHIT:    9077775  dMISS:     783497  itACCESS:          0  itHIT:          0  itMISS:          0  dtACCESS:          0  dtHIT:          0  dtMISS:          0
cpu0_L1D TRANSLATION  ACCESS:     447998  HIT:      22821  MISS:     425177  iACCESS:          0  iHIT:          0  iMISS:          0  dACCESS:          0  dHIT:          0  dMISS:          0  itACCESS:     109397  itHIT:      10704  itMISS:      98693  dtACCESS:     338601  dtHIT:      12117  dtMISS:     326484
cpu0_L1D PREFETCH  REQUESTED:   24081658  ISSUED:   19734918  CROSSED:          0  USEFUL:     353504  USELESS:    1016739
cpu0_L1D AVERAGE iMISS LATENCY: 0 cycles
cpu0_L1D AVERAGE dMISS LATENCY: 30.1316 cycles
cpu0_L1D AVERAGE itMISS LATENCY: 1.0674 cycles
cpu0_L1D AVERAGE dtMISS LATENCY: 3.12507 cycles
cpu0_L1D PAGE CROSSINGS (TLB HIT):         0 
cpu0_L1D PAGE CROSSINGS (TLB MISS):         0 
cpu0_L1D AVERAGE MISS LATENCY: 34.3241 cycles
cpu0_L2C TOTAL       ACCESS:    9067494  HIT:    1923824  MISS:    7143670  iACCESS:    3114906  iHIT:     684393  iMISS:    2430513  dACCESS:    5599482  dHIT:    1107757  dMISS:    4491725  itACCESS:      88816  itHIT:      29473  itMISS:      59343  dtACCESS:     264290  dtHIT:     102201  dtMISS:     162089
cpu0_L2C LOAD         ACCESS:    3312682  HIT:     701433  MISS:    2611249  iACCESS:     695487  iHIT:     106360  iMISS:     589127  dACCESS:    2617195  dHIT:     595073  dMISS:    2022122  itACCESS:          0  itHIT:          0  itMISS:          0  dtACCESS:          0  dtHIT:          0  dtMISS:          0
cpu0_L2C RFO          ACCESS:     238322  HIT:      32597  MISS:     205725  iACCESS:          0  iHIT:          0  iMISS:          0  dACCESS:     238322  dHIT:      32597  dMISS:     205725  itACCESS:          0  itHIT:          0  itMISS:          0  dtACCESS:          0  dtHIT:          0  dtMISS:          0
cpu0_L2C PREFETCH     ACCESS:    4824869  HIT:     945817  MISS:    3879052  iACCESS:    2419419  iHIT:     578033  iMISS:    1841386  dACCESS:    2405450  dHIT:     367784  dMISS:    2037666  itACCESS:          0  itHIT:          0  itMISS:          0  dtACCESS:          0  dtHIT:          0  dtMISS:          0
cpu0_L2C WRITE        ACCESS:     338515  HIT:     112303  MISS:     226212  iACCESS:          0  iHIT:          0  iMISS:          0  dACCESS:     338515  dHIT:     112303  dMISS:     226212  itACCESS:          0  itHIT:          0  itMISS:          0  dtACCESS:          0  dtHIT:          0  dtMISS:          0
cpu0_L2C TRANSLATION  ACCESS:     353106  HIT:     131674  MISS:     221432  iACCESS:          0  iHIT:          0  iMISS:          0  dACCESS:          0  dHIT:          0  dMISS:          0  itACCESS:      88816  itHIT:      29473  itMISS:      59343  dtACCESS:     264290  dtHIT:     102201  dtMISS:     162089
cpu0_L2C PREFETCH  REQUESTED:    1220679  ISSUED:    1220676  CROSSED:          0  USEFUL:     319439  USELESS:     391029
cpu0_L2C AVERAGE iMISS LATENCY: 21.1066 cycles
cpu0_L2C AVERAGE dMISS LATENCY: 44.1347 cycles
cpu0_L2C AVERAGE itMISS LATENCY: 1.2956 cycles
cpu0_L2C AVERAGE dtMISS LATENCY: 3.78876 cycles
cpu0_L2C PAGE CROSSINGS (TLB HIT):         0 
cpu0_L2C PAGE CROSSINGS (TLB MISS):         0 
cpu0_L2C AVERAGE MISS LATENCY: 70.3256 cycles
LLC TOTAL       ACCESS:    7003979  HIT:    4832526  MISS:    2171453  iACCESS:    2362646  iHIT:    1696693  iMISS:     665953  dACCESS:    4419901  dHIT:    3083955  dMISS:    1335946  itACCESS:      59343  itHIT:      13573  itMISS:      45770  dtACCESS:     162089  dtHIT:      38305  dtMISS:     123784
LLC LOAD         ACCESS:    2604691  HIT:    2072144  MISS:     532547  iACCESS:     588060  iHIT:     448842  iMISS:     139218  dACCESS:    2016631  dHIT:    1623302  dMISS:     393329  itACCESS:          0  itHIT:          0  itMISS:          0  dtACCESS:          0  dtHIT:          0  dtMISS:          0
LLC RFO          ACCESS:     205702  HIT:     114195  MISS:      91507  iACCESS:          0  iHIT:          0  iMISS:          0  dACCESS:     205702  dHIT:     114195  dMISS:      91507  itACCESS:          0  itHIT:          0  itMISS:          0  dtACCESS:          0  dtHIT:          0  dtMISS:          0
LLC PREFETCH     ACCESS:    3714418  HIT:    2343451  MISS:    1370967  iACCESS:    1774586  iHIT:    1247851  iMISS:     526735  dACCESS:    1939832  dHIT:    1095600  dMISS:     844232  itACCESS:          0  itHIT:          0  itMISS:          0  dtACCESS:          0  dtHIT:          0  dtMISS:          0
LLC WRITE        ACCESS:     257736  HIT:     250858  MISS:       6878  iACCESS:          0  iHIT:          0  iMISS:          0  dACCESS:     257736  dHIT:     250858  dMISS:       6878  itACCESS:          0  itHIT:          0  itMISS:          0  dtACCESS:          0  dtHIT:          0  dtMISS:          0
LLC TRANSLATION  ACCESS:     221432  HIT:      51878  MISS:     169554  iACCESS:          0  iHIT:          0  iMISS:          0  dACCESS:          0  dHIT:          0  dMISS:          0  itACCESS:      59343  itHIT:      13573  itMISS:      45770  dtACCESS:     162089  dtHIT:      38305  dtMISS:     123784
LLC PREFETCH  REQUESTED:          0  ISSUED:          0  CROSSED:          0  USEFUL:          0  USELESS:          0
LLC AVERAGE iMISS LATENCY: 48.3097 cycles
LLC AVERAGE dMISS LATENCY: 108.651 cycles
LLC AVERAGE itMISS LATENCY: 3.72366 cycles
LLC AVERAGE dtMISS LATENCY: 10.9948 cycles
LLC PAGE CROSSINGS (TLB HIT):         0 
LLC PAGE CROSSINGS (TLB MISS):         0 
LLC AVERAGE MISS LATENCY: 171.679 cycles

PageTableWalker TOTAL       ACCESS:     178366  
PageTableWalker AVERAGE LATENCY: 5.95463 cycles
PageTableWalker TOTAL LATENCY: 1062102 cycles

DRAM Statistics
Channel 0
 RQ ROW_BUFFER_HIT:     480904
  ROW_BUFFER_MISS:    1669326
 AVG DBUS CONGESTED CYCLE:    3.65773
 WQ ROW_BUFFER_HIT:      55745
  ROW_BUFFER_MISS:      57972  FULL:          0

