last_page:0x200000000000000
VMEM_RES_CAP:0x100000
PAGE_SIZE:4096
LOG2_PAGE_SIZE:12
LOG2_PAGE_TABLE_SIZE:9
page_table_levels:5
WARNING: physical memory size is smaller than virtual memory size
FDiP enabled with aggresivity 16

*** ChampSim Multicore Out-of-Order Simulator ***

Warmup Instructions: 50000000
Simulation Instructions: 100000000
Number of CPUs: 1
Small page size: 4096
Large page size: 2097152

CPU 0 Bimodal branch predictor
Basic BTB sets: 1024 ways: 8 indirect buffer size: 4096 RAS size: 64
Instruction page size distrubution: 0
Loading instruction page size distribution from /home/bsc/bsc018186/scratch/itp_asplos25_AE/dump/smt_srv85_ap_srv495_ap_1024i.pdst
Data page size distrubution: 0
Loading data page size distribution from /home/bsc/bsc018186/scratch/itp_asplos25_AE/dump/smt_srv85_ap_srv495_ap_1024i.pdst
cpu0_L2C IP-based stride prefetcher
cpu0_L2C is using PTP replacement policy:
	TLB_STRESS_THRESHOLD:0
	PTE_EVICTION_RATIO:0
cpu0_L1D next line prefetcher
cpu0_L1I next line prefetcher
Off-chip DRAM Size: 4 GiB Channels: 1 Width: 64-bit Data Rate: 3200 MT/s
Heartbeat CPU 0 instructions: 10000003 cycles: 2500415 heartbeat IPC: 3.99934 cumulative IPC: 3.99934 (Simulation time: 0 hr 0 min 41 sec) 
Heartbeat CPU 0 instructions: 20000003 cycles: 5000628 heartbeat IPC: 3.99966 cumulative IPC: 3.9995 (Simulation time: 0 hr 1 min 23 sec) 
Heartbeat CPU 0 instructions: 30000003 cycles: 7500914 heartbeat IPC: 3.99955 cumulative IPC: 3.99952 (Simulation time: 0 hr 2 min 7 sec) 
Heartbeat CPU 0 instructions: 40000002 cycles: 10001238 heartbeat IPC: 3.99949 cumulative IPC: 3.99951 (Simulation time: 0 hr 2 min 50 sec) 
Heartbeat CPU 0 instructions: 50000001 cycles: 12501544 heartbeat IPC: 3.99952 cumulative IPC: 3.99951 (Simulation time: 0 hr 3 min 35 sec) 
Warmup finished CPU 0 instructions: 50000001 cycles: 12501545 cumulative IPC: 3.99951 (Simulation time: 0 hr 3 min 35 sec) 

Warmup complete CPU 0 instructions: 50000001 cycles: 12501545 (Simulation time: 0 hr 3 min 35 sec) 

Heartbeat CPU 0 instructions: 60000001 cycles: 43642991 heartbeat IPC: 0.321116 cumulative IPC: 0.321116 (Simulation time: 0 hr 5 min 7 sec) 
Heartbeat CPU 0 instructions: 70000003 cycles: 74933103 heartbeat IPC: 0.31959 cumulative IPC: 0.320351 (Simulation time: 0 hr 6 min 37 sec) 
Heartbeat CPU 0 instructions: 80000000 cycles: 106280540 heartbeat IPC: 0.319006 cumulative IPC: 0.319902 (Simulation time: 0 hr 8 min 6 sec) 
Heartbeat CPU 0 instructions: 90000002 cycles: 137628553 heartbeat IPC: 0.319 cumulative IPC: 0.319676 (Simulation time: 0 hr 9 min 36 sec) 
Heartbeat CPU 0 instructions: 100000000 cycles: 168364503 heartbeat IPC: 0.325352 cumulative IPC: 0.320795 (Simulation time: 0 hr 11 min 3 sec) 
Heartbeat CPU 0 instructions: 110000000 cycles: 199858182 heartbeat IPC: 0.317525 cumulative IPC: 0.320245 (Simulation time: 0 hr 12 min 32 sec) 
Heartbeat CPU 0 instructions: 120000000 cycles: 230262909 heartbeat IPC: 0.328897 cumulative IPC: 0.321453 (Simulation time: 0 hr 13 min 59 sec) 
Heartbeat CPU 0 instructions: 130000002 cycles: 261194701 heartbeat IPC: 0.323293 cumulative IPC: 0.321682 (Simulation time: 0 hr 15 min 26 sec) 
Heartbeat CPU 0 instructions: 140000004 cycles: 291854407 heartbeat IPC: 0.326162 cumulative IPC: 0.322174 (Simulation time: 0 hr 16 min 54 sec) 
Heartbeat CPU 0 instructions: 150000000 cycles: 322627013 heartbeat IPC: 0.324965 cumulative IPC: 0.322451 (Simulation time: 0 hr 18 min 22 sec) 
Simulation finished CPU 0 instructions: 100000004 cycles: 310125470 cumulative IPC: 0.322451 (Simulation time: 0 hr 18 min 22 sec) 

Simulation complete CPU 0 instructions: 100000004 cycles: 310125470 (Simulation time: 0 hr 18 min 22 sec) 


ChampSim completed all CPUs

Saving instructions large page distribution to /home/bsc/bsc018186/scratch/itp_asplos25_AE/dump/smt_srv85_ap_srv495_ap_1024i.pdst...
Saving data large page distribution to /home/bsc/bsc018186/scratch/itp_asplos25_AE/dump/smt_srv85_ap_srv495_ap_1024i.pdst...
=== Simulation ===
CPU 0 runs /gpfs/projects/bsc18/MN4/bsc18/romol/ChampSim/traces/qualcomm_srv/smt_srv85_ap_srv495_ap_1024i.champsimtrace.xz

Region of Interest Statistics

CPU 0 cumulative IPC: 0.322451 instructions: 100000004 cycles: 310125470
CPU 0 Branch Prediction Accuracy: 74.693% MPKI: 45.6057 Average ROB Occupancy at Mispredict: 10.6322
Branch type MPKI
BRANCH_DIRECT_JUMP: 1.43109
BRANCH_INDIRECT: 23.5974
BRANCH_CONDITIONAL: 13.2603
BRANCH_DIRECT_CALL: 2.72313
BRANCH_INDIRECT_CALL: 1.02023
BRANCH_RETURN: 3.57353

Instructions large pages: 0
Instructions small pages: 9904
Large page distribution for instructions: 0%

Data large pages: 0
Data small pages: 8542
Large page distribution for data: 0%

cpu0_L1I TOTAL       ACCESS:   39471011  HIT:   30632765  MISS:    8838246  iACCESS:   39471011  iHIT:   30632765  iMISS:    8838246  dACCESS:          0  dHIT:          0  dMISS:          0  itACCESS:          0  itHIT:          0  itMISS:          0  dtACCESS:          0  dtHIT:          0  dtMISS:          0
cpu0_L1I LOAD         ACCESS:   11827423  HIT:    9427579  MISS:    2399844  iACCESS:   11827423  iHIT:    9427579  iMISS:    2399844  dACCESS:          0  dHIT:          0  dMISS:          0  itACCESS:          0  itHIT:          0  itMISS:          0  dtACCESS:          0  dtHIT:          0  dtMISS:          0
cpu0_L1I RFO          ACCESS:          0  HIT:          0  MISS:          0  iACCESS:          0  iHIT:          0  iMISS:          0  dACCESS:          0  dHIT:          0  dMISS:          0  itACCESS:          0  itHIT:          0  itMISS:          0  dtACCESS:          0  dtHIT:          0  dtMISS:          0
cpu0_L1I PREFETCH     ACCESS:   27643588  HIT:   21205186  MISS:    6438402  iACCESS:   27643588  iHIT:   21205186  iMISS:    6438402  dACCESS:          0  dHIT:          0  dMISS:          0  itACCESS:          0  itHIT:          0  itMISS:          0  dtACCESS:          0  dtHIT:          0  dtMISS:          0
cpu0_L1I WRITE        ACCESS:          0  HIT:          0  MISS:          0  iACCESS:          0  iHIT:          0  iMISS:          0  dACCESS:          0  dHIT:          0  dMISS:          0  itACCESS:          0  itHIT:          0  itMISS:          0  dtACCESS:          0  dtHIT:          0  dtMISS:          0
cpu0_L1I TRANSLATION  ACCESS:          0  HIT:          0  MISS:          0  iACCESS:          0  iHIT:          0  iMISS:          0  dACCESS:          0  dHIT:          0  dMISS:          0  itACCESS:          0  itHIT:          0  itMISS:          0  dtACCESS:          0  dtHIT:          0  dtMISS:          0
cpu0_L1I PREFETCH  REQUESTED:   30468866  ISSUED:   30468622  CROSSED:          0  USEFUL:    2243180  USELESS:     780720
cpu0_L1I AVERAGE iMISS LATENCY: 24.8724 cycles
cpu0_L1I AVERAGE dMISS LATENCY: 0 cycles
cpu0_L1I AVERAGE itMISS LATENCY: 0 cycles
cpu0_L1I AVERAGE dtMISS LATENCY: 0 cycles
cpu0_L1I PAGE CROSSINGS (TLB HIT):         0 
cpu0_L1I PAGE CROSSINGS (TLB MISS):         0 
cpu0_L1I AVERAGE MISS LATENCY: 24.8724 cycles
cpu0_ITLB TOTAL       ACCESS:   33440308  HIT:   31168116  MISS:    2272192  iACCESS:   33440308  iHIT:   31168116  iMISS:    2272192  dACCESS:          0  dHIT:          0  dMISS:          0  itACCESS:          0  itHIT:          0  itMISS:          0  dtACCESS:          0  dtHIT:          0  dtMISS:          0
cpu0_ITLB LOAD         ACCESS:   33440308  HIT:   31168116  MISS:    2272192  iACCESS:   33440308  iHIT:   31168116  iMISS:    2272192  dACCESS:          0  dHIT:          0  dMISS:          0  itACCESS:          0  itHIT:          0  itMISS:          0  dtACCESS:          0  dtHIT:          0  dtMISS:          0
cpu0_ITLB RFO          ACCESS:          0  HIT:          0  MISS:          0  iACCESS:          0  iHIT:          0  iMISS:          0  dACCESS:          0  dHIT:          0  dMISS:          0  itACCESS:          0  itHIT:          0  itMISS:          0  dtACCESS:          0  dtHIT:          0  dtMISS:          0
cpu0_ITLB PREFETCH     ACCESS:          0  HIT:          0  MISS:          0  iACCESS:          0  iHIT:          0  iMISS:          0  dACCESS:          0  dHIT:          0  dMISS:          0  itACCESS:          0  itHIT:          0  itMISS:          0  dtACCESS:          0  dtHIT:          0  dtMISS:          0
cpu0_ITLB WRITE        ACCESS:          0  HIT:          0  MISS:          0  iACCESS:          0  iHIT:          0  iMISS:          0  dACCESS:          0  dHIT:          0  dMISS:          0  itACCESS:          0  itHIT:          0  itMISS:          0  dtACCESS:          0  dtHIT:          0  dtMISS:          0
cpu0_ITLB TRANSLATION  ACCESS:          0  HIT:          0  MISS:          0  iACCESS:          0  iHIT:          0  iMISS:          0  dACCESS:          0  dHIT:          0  dMISS:          0  itACCESS:          0  itHIT:          0  itMISS:          0  dtACCESS:          0  dtHIT:          0  dtMISS:          0
cpu0_ITLB PREFETCH  REQUESTED:          0  ISSUED:          0  CROSSED:          0  USEFUL:     397394  USELESS:      81019
cpu0_ITLB AVERAGE iMISS LATENCY: 10.5555 cycles
cpu0_ITLB AVERAGE dMISS LATENCY: 0 cycles
cpu0_ITLB AVERAGE itMISS LATENCY: 0 cycles
cpu0_ITLB AVERAGE dtMISS LATENCY: 0 cycles
cpu0_ITLB PAGE CROSSINGS (TLB HIT):         0 
cpu0_ITLB PAGE CROSSINGS (TLB MISS):         0 
cpu0_ITLB AVERAGE MISS LATENCY: 10.5555 cycles
cpu0_DTLB TOTAL       ACCESS:   28887579  HIT:   25253945  MISS:    3633634  iACCESS:          0  iHIT:          0  iMISS:          0  dACCESS:   28887579  dHIT:   25253945  dMISS:    3633634  itACCESS:          0  itHIT:          0  itMISS:          0  dtACCESS:          0  dtHIT:          0  dtMISS:          0
cpu0_DTLB LOAD         ACCESS:   28887579  HIT:   25253945  MISS:    3633634  iACCESS:          0  iHIT:          0  iMISS:          0  dACCESS:   28887579  dHIT:   25253945  dMISS:    3633634  itACCESS:          0  itHIT:          0  itMISS:          0  dtACCESS:          0  dtHIT:          0  dtMISS:          0
cpu0_DTLB RFO          ACCESS:          0  HIT:          0  MISS:          0  iACCESS:          0  iHIT:          0  iMISS:          0  dACCESS:          0  dHIT:          0  dMISS:          0  itACCESS:          0  itHIT:          0  itMISS:          0  dtACCESS:          0  dtHIT:          0  dtMISS:          0
cpu0_DTLB PREFETCH     ACCESS:          0  HIT:          0  MISS:          0  iACCESS:          0  iHIT:          0  iMISS:          0  dACCESS:          0  dHIT:          0  dMISS:          0  itACCESS:          0  itHIT:          0  itMISS:          0  dtACCESS:          0  dtHIT:          0  dtMISS:          0
cpu0_DTLB WRITE        ACCESS:          0  HIT:          0  MISS:          0  iACCESS:          0  iHIT:          0  iMISS:          0  dACCESS:          0  dHIT:          0  dMISS:          0  itACCESS:          0  itHIT:          0  itMISS:          0  dtACCESS:          0  dtHIT:          0  dtMISS:          0
cpu0_DTLB TRANSLATION  ACCESS:          0  HIT:          0  MISS:          0  iACCESS:          0  iHIT:          0  iMISS:          0  dACCESS:          0  dHIT:          0  dMISS:          0  itACCESS:          0  itHIT:          0  itMISS:          0  dtACCESS:          0  dtHIT:          0  dtMISS:          0
cpu0_DTLB PREFETCH  REQUESTED:          0  ISSUED:          0  CROSSED:          0  USEFUL:          0  USELESS:          0
cpu0_DTLB AVERAGE iMISS LATENCY: 0 cycles
cpu0_DTLB AVERAGE dMISS LATENCY: 25.6487 cycles
cpu0_DTLB AVERAGE itMISS LATENCY: 0 cycles
cpu0_DTLB AVERAGE dtMISS LATENCY: 0 cycles
cpu0_DTLB PAGE CROSSINGS (TLB HIT):         0 
cpu0_DTLB PAGE CROSSINGS (TLB MISS):         0 
cpu0_DTLB AVERAGE MISS LATENCY: 25.6487 cycles
cpu0_STLB TOTAL       ACCESS:    2612194  HIT:    2219435  MISS:     392759  iACCESS:     478410  iHIT:     358802  iMISS:     119608  dACCESS:    2133784  dHIT:    1860633  dMISS:     273151  itACCESS:          0  itHIT:          0  itMISS:          0  dtACCESS:          0  dtHIT:          0  dtMISS:          0
cpu0_STLB LOAD         ACCESS:    2612194  HIT:    2219435  MISS:     392759  iACCESS:     478410  iHIT:     358802  iMISS:     119608  dACCESS:    2133784  dHIT:    1860633  dMISS:     273151  itACCESS:          0  itHIT:          0  itMISS:          0  dtACCESS:          0  dtHIT:          0  dtMISS:          0
cpu0_STLB RFO          ACCESS:          0  HIT:          0  MISS:          0  iACCESS:          0  iHIT:          0  iMISS:          0  dACCESS:          0  dHIT:          0  dMISS:          0  itACCESS:          0  itHIT:          0  itMISS:          0  dtACCESS:          0  dtHIT:          0  dtMISS:          0
cpu0_STLB PREFETCH     ACCESS:          0  HIT:          0  MISS:          0  iACCESS:          0  iHIT:          0  iMISS:          0  dACCESS:          0  dHIT:          0  dMISS:          0  itACCESS:          0  itHIT:          0  itMISS:          0  dtACCESS:          0  dtHIT:          0  dtMISS:          0
cpu0_STLB WRITE        ACCESS:          0  HIT:          0  MISS:          0  iACCESS:          0  iHIT:          0  iMISS:          0  dACCESS:          0  dHIT:          0  dMISS:          0  itACCESS:          0  itHIT:          0  itMISS:          0  dtACCESS:          0  dtHIT:          0  dtMISS:          0
cpu0_STLB TRANSLATION  ACCESS:          0  HIT:          0  MISS:          0  iACCESS:          0  iHIT:          0  iMISS:          0  dACCESS:          0  dHIT:          0  dMISS:          0  itACCESS:          0  itHIT:          0  itMISS:          0  dtACCESS:          0  dtHIT:          0  dtMISS:          0
cpu0_STLB PREFETCH  REQUESTED:          0  ISSUED:          0  CROSSED:          0  USEFUL:          0  USELESS:          0
cpu0_STLB AVERAGE iMISS LATENCY: 51.3119 cycles
cpu0_STLB AVERAGE dMISS LATENCY: 193.547 cycles
cpu0_STLB AVERAGE itMISS LATENCY: 0 cycles
cpu0_STLB AVERAGE dtMISS LATENCY: 0 cycles
cpu0_STLB PAGE CROSSINGS (TLB HIT):         0 
cpu0_STLB PAGE CROSSINGS (TLB MISS):         0 
cpu0_STLB AVERAGE MISS LATENCY: 244.859 cycles
cpu0_L1D TOTAL       ACCESS:   45157319  HIT:   39278706  MISS:    5878613  iACCESS:          0  iHIT:          0  iMISS:          0  dACCESS:   44585298  dHIT:   39245005  dMISS:    5340293  itACCESS:     133664  itHIT:      14757  itMISS:     118907  dtACCESS:     438357  dtHIT:      18944  dtMISS:     419413
cpu0_L1D LOAD         ACCESS:   20328628  HIT:   17929833  MISS:    2398795  iACCESS:          0  iHIT:          0  iMISS:          0  dACCESS:   20328628  dHIT:   17929833  dMISS:    2398795  itACCESS:          0  itHIT:          0  itMISS:          0  dtACCESS:          0  dtHIT:          0  dtMISS:          0
cpu0_L1D RFO          ACCESS:          0  HIT:          0  MISS:          0  iACCESS:          0  iHIT:          0  iMISS:          0  dACCESS:          0  dHIT:          0  dMISS:          0  itACCESS:          0  itHIT:          0  itMISS:          0  dtACCESS:          0  dtHIT:          0  dtMISS:          0
cpu0_L1D PREFETCH     ACCESS:   14105884  HIT:   11741680  MISS:    2364204  iACCESS:          0  iHIT:          0  iMISS:          0  dACCESS:   14105884  dHIT:   11741680  dMISS:    2364204  itACCESS:          0  itHIT:          0  itMISS:          0  dtACCESS:          0  dtHIT:          0  dtMISS:          0
cpu0_L1D WRITE        ACCESS:   10150786  HIT:    9573492  MISS:     577294  iACCESS:          0  iHIT:          0  iMISS:          0  dACCESS:   10150786  dHIT:    9573492  dMISS:     577294  itACCESS:          0  itHIT:          0  itMISS:          0  dtACCESS:          0  dtHIT:          0  dtMISS:          0
cpu0_L1D TRANSLATION  ACCESS:     572021  HIT:      33701  MISS:     538320  iACCESS:          0  iHIT:          0  iMISS:          0  dACCESS:          0  dHIT:          0  dMISS:          0  itACCESS:     133664  itHIT:      14757  itMISS:     118907  dtACCESS:     438357  dtHIT:      18944  dtMISS:     419413
cpu0_L1D PREFETCH  REQUESTED:   20328628  ISSUED:   18566101  CROSSED:          0  USEFUL:     361543  USELESS:     941976
cpu0_L1D AVERAGE iMISS LATENCY: 0 cycles
cpu0_L1D AVERAGE dMISS LATENCY: 49.8253 cycles
cpu0_L1D AVERAGE itMISS LATENCY: 3.23983 cycles
cpu0_L1D AVERAGE dtMISS LATENCY: 12.1319 cycles
cpu0_L1D PAGE CROSSINGS (TLB HIT):         0 
cpu0_L1D PAGE CROSSINGS (TLB MISS):         0 
cpu0_L1D AVERAGE MISS LATENCY: 65.1969 cycles
cpu0_L2C TOTAL       ACCESS:    8760028  HIT:    4104266  MISS:    4655762  iACCESS:    3843952  iHIT:    2254869  iMISS:    1589083  dACCESS:    4408770  dHIT:    1785318  dMISS:    2623452  itACCESS:     118540  itHIT:      21670  itMISS:      96870  dtACCESS:     388766  dtHIT:      42409  dtMISS:     346357
cpu0_L2C LOAD         ACCESS:    2083079  HIT:     975110  MISS:    1107969  iACCESS:     857767  iHIT:     518829  iMISS:     338938  dACCESS:    1225312  dHIT:     456281  dMISS:     769031  itACCESS:          0  itHIT:          0  itMISS:          0  dtACCESS:          0  dtHIT:          0  dtMISS:          0
cpu0_L2C RFO          ACCESS:     215437  HIT:      79715  MISS:     135722  iACCESS:          0  iHIT:          0  iMISS:          0  dACCESS:     215437  dHIT:      79715  dMISS:     135722  itACCESS:          0  itHIT:          0  itMISS:          0  dtACCESS:          0  dtHIT:          0  dtMISS:          0
cpu0_L2C PREFETCH     ACCESS:    5608646  HIT:    2652270  MISS:    2956376  iACCESS:    2986185  iHIT:    1736040  iMISS:    1250145  dACCESS:    2622461  dHIT:     916230  dMISS:    1706231  itACCESS:          0  itHIT:          0  itMISS:          0  dtACCESS:          0  dtHIT:          0  dtMISS:          0
cpu0_L2C WRITE        ACCESS:     345560  HIT:     333092  MISS:      12468  iACCESS:          0  iHIT:          0  iMISS:          0  dACCESS:     345560  dHIT:     333092  dMISS:      12468  itACCESS:          0  itHIT:          0  itMISS:          0  dtACCESS:          0  dtHIT:          0  dtMISS:          0
cpu0_L2C TRANSLATION  ACCESS:     507306  HIT:      64079  MISS:     443227  iACCESS:          0  iHIT:          0  iMISS:          0  dACCESS:          0  dHIT:          0  dMISS:          0  itACCESS:     118540  itHIT:      21670  itMISS:      96870  dtACCESS:     388766  dtHIT:      42409  dtMISS:     346357
cpu0_L2C PREFETCH  REQUESTED:    1564870  ISSUED:    1564870  CROSSED:          0  USEFUL:     367389  USELESS:     341101
cpu0_L2C AVERAGE iMISS LATENCY: 40.3337 cycles
cpu0_L2C AVERAGE dMISS LATENCY: 78.46 cycles
cpu0_L2C AVERAGE itMISS LATENCY: 3.84007 cycles
cpu0_L2C AVERAGE dtMISS LATENCY: 14.4877 cycles
cpu0_L2C PAGE CROSSINGS (TLB HIT):         0 
cpu0_L2C PAGE CROSSINGS (TLB MISS):         0 
cpu0_L2C AVERAGE MISS LATENCY: 137.122 cycles
LLC TOTAL       ACCESS:    4633933  HIT:    1417628  MISS:    3216305  iACCESS:    1494464  iHIT:     490696  iMISS:    1003768  dACCESS:    2696242  dHIT:     885155  dMISS:    1811087  itACCESS:      96870  itHIT:       7461  itMISS:      89409  dtACCESS:     346357  dtHIT:      34316  dtMISS:     312041
LLC LOAD         ACCESS:    1100441  HIT:     359705  MISS:     740736  iACCESS:     337640  iHIT:     123069  iMISS:     214571  dACCESS:     762801  dHIT:     236636  dMISS:     526165  itACCESS:          0  itHIT:          0  itMISS:          0  dtACCESS:          0  dtHIT:          0  dtMISS:          0
LLC RFO          ACCESS:     135718  HIT:      41403  MISS:      94315  iACCESS:          0  iHIT:          0  iMISS:          0  dACCESS:     135718  dHIT:      41403  dMISS:      94315  itACCESS:          0  itHIT:          0  itMISS:          0  dtACCESS:          0  dtHIT:          0  dtMISS:          0
LLC PREFETCH     ACCESS:    2736010  HIT:     766770  MISS:    1969240  iACCESS:    1156824  iHIT:     367627  iMISS:     789197  dACCESS:    1579186  dHIT:     399143  dMISS:    1180043  itACCESS:          0  itHIT:          0  itMISS:          0  dtACCESS:          0  dtHIT:          0  dtMISS:          0
LLC WRITE        ACCESS:     218537  HIT:     207973  MISS:      10564  iACCESS:          0  iHIT:          0  iMISS:          0  dACCESS:     218537  dHIT:     207973  dMISS:      10564  itACCESS:          0  itHIT:          0  itMISS:          0  dtACCESS:          0  dtHIT:          0  dtMISS:          0
LLC TRANSLATION  ACCESS:     443227  HIT:      41777  MISS:     401450  iACCESS:          0  iHIT:          0  iMISS:          0  dACCESS:          0  dHIT:          0  dMISS:          0  itACCESS:      96870  itHIT:       7461  itMISS:      89409  dtACCESS:     346357  dtHIT:      34316  dtMISS:     312041
LLC PREFETCH  REQUESTED:          0  ISSUED:          0  CROSSED:          0  USEFUL:          0  USELESS:          0
LLC AVERAGE iMISS LATENCY: 49.235 cycles
LLC AVERAGE dMISS LATENCY: 99.3503 cycles
LLC AVERAGE itMISS LATENCY: 4.9613 cycles
LLC AVERAGE dtMISS LATENCY: 18.8421 cycles
LLC PAGE CROSSINGS (TLB HIT):         0 
LLC PAGE CROSSINGS (TLB MISS):         0 
LLC AVERAGE MISS LATENCY: 172.389 cycles

PageTableWalker TOTAL       ACCESS:     197687  
PageTableWalker AVERAGE LATENCY: 6.40527 cycles
PageTableWalker TOTAL LATENCY: 1266238 cycles

DRAM Statistics
Channel 0
 RQ ROW_BUFFER_HIT:     683581
  ROW_BUFFER_MISS:    2502256
 AVG DBUS CONGESTED CYCLE:    3.64832
 WQ ROW_BUFFER_HIT:      69154
  ROW_BUFFER_MISS:      58044  FULL:          0

