last_page:0x200000000000000
VMEM_RES_CAP:0x100000
PAGE_SIZE:4096
LOG2_PAGE_SIZE:12
LOG2_PAGE_TABLE_SIZE:9
page_table_levels:5
WARNING: physical memory size is smaller than virtual memory size
FDiP enabled with aggresivity 16

*** ChampSim Multicore Out-of-Order Simulator ***

Warmup Instructions: 50000000
Simulation Instructions: 100000000
Number of CPUs: 1
Small page size: 4096
Large page size: 2097152

CPU 0 Bimodal branch predictor
Basic BTB sets: 1024 ways: 8 indirect buffer size: 4096 RAS size: 64
Instruction page size distrubution: 0
Loading instruction page size distribution from /home/bsc/bsc018186/scratch/itp_asplos25_AE/dump/smt_srv537_ap_srv298_ap_1024i.pdst
Data page size distrubution: 0
Loading data page size distribution from /home/bsc/bsc018186/scratch/itp_asplos25_AE/dump/smt_srv537_ap_srv298_ap_1024i.pdst
cpu0_L2C IP-based stride prefetcher
cpu0_L1D next line prefetcher
cpu0_L1I next line prefetcher
Off-chip DRAM Size: 4 GiB Channels: 1 Width: 64-bit Data Rate: 3200 MT/s
Heartbeat CPU 0 instructions: 10000000 cycles: 2500401 heartbeat IPC: 3.99936 cumulative IPC: 3.99936 (Simulation time: 0 hr 0 min 43 sec) 
Heartbeat CPU 0 instructions: 20000000 cycles: 5000533 heartbeat IPC: 3.99979 cumulative IPC: 3.99958 (Simulation time: 0 hr 1 min 27 sec) 
Heartbeat CPU 0 instructions: 30000003 cycles: 7500706 heartbeat IPC: 3.99973 cumulative IPC: 3.99963 (Simulation time: 0 hr 2 min 10 sec) 
Heartbeat CPU 0 instructions: 40000002 cycles: 10000798 heartbeat IPC: 3.99986 cumulative IPC: 3.99969 (Simulation time: 0 hr 2 min 56 sec) 
Heartbeat CPU 0 instructions: 50000003 cycles: 12501154 heartbeat IPC: 3.99944 cumulative IPC: 3.99964 (Simulation time: 0 hr 3 min 41 sec) 
Warmup finished CPU 0 instructions: 50000003 cycles: 12501155 cumulative IPC: 3.99964 (Simulation time: 0 hr 3 min 41 sec) 

Warmup complete CPU 0 instructions: 50000003 cycles: 12501155 (Simulation time: 0 hr 3 min 41 sec) 

Heartbeat CPU 0 instructions: 60000003 cycles: 38485243 heartbeat IPC: 0.384851 cumulative IPC: 0.384851 (Simulation time: 0 hr 5 min 9 sec) 
Heartbeat CPU 0 instructions: 70000001 cycles: 63789269 heartbeat IPC: 0.395194 cumulative IPC: 0.389954 (Simulation time: 0 hr 6 min 34 sec) 
Heartbeat CPU 0 instructions: 80000001 cycles: 88893438 heartbeat IPC: 0.398341 cumulative IPC: 0.39271 (Simulation time: 0 hr 7 min 58 sec) 
Heartbeat CPU 0 instructions: 90000000 cycles: 114480717 heartbeat IPC: 0.39082 cumulative IPC: 0.392236 (Simulation time: 0 hr 9 min 21 sec) 
Heartbeat CPU 0 instructions: 100000003 cycles: 139915821 heartbeat IPC: 0.393158 cumulative IPC: 0.39242 (Simulation time: 0 hr 10 min 45 sec) 
Heartbeat CPU 0 instructions: 110000003 cycles: 166736367 heartbeat IPC: 0.372849 cumulative IPC: 0.389017 (Simulation time: 0 hr 12 min 9 sec) 
Heartbeat CPU 0 instructions: 120000000 cycles: 192024259 heartbeat IPC: 0.395447 cumulative IPC: 0.389922 (Simulation time: 0 hr 13 min 32 sec) 
Heartbeat CPU 0 instructions: 130000003 cycles: 218635788 heartbeat IPC: 0.375778 cumulative IPC: 0.388096 (Simulation time: 0 hr 14 min 56 sec) 
Heartbeat CPU 0 instructions: 140000003 cycles: 244777819 heartbeat IPC: 0.382526 cumulative IPC: 0.387469 (Simulation time: 0 hr 16 min 19 sec) 
Heartbeat CPU 0 instructions: 150000003 cycles: 271093622 heartbeat IPC: 0.38 cumulative IPC: 0.386709 (Simulation time: 0 hr 17 min 44 sec) 
Simulation finished CPU 0 instructions: 100000000 cycles: 258592468 cumulative IPC: 0.386709 (Simulation time: 0 hr 17 min 44 sec) 

Simulation complete CPU 0 instructions: 100000000 cycles: 258592468 (Simulation time: 0 hr 17 min 44 sec) 


ChampSim completed all CPUs

Saving instructions large page distribution to /home/bsc/bsc018186/scratch/itp_asplos25_AE/dump/smt_srv537_ap_srv298_ap_1024i.pdst...
Saving data large page distribution to /home/bsc/bsc018186/scratch/itp_asplos25_AE/dump/smt_srv537_ap_srv298_ap_1024i.pdst...
=== Simulation ===
CPU 0 runs /gpfs/projects/bsc18/MN4/bsc18/romol/ChampSim/traces/qualcomm_srv/smt_srv537_ap_srv298_ap_1024i.champsimtrace.xz

Region of Interest Statistics

CPU 0 cumulative IPC: 0.386709 instructions: 100000000 cycles: 258592468
CPU 0 Branch Prediction Accuracy: 76.2198% MPKI: 42.8862 Average ROB Occupancy at Mispredict: 10.9909
Branch type MPKI
BRANCH_DIRECT_JUMP: 1.26172
BRANCH_INDIRECT: 22.4047
BRANCH_CONDITIONAL: 12.4369
BRANCH_DIRECT_CALL: 2.43831
BRANCH_INDIRECT_CALL: 0.944601
BRANCH_RETURN: 3.40007

Instructions large pages: 0
Instructions small pages: 13840
Large page distribution for instructions: 0%

Data large pages: 0
Data small pages: 12554
Large page distribution for data: 0%

cpu0_L1I TOTAL       ACCESS:   39454195  HIT:   30226596  MISS:    9227599  iACCESS:   39454195  iHIT:   30226596  iMISS:    9227599  dACCESS:          0  dHIT:          0  dMISS:          0  itACCESS:          0  itHIT:          0  itMISS:          0  dtACCESS:          0  dtHIT:          0  dtMISS:          0
cpu0_L1I LOAD         ACCESS:   11830921  HIT:    9313531  MISS:    2517390  iACCESS:   11830921  iHIT:    9313531  iMISS:    2517390  dACCESS:          0  dHIT:          0  dMISS:          0  itACCESS:          0  itHIT:          0  itMISS:          0  dtACCESS:          0  dtHIT:          0  dtMISS:          0
cpu0_L1I RFO          ACCESS:          0  HIT:          0  MISS:          0  iACCESS:          0  iHIT:          0  iMISS:          0  dACCESS:          0  dHIT:          0  dMISS:          0  itACCESS:          0  itHIT:          0  itMISS:          0  dtACCESS:          0  dtHIT:          0  dtMISS:          0
cpu0_L1I PREFETCH     ACCESS:   27623274  HIT:   20913065  MISS:    6710209  iACCESS:   27623274  iHIT:   20913065  iMISS:    6710209  dACCESS:          0  dHIT:          0  dMISS:          0  itACCESS:          0  itHIT:          0  itMISS:          0  dtACCESS:          0  dtHIT:          0  dtMISS:          0
cpu0_L1I WRITE        ACCESS:          0  HIT:          0  MISS:          0  iACCESS:          0  iHIT:          0  iMISS:          0  dACCESS:          0  dHIT:          0  dMISS:          0  itACCESS:          0  itHIT:          0  itMISS:          0  dtACCESS:          0  dtHIT:          0  dtMISS:          0
cpu0_L1I TRANSLATION  ACCESS:          0  HIT:          0  MISS:          0  iACCESS:          0  iHIT:          0  iMISS:          0  dACCESS:          0  dHIT:          0  dMISS:          0  itACCESS:          0  itHIT:          0  itMISS:          0  dtACCESS:          0  dtHIT:          0  dtMISS:          0
cpu0_L1I PREFETCH  REQUESTED:   30277473  ISSUED:   30276076  CROSSED:          0  USEFUL:    2199788  USELESS:     755545
cpu0_L1I AVERAGE iMISS LATENCY: 22.4055 cycles
cpu0_L1I AVERAGE dMISS LATENCY: 0 cycles
cpu0_L1I AVERAGE itMISS LATENCY: 0 cycles
cpu0_L1I AVERAGE dtMISS LATENCY: 0 cycles
cpu0_L1I PAGE CROSSINGS (TLB HIT):         0 
cpu0_L1I PAGE CROSSINGS (TLB MISS):         0 
cpu0_L1I AVERAGE MISS LATENCY: 22.4055 cycles
cpu0_ITLB TOTAL       ACCESS:   33069187  HIT:   30856573  MISS:    2212614  iACCESS:   33069187  iHIT:   30856573  iMISS:    2212614  dACCESS:          0  dHIT:          0  dMISS:          0  itACCESS:          0  itHIT:          0  itMISS:          0  dtACCESS:          0  dtHIT:          0  dtMISS:          0
cpu0_ITLB LOAD         ACCESS:   33069187  HIT:   30856573  MISS:    2212614  iACCESS:   33069187  iHIT:   30856573  iMISS:    2212614  dACCESS:          0  dHIT:          0  dMISS:          0  itACCESS:          0  itHIT:          0  itMISS:          0  dtACCESS:          0  dtHIT:          0  dtMISS:          0
cpu0_ITLB RFO          ACCESS:          0  HIT:          0  MISS:          0  iACCESS:          0  iHIT:          0  iMISS:          0  dACCESS:          0  dHIT:          0  dMISS:          0  itACCESS:          0  itHIT:          0  itMISS:          0  dtACCESS:          0  dtHIT:          0  dtMISS:          0
cpu0_ITLB PREFETCH     ACCESS:          0  HIT:          0  MISS:          0  iACCESS:          0  iHIT:          0  iMISS:          0  dACCESS:          0  dHIT:          0  dMISS:          0  itACCESS:          0  itHIT:          0  itMISS:          0  dtACCESS:          0  dtHIT:          0  dtMISS:          0
cpu0_ITLB WRITE        ACCESS:          0  HIT:          0  MISS:          0  iACCESS:          0  iHIT:          0  iMISS:          0  dACCESS:          0  dHIT:          0  dMISS:          0  itACCESS:          0  itHIT:          0  itMISS:          0  dtACCESS:          0  dtHIT:          0  dtMISS:          0
cpu0_ITLB TRANSLATION  ACCESS:          0  HIT:          0  MISS:          0  iACCESS:          0  iHIT:          0  iMISS:          0  dACCESS:          0  dHIT:          0  dMISS:          0  itACCESS:          0  itHIT:          0  itMISS:          0  dtACCESS:          0  dtHIT:          0  dtMISS:          0
cpu0_ITLB PREFETCH  REQUESTED:          0  ISSUED:          0  CROSSED:          0  USEFUL:     384642  USELESS:      77741
cpu0_ITLB AVERAGE iMISS LATENCY: 7.00234 cycles
cpu0_ITLB AVERAGE dMISS LATENCY: 0 cycles
cpu0_ITLB AVERAGE itMISS LATENCY: 0 cycles
cpu0_ITLB AVERAGE dtMISS LATENCY: 0 cycles
cpu0_ITLB PAGE CROSSINGS (TLB HIT):         0 
cpu0_ITLB PAGE CROSSINGS (TLB MISS):         0 
cpu0_ITLB AVERAGE MISS LATENCY: 7.00234 cycles
cpu0_DTLB TOTAL       ACCESS:   28789479  HIT:   25328271  MISS:    3461208  iACCESS:          0  iHIT:          0  iMISS:          0  dACCESS:   28789479  dHIT:   25328271  dMISS:    3461208  itACCESS:          0  itHIT:          0  itMISS:          0  dtACCESS:          0  dtHIT:          0  dtMISS:          0
cpu0_DTLB LOAD         ACCESS:   28789479  HIT:   25328271  MISS:    3461208  iACCESS:          0  iHIT:          0  iMISS:          0  dACCESS:   28789479  dHIT:   25328271  dMISS:    3461208  itACCESS:          0  itHIT:          0  itMISS:          0  dtACCESS:          0  dtHIT:          0  dtMISS:          0
cpu0_DTLB RFO          ACCESS:          0  HIT:          0  MISS:          0  iACCESS:          0  iHIT:          0  iMISS:          0  dACCESS:          0  dHIT:          0  dMISS:          0  itACCESS:          0  itHIT:          0  itMISS:          0  dtACCESS:          0  dtHIT:          0  dtMISS:          0
cpu0_DTLB PREFETCH     ACCESS:          0  HIT:          0  MISS:          0  iACCESS:          0  iHIT:          0  iMISS:          0  dACCESS:          0  dHIT:          0  dMISS:          0  itACCESS:          0  itHIT:          0  itMISS:          0  dtACCESS:          0  dtHIT:          0  dtMISS:          0
cpu0_DTLB WRITE        ACCESS:          0  HIT:          0  MISS:          0  iACCESS:          0  iHIT:          0  iMISS:          0  dACCESS:          0  dHIT:          0  dMISS:          0  itACCESS:          0  itHIT:          0  itMISS:          0  dtACCESS:          0  dtHIT:          0  dtMISS:          0
cpu0_DTLB TRANSLATION  ACCESS:          0  HIT:          0  MISS:          0  iACCESS:          0  iHIT:          0  iMISS:          0  dACCESS:          0  dHIT:          0  dMISS:          0  itACCESS:          0  itHIT:          0  itMISS:          0  dtACCESS:          0  dtHIT:          0  dtMISS:          0
cpu0_DTLB PREFETCH  REQUESTED:          0  ISSUED:          0  CROSSED:          0  USEFUL:          0  USELESS:          0
cpu0_DTLB AVERAGE iMISS LATENCY: 0 cycles
cpu0_DTLB AVERAGE dMISS LATENCY: 16.2128 cycles
cpu0_DTLB AVERAGE itMISS LATENCY: 0 cycles
cpu0_DTLB AVERAGE dtMISS LATENCY: 0 cycles
cpu0_DTLB PAGE CROSSINGS (TLB HIT):         0 
cpu0_DTLB PAGE CROSSINGS (TLB MISS):         0 
cpu0_DTLB AVERAGE MISS LATENCY: 16.2128 cycles
cpu0_STLB TOTAL       ACCESS:    2430988  HIT:    2089660  MISS:     341328  iACCESS:     462398  iHIT:     358078  iMISS:     104320  dACCESS:    1968590  dHIT:    1731582  dMISS:     237008  itACCESS:          0  itHIT:          0  itMISS:          0  dtACCESS:          0  dtHIT:          0  dtMISS:          0
cpu0_STLB LOAD         ACCESS:    2430988  HIT:    2089660  MISS:     341328  iACCESS:     462398  iHIT:     358078  iMISS:     104320  dACCESS:    1968590  dHIT:    1731582  dMISS:     237008  itACCESS:          0  itHIT:          0  itMISS:          0  dtACCESS:          0  dtHIT:          0  dtMISS:          0
cpu0_STLB RFO          ACCESS:          0  HIT:          0  MISS:          0  iACCESS:          0  iHIT:          0  iMISS:          0  dACCESS:          0  dHIT:          0  dMISS:          0  itACCESS:          0  itHIT:          0  itMISS:          0  dtACCESS:          0  dtHIT:          0  dtMISS:          0
cpu0_STLB PREFETCH     ACCESS:          0  HIT:          0  MISS:          0  iACCESS:          0  iHIT:          0  iMISS:          0  dACCESS:          0  dHIT:          0  dMISS:          0  itACCESS:          0  itHIT:          0  itMISS:          0  dtACCESS:          0  dtHIT:          0  dtMISS:          0
cpu0_STLB WRITE        ACCESS:          0  HIT:          0  MISS:          0  iACCESS:          0  iHIT:          0  iMISS:          0  dACCESS:          0  dHIT:          0  dMISS:          0  itACCESS:          0  itHIT:          0  itMISS:          0  dtACCESS:          0  dtHIT:          0  dtMISS:          0
cpu0_STLB TRANSLATION  ACCESS:          0  HIT:          0  MISS:          0  iACCESS:          0  iHIT:          0  iMISS:          0  dACCESS:          0  dHIT:          0  dMISS:          0  itACCESS:          0  itHIT:          0  itMISS:          0  dtACCESS:          0  dtHIT:          0  dtMISS:          0
cpu0_STLB PREFETCH  REQUESTED:          0  ISSUED:          0  CROSSED:          0  USEFUL:          0  USELESS:          0
cpu0_STLB AVERAGE iMISS LATENCY: 34.5971 cycles
cpu0_STLB AVERAGE dMISS LATENCY: 118.139 cycles
cpu0_STLB AVERAGE itMISS LATENCY: 0 cycles
cpu0_STLB AVERAGE dtMISS LATENCY: 0 cycles
cpu0_STLB PAGE CROSSINGS (TLB HIT):         0 
cpu0_STLB PAGE CROSSINGS (TLB MISS):         0 
cpu0_STLB AVERAGE MISS LATENCY: 152.736 cycles
cpu0_L1D TOTAL       ACCESS:   44401800  HIT:   39108313  MISS:    5293487  iACCESS:          0  iHIT:          0  iMISS:          0  dACCESS:   43896451  dHIT:   39074982  dMISS:    4821469  itACCESS:     116570  itHIT:      15302  itMISS:     101268  dtACCESS:     388779  dtHIT:      18029  dtMISS:     370750
cpu0_L1D LOAD         ACCESS:   20007625  HIT:   17847662  MISS:    2159963  iACCESS:          0  iHIT:          0  iMISS:          0  dACCESS:   20007625  dHIT:   17847662  dMISS:    2159963  itACCESS:          0  itHIT:          0  itMISS:          0  dtACCESS:          0  dtHIT:          0  dtMISS:          0
cpu0_L1D RFO          ACCESS:          0  HIT:          0  MISS:          0  iACCESS:          0  iHIT:          0  iMISS:          0  dACCESS:          0  dHIT:          0  dMISS:          0  itACCESS:          0  itHIT:          0  itMISS:          0  dtACCESS:          0  dtHIT:          0  dtMISS:          0
cpu0_L1D PREFETCH     ACCESS:   13698067  HIT:   11582306  MISS:    2115761  iACCESS:          0  iHIT:          0  iMISS:          0  dACCESS:   13698067  dHIT:   11582306  dMISS:    2115761  itACCESS:          0  itHIT:          0  itMISS:          0  dtACCESS:          0  dtHIT:          0  dtMISS:          0
cpu0_L1D WRITE        ACCESS:   10190759  HIT:    9645014  MISS:     545745  iACCESS:          0  iHIT:          0  iMISS:          0  dACCESS:   10190759  dHIT:    9645014  dMISS:     545745  itACCESS:          0  itHIT:          0  itMISS:          0  dtACCESS:          0  dtHIT:          0  dtMISS:          0
cpu0_L1D TRANSLATION  ACCESS:     505349  HIT:      33331  MISS:     472018  iACCESS:          0  iHIT:          0  iMISS:          0  dACCESS:          0  dHIT:          0  dMISS:          0  itACCESS:     116570  itHIT:      15302  itMISS:     101268  dtACCESS:     388779  dtHIT:      18029  dtMISS:     370750
cpu0_L1D PREFETCH  REQUESTED:   20007625  ISSUED:   18270910  CROSSED:          0  USEFUL:     371646  USELESS:     905900
cpu0_L1D AVERAGE iMISS LATENCY: 0 cycles
cpu0_L1D AVERAGE dMISS LATENCY: 50.0551 cycles
cpu0_L1D AVERAGE itMISS LATENCY: 2.04469 cycles
cpu0_L1D AVERAGE dtMISS LATENCY: 6.64545 cycles
cpu0_L1D PAGE CROSSINGS (TLB HIT):         0 
cpu0_L1D PAGE CROSSINGS (TLB MISS):         0 
cpu0_L1D AVERAGE MISS LATENCY: 58.7453 cycles
cpu0_L2C TOTAL       ACCESS:    8493853  HIT:    1564196  MISS:    6929657  iACCESS:    3763660  iHIT:     820508  iMISS:    2943152  dACCESS:    4286236  dHIT:     559378  dMISS:    3726858  itACCESS:     100754  itHIT:      36514  itMISS:      64240  dtACCESS:     343203  dtHIT:     147796  dtMISS:     195407
cpu0_L2C LOAD         ACCESS:    2040951  HIT:     218933  MISS:    1822018  iACCESS:     846153  iHIT:     119173  iMISS:     726980  dACCESS:    1194798  dHIT:      99760  dMISS:    1095038  itACCESS:          0  itHIT:          0  itMISS:          0  dtACCESS:          0  dtHIT:          0  dtMISS:          0
cpu0_L2C RFO          ACCESS:     208301  HIT:      31687  MISS:     176614  iACCESS:          0  iHIT:          0  iMISS:          0  dACCESS:     208301  dHIT:      31687  dMISS:     176614  itACCESS:          0  itHIT:          0  itMISS:          0  dtACCESS:          0  dtHIT:          0  dtMISS:          0
cpu0_L2C PREFETCH     ACCESS:    5451337  HIT:    1017237  MISS:    4434100  iACCESS:    2917507  iHIT:     701335  iMISS:    2216172  dACCESS:    2533830  dHIT:     315902  dMISS:    2217928  itACCESS:          0  itHIT:          0  itMISS:          0  dtACCESS:          0  dtHIT:          0  dtMISS:          0
cpu0_L2C WRITE        ACCESS:     349307  HIT:     112029  MISS:     237278  iACCESS:          0  iHIT:          0  iMISS:          0  dACCESS:     349307  dHIT:     112029  dMISS:     237278  itACCESS:          0  itHIT:          0  itMISS:          0  dtACCESS:          0  dtHIT:          0  dtMISS:          0
cpu0_L2C TRANSLATION  ACCESS:     443957  HIT:     184310  MISS:     259647  iACCESS:          0  iHIT:          0  iMISS:          0  dACCESS:          0  dHIT:          0  dMISS:          0  itACCESS:     100754  itHIT:      36514  itMISS:      64240  dtACCESS:     343203  dtHIT:     147796  dtMISS:     195407
cpu0_L2C PREFETCH  REQUESTED:    1500660  ISSUED:    1500660  CROSSED:          0  USEFUL:     414055  USELESS:     477797
cpu0_L2C AVERAGE iMISS LATENCY: 25.065 cycles
cpu0_L2C AVERAGE dMISS LATENCY: 47.1254 cycles
cpu0_L2C AVERAGE itMISS LATENCY: 1.42145 cycles
cpu0_L2C AVERAGE dtMISS LATENCY: 4.60023 cycles
cpu0_L2C PAGE CROSSINGS (TLB HIT):         0 
cpu0_L2C PAGE CROSSINGS (TLB MISS):         0 
cpu0_L2C AVERAGE MISS LATENCY: 78.212 cycles
LLC TOTAL       ACCESS:    6747600  HIT:    4280261  MISS:    2467339  iACCESS:    2852504  iHIT:    2091049  iMISS:     761455  dACCESS:    3635449  dHIT:    2126111  dMISS:    1509338  itACCESS:      64240  itHIT:      16056  itMISS:      48184  dtACCESS:     195407  dtHIT:      47045  dtMISS:     148362
LLC LOAD         ACCESS:    1816286  HIT:    1225394  MISS:     590892  iACCESS:     725623  iHIT:     566946  iMISS:     158677  dACCESS:    1090663  dHIT:     658448  dMISS:     432215  itACCESS:          0  itHIT:          0  itMISS:          0  dtACCESS:          0  dtHIT:          0  dtMISS:          0
LLC RFO          ACCESS:     176599  HIT:      93358  MISS:      83241  iACCESS:          0  iHIT:          0  iMISS:          0  dACCESS:     176599  dHIT:      93358  dMISS:      83241  itACCESS:          0  itHIT:          0  itMISS:          0  dtACCESS:          0  dtHIT:          0  dtMISS:          0
LLC PREFETCH     ACCESS:    4227382  HIT:    2638918  MISS:    1588464  iACCESS:    2126881  iHIT:    1524103  iMISS:     602778  dACCESS:    2100501  dHIT:    1114815  dMISS:     985686  itACCESS:          0  itHIT:          0  itMISS:          0  dtACCESS:          0  dtHIT:          0  dtMISS:          0
LLC WRITE        ACCESS:     267686  HIT:     259490  MISS:       8196  iACCESS:          0  iHIT:          0  iMISS:          0  dACCESS:     267686  dHIT:     259490  dMISS:       8196  itACCESS:          0  itHIT:          0  itMISS:          0  dtACCESS:          0  dtHIT:          0  dtMISS:          0
LLC TRANSLATION  ACCESS:     259647  HIT:      63101  MISS:     196546  iACCESS:          0  iHIT:          0  iMISS:          0  dACCESS:          0  dHIT:          0  dMISS:          0  itACCESS:      64240  itHIT:      16056  itMISS:      48184  dtACCESS:     195407  dtHIT:      47045  dtMISS:     148362
LLC PREFETCH  REQUESTED:          0  ISSUED:          0  CROSSED:          0  USEFUL:          0  USELESS:          0
LLC AVERAGE iMISS LATENCY: 47.9668 cycles
LLC AVERAGE dMISS LATENCY: 106.347 cycles
LLC AVERAGE itMISS LATENCY: 3.47972 cycles
LLC AVERAGE dtMISS LATENCY: 11.3606 cycles
LLC PAGE CROSSINGS (TLB HIT):         0 
LLC PAGE CROSSINGS (TLB MISS):         0 
LLC AVERAGE MISS LATENCY: 169.154 cycles

PageTableWalker TOTAL       ACCESS:     169954  
PageTableWalker AVERAGE LATENCY: 5.86104 cycles
PageTableWalker TOTAL LATENCY: 996106 cycles

DRAM Statistics
Channel 0
 RQ ROW_BUFFER_HIT:     575193
  ROW_BUFFER_MISS:    1873869
 AVG DBUS CONGESTED CYCLE:    3.65183
 WQ ROW_BUFFER_HIT:      60732
  ROW_BUFFER_MISS:      58153  FULL:          0

