last_page:0x200000000000000
VMEM_RES_CAP:0x100000
PAGE_SIZE:4096
LOG2_PAGE_SIZE:12
LOG2_PAGE_TABLE_SIZE:9
page_table_levels:5
WARNING: physical memory size is smaller than virtual memory size
FDiP enabled with aggresivity 16

*** ChampSim Multicore Out-of-Order Simulator ***

Warmup Instructions: 50000000
Simulation Instructions: 100000000
Number of CPUs: 1
Small page size: 4096
Large page size: 2097152

CPU 0 Bimodal branch predictor
Basic BTB sets: 1024 ways: 8 indirect buffer size: 4096 RAS size: 64
Instruction page size distrubution: 0
Loading instruction page size distribution from /home/bsc/bsc018186/scratch/itp_asplos25_AE/dump/smt_srv85_ap_srv259_ap_1024i.pdst
Data page size distrubution: 0
Loading data page size distribution from /home/bsc/bsc018186/scratch/itp_asplos25_AE/dump/smt_srv85_ap_srv259_ap_1024i.pdst
cpu0_L2C IP-based stride prefetcher
cpu0_L1D next line prefetcher
cpu0_STLB using iTP with max lru@8
cpu0_STLB using iTP with instr@0 and data@2
Init sat counter with 3 bits (max:50).
cpu0_L1I next line prefetcher
Off-chip DRAM Size: 4 GiB Channels: 1 Width: 64-bit Data Rate: 3200 MT/s
Heartbeat CPU 0 instructions: 10000000 cycles: 2500260 heartbeat IPC: 3.99959 cumulative IPC: 3.99959 (Simulation time: 0 hr 0 min 59 sec) 
Heartbeat CPU 0 instructions: 20000003 cycles: 5000332 heartbeat IPC: 3.99989 cumulative IPC: 3.99974 (Simulation time: 0 hr 2 min 4 sec) 
Heartbeat CPU 0 instructions: 30000001 cycles: 7500397 heartbeat IPC: 3.9999 cumulative IPC: 3.99979 (Simulation time: 0 hr 3 min 6 sec) 
Heartbeat CPU 0 instructions: 40000000 cycles: 10000515 heartbeat IPC: 3.99982 cumulative IPC: 3.9998 (Simulation time: 0 hr 4 min 12 sec) 
Heartbeat CPU 0 instructions: 50000003 cycles: 12500624 heartbeat IPC: 3.99983 cumulative IPC: 3.99981 (Simulation time: 0 hr 5 min 18 sec) 
Warmup finished CPU 0 instructions: 50000003 cycles: 12500625 cumulative IPC: 3.99981 (Simulation time: 0 hr 5 min 18 sec) 

Warmup complete CPU 0 instructions: 50000003 cycles: 12500625 (Simulation time: 0 hr 5 min 18 sec) 

Heartbeat CPU 0 instructions: 60000000 cycles: 37931018 heartbeat IPC: 0.393231 cumulative IPC: 0.393231 (Simulation time: 0 hr 7 min 14 sec) 
Heartbeat CPU 0 instructions: 70000002 cycles: 64925721 heartbeat IPC: 0.370444 cumulative IPC: 0.381497 (Simulation time: 0 hr 9 min 12 sec) 
Heartbeat CPU 0 instructions: 80000002 cycles: 91458877 heartbeat IPC: 0.376887 cumulative IPC: 0.379948 (Simulation time: 0 hr 11 min 9 sec) 
Heartbeat CPU 0 instructions: 90000002 cycles: 117250097 heartbeat IPC: 0.387729 cumulative IPC: 0.381864 (Simulation time: 0 hr 13 min 9 sec) 
Heartbeat CPU 0 instructions: 100000000 cycles: 143900371 heartbeat IPC: 0.375231 cumulative IPC: 0.380519 (Simulation time: 0 hr 14 min 56 sec) 
Heartbeat CPU 0 instructions: 110000002 cycles: 170145270 heartbeat IPC: 0.381027 cumulative IPC: 0.380603 (Simulation time: 0 hr 16 min 38 sec) 
Heartbeat CPU 0 instructions: 120000001 cycles: 196025076 heartbeat IPC: 0.386402 cumulative IPC: 0.381421 (Simulation time: 0 hr 18 min 24 sec) 
Heartbeat CPU 0 instructions: 130000002 cycles: 223687650 heartbeat IPC: 0.3615 cumulative IPC: 0.378812 (Simulation time: 0 hr 20 min 20 sec) 
Heartbeat CPU 0 instructions: 140000004 cycles: 249102052 heartbeat IPC: 0.393478 cumulative IPC: 0.380387 (Simulation time: 0 hr 22 min 19 sec) 
Heartbeat CPU 0 instructions: 150000000 cycles: 276160175 heartbeat IPC: 0.369575 cumulative IPC: 0.379277 (Simulation time: 0 hr 24 min 18 sec) 
Simulation finished CPU 0 instructions: 100000002 cycles: 263659552 cumulative IPC: 0.379277 (Simulation time: 0 hr 24 min 18 sec) 

Simulation complete CPU 0 instructions: 100000002 cycles: 263659552 (Simulation time: 0 hr 24 min 18 sec) 


ChampSim completed all CPUs

Saving instructions large page distribution to /home/bsc/bsc018186/scratch/itp_asplos25_AE/dump/smt_srv85_ap_srv259_ap_1024i.pdst...
Saving data large page distribution to /home/bsc/bsc018186/scratch/itp_asplos25_AE/dump/smt_srv85_ap_srv259_ap_1024i.pdst...
=== Simulation ===
CPU 0 runs /gpfs/projects/bsc18/MN4/bsc18/romol/ChampSim/traces/qualcomm_srv/smt_srv85_ap_srv259_ap_1024i.champsimtrace.xz

Region of Interest Statistics

CPU 0 cumulative IPC: 0.379277 instructions: 100000002 cycles: 263659552
CPU 0 Branch Prediction Accuracy: 76.3208% MPKI: 42.6441 Average ROB Occupancy at Mispredict: 11.2138
Branch type MPKI
BRANCH_DIRECT_JUMP: 1.33389
BRANCH_INDIRECT: 22.7744
BRANCH_CONDITIONAL: 11.6746
BRANCH_DIRECT_CALL: 2.44995
BRANCH_INDIRECT_CALL: 0.99181
BRANCH_RETURN: 3.41944

Instructions large pages: 0
Instructions small pages: 9620
Large page distribution for instructions: 0%

Data large pages: 0
Data small pages: 8501
Large page distribution for data: 0%

cpu0_L1I TOTAL       ACCESS:   39263364  HIT:   30012552  MISS:    9250812  iACCESS:   39263364  iHIT:   30012552  iMISS:    9250812  dACCESS:          0  dHIT:          0  dMISS:          0  itACCESS:          0  itHIT:          0  itMISS:          0  dtACCESS:          0  dtHIT:          0  dtMISS:          0
cpu0_L1I LOAD         ACCESS:   11783421  HIT:    9244226  MISS:    2539195  iACCESS:   11783421  iHIT:    9244226  iMISS:    2539195  dACCESS:          0  dHIT:          0  dMISS:          0  itACCESS:          0  itHIT:          0  itMISS:          0  dtACCESS:          0  dtHIT:          0  dtMISS:          0
cpu0_L1I RFO          ACCESS:          0  HIT:          0  MISS:          0  iACCESS:          0  iHIT:          0  iMISS:          0  dACCESS:          0  dHIT:          0  dMISS:          0  itACCESS:          0  itHIT:          0  itMISS:          0  dtACCESS:          0  dtHIT:          0  dtMISS:          0
cpu0_L1I PREFETCH     ACCESS:   27479943  HIT:   20768326  MISS:    6711617  iACCESS:   27479943  iHIT:   20768326  iMISS:    6711617  dACCESS:          0  dHIT:          0  dMISS:          0  itACCESS:          0  itHIT:          0  itMISS:          0  dtACCESS:          0  dtHIT:          0  dtMISS:          0
cpu0_L1I WRITE        ACCESS:          0  HIT:          0  MISS:          0  iACCESS:          0  iHIT:          0  iMISS:          0  dACCESS:          0  dHIT:          0  dMISS:          0  itACCESS:          0  itHIT:          0  itMISS:          0  dtACCESS:          0  dtHIT:          0  dtMISS:          0
cpu0_L1I TRANSLATION  ACCESS:          0  HIT:          0  MISS:          0  iACCESS:          0  iHIT:          0  iMISS:          0  dACCESS:          0  dHIT:          0  dMISS:          0  itACCESS:          0  itHIT:          0  itMISS:          0  dtACCESS:          0  dtHIT:          0  dtMISS:          0
cpu0_L1I PREFETCH  REQUESTED:   30158439  ISSUED:   30156905  CROSSED:          0  USEFUL:    2208686  USELESS:     764935
cpu0_L1I AVERAGE iMISS LATENCY: 21.5275 cycles
cpu0_L1I AVERAGE dMISS LATENCY: 0 cycles
cpu0_L1I AVERAGE itMISS LATENCY: 0 cycles
cpu0_L1I AVERAGE dtMISS LATENCY: 0 cycles
cpu0_L1I PAGE CROSSINGS (TLB HIT):         0 
cpu0_L1I PAGE CROSSINGS (TLB MISS):         0 
cpu0_L1I AVERAGE MISS LATENCY: 21.5275 cycles
cpu0_ITLB TOTAL       ACCESS:   32921374  HIT:   30668079  MISS:    2253295  iACCESS:   32921374  iHIT:   30668079  iMISS:    2253295  dACCESS:          0  dHIT:          0  dMISS:          0  itACCESS:          0  itHIT:          0  itMISS:          0  dtACCESS:          0  dtHIT:          0  dtMISS:          0
cpu0_ITLB LOAD         ACCESS:   32921374  HIT:   30668079  MISS:    2253295  iACCESS:   32921374  iHIT:   30668079  iMISS:    2253295  dACCESS:          0  dHIT:          0  dMISS:          0  itACCESS:          0  itHIT:          0  itMISS:          0  dtACCESS:          0  dtHIT:          0  dtMISS:          0
cpu0_ITLB RFO          ACCESS:          0  HIT:          0  MISS:          0  iACCESS:          0  iHIT:          0  iMISS:          0  dACCESS:          0  dHIT:          0  dMISS:          0  itACCESS:          0  itHIT:          0  itMISS:          0  dtACCESS:          0  dtHIT:          0  dtMISS:          0
cpu0_ITLB PREFETCH     ACCESS:          0  HIT:          0  MISS:          0  iACCESS:          0  iHIT:          0  iMISS:          0  dACCESS:          0  dHIT:          0  dMISS:          0  itACCESS:          0  itHIT:          0  itMISS:          0  dtACCESS:          0  dtHIT:          0  dtMISS:          0
cpu0_ITLB WRITE        ACCESS:          0  HIT:          0  MISS:          0  iACCESS:          0  iHIT:          0  iMISS:          0  dACCESS:          0  dHIT:          0  dMISS:          0  itACCESS:          0  itHIT:          0  itMISS:          0  dtACCESS:          0  dtHIT:          0  dtMISS:          0
cpu0_ITLB TRANSLATION  ACCESS:          0  HIT:          0  MISS:          0  iACCESS:          0  iHIT:          0  iMISS:          0  dACCESS:          0  dHIT:          0  dMISS:          0  itACCESS:          0  itHIT:          0  itMISS:          0  dtACCESS:          0  dtHIT:          0  dtMISS:          0
cpu0_ITLB PREFETCH  REQUESTED:          0  ISSUED:          0  CROSSED:          0  USEFUL:     386517  USELESS:      81925
cpu0_ITLB AVERAGE iMISS LATENCY: 4.82345 cycles
cpu0_ITLB AVERAGE dMISS LATENCY: 0 cycles
cpu0_ITLB AVERAGE itMISS LATENCY: 0 cycles
cpu0_ITLB AVERAGE dtMISS LATENCY: 0 cycles
cpu0_ITLB PAGE CROSSINGS (TLB HIT):         0 
cpu0_ITLB PAGE CROSSINGS (TLB MISS):         0 
cpu0_ITLB AVERAGE MISS LATENCY: 4.82345 cycles
cpu0_DTLB TOTAL       ACCESS:   28824959  HIT:   25154704  MISS:    3670255  iACCESS:          0  iHIT:          0  iMISS:          0  dACCESS:   28824959  dHIT:   25154704  dMISS:    3670255  itACCESS:          0  itHIT:          0  itMISS:          0  dtACCESS:          0  dtHIT:          0  dtMISS:          0
cpu0_DTLB LOAD         ACCESS:   28824959  HIT:   25154704  MISS:    3670255  iACCESS:          0  iHIT:          0  iMISS:          0  dACCESS:   28824959  dHIT:   25154704  dMISS:    3670255  itACCESS:          0  itHIT:          0  itMISS:          0  dtACCESS:          0  dtHIT:          0  dtMISS:          0
cpu0_DTLB RFO          ACCESS:          0  HIT:          0  MISS:          0  iACCESS:          0  iHIT:          0  iMISS:          0  dACCESS:          0  dHIT:          0  dMISS:          0  itACCESS:          0  itHIT:          0  itMISS:          0  dtACCESS:          0  dtHIT:          0  dtMISS:          0
cpu0_DTLB PREFETCH     ACCESS:          0  HIT:          0  MISS:          0  iACCESS:          0  iHIT:          0  iMISS:          0  dACCESS:          0  dHIT:          0  dMISS:          0  itACCESS:          0  itHIT:          0  itMISS:          0  dtACCESS:          0  dtHIT:          0  dtMISS:          0
cpu0_DTLB WRITE        ACCESS:          0  HIT:          0  MISS:          0  iACCESS:          0  iHIT:          0  iMISS:          0  dACCESS:          0  dHIT:          0  dMISS:          0  itACCESS:          0  itHIT:          0  itMISS:          0  dtACCESS:          0  dtHIT:          0  dtMISS:          0
cpu0_DTLB TRANSLATION  ACCESS:          0  HIT:          0  MISS:          0  iACCESS:          0  iHIT:          0  iMISS:          0  dACCESS:          0  dHIT:          0  dMISS:          0  itACCESS:          0  itHIT:          0  itMISS:          0  dtACCESS:          0  dtHIT:          0  dtMISS:          0
cpu0_DTLB PREFETCH  REQUESTED:          0  ISSUED:          0  CROSSED:          0  USEFUL:          0  USELESS:          0
cpu0_DTLB AVERAGE iMISS LATENCY: 0 cycles
cpu0_DTLB AVERAGE dMISS LATENCY: 18.7289 cycles
cpu0_DTLB AVERAGE itMISS LATENCY: 0 cycles
cpu0_DTLB AVERAGE dtMISS LATENCY: 0 cycles
cpu0_DTLB PAGE CROSSINGS (TLB HIT):         0 
cpu0_DTLB PAGE CROSSINGS (TLB MISS):         0 
cpu0_DTLB AVERAGE MISS LATENCY: 18.7289 cycles
cpu0_STLB TOTAL       ACCESS:    2599684  HIT:    2234731  MISS:     364953  iACCESS:     468449  iHIT:     422027  iMISS:      46422  dACCESS:    2131235  dHIT:    1812704  dMISS:     318531  itACCESS:          0  itHIT:          0  itMISS:          0  dtACCESS:          0  dtHIT:          0  dtMISS:          0
cpu0_STLB LOAD         ACCESS:    2599684  HIT:    2234731  MISS:     364953  iACCESS:     468449  iHIT:     422027  iMISS:      46422  dACCESS:    2131235  dHIT:    1812704  dMISS:     318531  itACCESS:          0  itHIT:          0  itMISS:          0  dtACCESS:          0  dtHIT:          0  dtMISS:          0
cpu0_STLB RFO          ACCESS:          0  HIT:          0  MISS:          0  iACCESS:          0  iHIT:          0  iMISS:          0  dACCESS:          0  dHIT:          0  dMISS:          0  itACCESS:          0  itHIT:          0  itMISS:          0  dtACCESS:          0  dtHIT:          0  dtMISS:          0
cpu0_STLB PREFETCH     ACCESS:          0  HIT:          0  MISS:          0  iACCESS:          0  iHIT:          0  iMISS:          0  dACCESS:          0  dHIT:          0  dMISS:          0  itACCESS:          0  itHIT:          0  itMISS:          0  dtACCESS:          0  dtHIT:          0  dtMISS:          0
cpu0_STLB WRITE        ACCESS:          0  HIT:          0  MISS:          0  iACCESS:          0  iHIT:          0  iMISS:          0  dACCESS:          0  dHIT:          0  dMISS:          0  itACCESS:          0  itHIT:          0  itMISS:          0  dtACCESS:          0  dtHIT:          0  dtMISS:          0
cpu0_STLB TRANSLATION  ACCESS:          0  HIT:          0  MISS:          0  iACCESS:          0  iHIT:          0  iMISS:          0  dACCESS:          0  dHIT:          0  dMISS:          0  itACCESS:          0  itHIT:          0  itMISS:          0  dtACCESS:          0  dtHIT:          0  dtMISS:          0
cpu0_STLB PREFETCH  REQUESTED:          0  ISSUED:          0  CROSSED:          0  USEFUL:          0  USELESS:          0
cpu0_STLB AVERAGE iMISS LATENCY: 19.7285 cycles
cpu0_STLB AVERAGE dMISS LATENCY: 141.275 cycles
cpu0_STLB AVERAGE itMISS LATENCY: 0 cycles
cpu0_STLB AVERAGE dtMISS LATENCY: 0 cycles
cpu0_STLB PAGE CROSSINGS (TLB HIT):         0 
cpu0_STLB PAGE CROSSINGS (TLB MISS):         0 
cpu0_STLB AVERAGE MISS LATENCY: 161.004 cycles
cpu0_L1D TOTAL       ACCESS:   44944310  HIT:   39065028  MISS:    5879282  iACCESS:          0  iHIT:          0  iMISS:          0  dACCESS:   44378278  dHIT:   39038245  dMISS:    5340033  itACCESS:      56608  itHIT:       3570  itMISS:      53038  dtACCESS:     509424  dtHIT:      23213  dtMISS:     486211
cpu0_L1D LOAD         ACCESS:   20281730  HIT:   17870124  MISS:    2411606  iACCESS:          0  iHIT:          0  iMISS:          0  dACCESS:   20281730  dHIT:   17870124  dMISS:    2411606  itACCESS:          0  itHIT:          0  itMISS:          0  dtACCESS:          0  dtHIT:          0  dtMISS:          0
cpu0_L1D RFO          ACCESS:          0  HIT:          0  MISS:          0  iACCESS:          0  iHIT:          0  iMISS:          0  dACCESS:          0  dHIT:          0  dMISS:          0  itACCESS:          0  itHIT:          0  itMISS:          0  dtACCESS:          0  dtHIT:          0  dtMISS:          0
cpu0_L1D PREFETCH     ACCESS:   13971979  HIT:   11629182  MISS:    2342797  iACCESS:          0  iHIT:          0  iMISS:          0  dACCESS:   13971979  dHIT:   11629182  dMISS:    2342797  itACCESS:          0  itHIT:          0  itMISS:          0  dtACCESS:          0  dtHIT:          0  dtMISS:          0
cpu0_L1D WRITE        ACCESS:   10124569  HIT:    9538939  MISS:     585630  iACCESS:          0  iHIT:          0  iMISS:          0  dACCESS:   10124569  dHIT:    9538939  dMISS:     585630  itACCESS:          0  itHIT:          0  itMISS:          0  dtACCESS:          0  dtHIT:          0  dtMISS:          0
cpu0_L1D TRANSLATION  ACCESS:     566032  HIT:      26783  MISS:     539249  iACCESS:          0  iHIT:          0  iMISS:          0  dACCESS:          0  dHIT:          0  dMISS:          0  itACCESS:      56608  itHIT:       3570  itMISS:      53038  dtACCESS:     509424  dtHIT:      23213  dtMISS:     486211
cpu0_L1D PREFETCH  REQUESTED:   20281730  ISSUED:   18451673  CROSSED:          0  USEFUL:     356277  USELESS:     934590
cpu0_L1D AVERAGE iMISS LATENCY: 0 cycles
cpu0_L1D AVERAGE dMISS LATENCY: 49.7934 cycles
cpu0_L1D AVERAGE itMISS LATENCY: 1.13921 cycles
cpu0_L1D AVERAGE dtMISS LATENCY: 7.89681 cycles
cpu0_L1D PAGE CROSSINGS (TLB HIT):         0 
cpu0_L1D PAGE CROSSINGS (TLB MISS):         0 
cpu0_L1D AVERAGE MISS LATENCY: 58.8294 cycles
cpu0_L2C TOTAL       ACCESS:    8631803  HIT:    1597564  MISS:    7034239  iACCESS:    3788724  iHIT:     839203  iMISS:    2949521  dACCESS:    4334271  dHIT:     552174  dMISS:    3782097  itACCESS:      52586  itHIT:      14271  itMISS:      38315  dtACCESS:     456222  dtHIT:     191916  dtMISS:     264306
cpu0_L2C LOAD         ACCESS:    2071572  HIT:     222222  MISS:    1849350  iACCESS:     851774  iHIT:     123038  iMISS:     728736  dACCESS:    1219798  dHIT:      99184  dMISS:    1120614  itACCESS:          0  itHIT:          0  itMISS:          0  dtACCESS:          0  dtHIT:          0  dtMISS:          0
cpu0_L2C RFO          ACCESS:     215731  HIT:      29319  MISS:     186412  iACCESS:          0  iHIT:          0  iMISS:          0  dACCESS:     215731  dHIT:      29319  dMISS:     186412  itACCESS:          0  itHIT:          0  itMISS:          0  dtACCESS:          0  dtHIT:          0  dtMISS:          0
cpu0_L2C PREFETCH     ACCESS:    5493817  HIT:    1034042  MISS:    4459775  iACCESS:    2936950  iHIT:     716165  iMISS:    2220785  dACCESS:    2556867  dHIT:     317877  dMISS:    2238990  itACCESS:          0  itHIT:          0  itMISS:          0  dtACCESS:          0  dtHIT:          0  dtMISS:          0
cpu0_L2C WRITE        ACCESS:     341875  HIT:     105794  MISS:     236081  iACCESS:          0  iHIT:          0  iMISS:          0  dACCESS:     341875  dHIT:     105794  dMISS:     236081  itACCESS:          0  itHIT:          0  itMISS:          0  dtACCESS:          0  dtHIT:          0  dtMISS:          0
cpu0_L2C TRANSLATION  ACCESS:     508808  HIT:     206187  MISS:     302621  iACCESS:          0  iHIT:          0  iMISS:          0  dACCESS:          0  dHIT:          0  dMISS:          0  itACCESS:      52586  itHIT:      14271  itMISS:      38315  dtACCESS:     456222  dtHIT:     191916  dtMISS:     264306
cpu0_L2C PREFETCH  REQUESTED:    1531870  ISSUED:    1531866  CROSSED:          0  USEFUL:     423392  USELESS:     470473
cpu0_L2C AVERAGE iMISS LATENCY: 23.5212 cycles
cpu0_L2C AVERAGE dMISS LATENCY: 49.3193 cycles
cpu0_L2C AVERAGE itMISS LATENCY: 0.879193 cycles
cpu0_L2C AVERAGE dtMISS LATENCY: 5.97585 cycles
cpu0_L2C PAGE CROSSINGS (TLB HIT):         0 
cpu0_L2C PAGE CROSSINGS (TLB MISS):         0 
cpu0_L2C AVERAGE MISS LATENCY: 79.6955 cycles
LLC TOTAL       ACCESS:    6877894  HIT:    4396111  MISS:    2481783  iACCESS:    2870603  iHIT:    2178037  iMISS:     692566  dACCESS:    3704670  dHIT:    2139773  dMISS:    1564897  itACCESS:      38315  itHIT:       7689  itMISS:      30626  dtACCESS:     264306  dtHIT:      70612  dtMISS:     193694
LLC LOAD         ACCESS:    1840892  HIT:    1210597  MISS:     630295  iACCESS:     727170  iHIT:     579847  iMISS:     147323  dACCESS:    1113722  dHIT:     630750  dMISS:     482972  itACCESS:          0  itHIT:          0  itMISS:          0  dtACCESS:          0  dtHIT:          0  dtMISS:          0
LLC RFO          ACCESS:     186396  HIT:      95843  MISS:      90553  iACCESS:          0  iHIT:          0  iMISS:          0  dACCESS:     186396  dHIT:      95843  dMISS:      90553  itACCESS:          0  itHIT:          0  itMISS:          0  dtACCESS:          0  dtHIT:          0  dtMISS:          0
LLC PREFETCH     ACCESS:    4277723  HIT:    2748845  MISS:    1528878  iACCESS:    2143433  iHIT:    1598190  iMISS:     545243  dACCESS:    2134290  dHIT:    1150655  dMISS:     983635  itACCESS:          0  itHIT:          0  itMISS:          0  dtACCESS:          0  dtHIT:          0  dtMISS:          0
LLC WRITE        ACCESS:     270262  HIT:     262525  MISS:       7737  iACCESS:          0  iHIT:          0  iMISS:          0  dACCESS:     270262  dHIT:     262525  dMISS:       7737  itACCESS:          0  itHIT:          0  itMISS:          0  dtACCESS:          0  dtHIT:          0  dtMISS:          0
LLC TRANSLATION  ACCESS:     302621  HIT:      78301  MISS:     224320  iACCESS:          0  iHIT:          0  iMISS:          0  dACCESS:          0  dHIT:          0  dMISS:          0  itACCESS:      38315  itHIT:       7689  itMISS:      30626  dtACCESS:     264306  dtHIT:      70612  dtMISS:     193694
LLC PREFETCH  REQUESTED:          0  ISSUED:          0  CROSSED:          0  USEFUL:          0  USELESS:          0
LLC AVERAGE iMISS LATENCY: 44.242 cycles
LLC AVERAGE dMISS LATENCY: 113.891 cycles
LLC AVERAGE itMISS LATENCY: 2.18733 cycles
LLC AVERAGE dtMISS LATENCY: 14.8421 cycles
LLC PAGE CROSSINGS (TLB HIT):         0 
LLC PAGE CROSSINGS (TLB MISS):         0 
LLC AVERAGE MISS LATENCY: 175.162 cycles

PageTableWalker TOTAL       ACCESS:     181429  
PageTableWalker AVERAGE LATENCY: 6.13305 cycles
PageTableWalker TOTAL LATENCY: 1112712 cycles

DRAM Statistics
Channel 0
 RQ ROW_BUFFER_HIT:     522515
  ROW_BUFFER_MISS:    1931306
 AVG DBUS CONGESTED CYCLE:    3.65345
 WQ ROW_BUFFER_HIT:      65486
  ROW_BUFFER_MISS:      63380  FULL:          0

