last_page:0x200000000000000
VMEM_RES_CAP:0x100000
PAGE_SIZE:4096
LOG2_PAGE_SIZE:12
LOG2_PAGE_TABLE_SIZE:9
page_table_levels:5
WARNING: physical memory size is smaller than virtual memory size
FDiP enabled with aggresivity 16

*** ChampSim Multicore Out-of-Order Simulator ***

Warmup Instructions: 50000000
Simulation Instructions: 100000000
Number of CPUs: 1
Small page size: 4096
Large page size: 2097152

CPU 0 Bimodal branch predictor
Basic BTB sets: 1024 ways: 8 indirect buffer size: 4096 RAS size: 64
Instruction page size distrubution: 0
Loading instruction page size distribution from /home/bsc/bsc018186/scratch/itp_asplos25_AE/dump/smt_srv537_ap_srv495_ap_1024i.pdst
Data page size distrubution: 0
Loading data page size distribution from /home/bsc/bsc018186/scratch/itp_asplos25_AE/dump/smt_srv537_ap_srv495_ap_1024i.pdst
cpu0_L2C IP-based stride prefetcher
cpu0_L1D next line prefetcher
CHiRPing...
cpu0_L1I next line prefetcher
Off-chip DRAM Size: 4 GiB Channels: 1 Width: 64-bit Data Rate: 3200 MT/s
Heartbeat CPU 0 instructions: 10000003 cycles: 2500701 heartbeat IPC: 3.99888 cumulative IPC: 3.99888 (Simulation time: 0 hr 0 min 39 sec) 
Heartbeat CPU 0 instructions: 20000002 cycles: 5000874 heartbeat IPC: 3.99973 cumulative IPC: 3.99931 (Simulation time: 0 hr 1 min 21 sec) 
Heartbeat CPU 0 instructions: 30000001 cycles: 7501397 heartbeat IPC: 3.99917 cumulative IPC: 3.99926 (Simulation time: 0 hr 2 min 3 sec) 
Heartbeat CPU 0 instructions: 40000000 cycles: 10001656 heartbeat IPC: 3.99959 cumulative IPC: 3.99934 (Simulation time: 0 hr 2 min 45 sec) 
Heartbeat CPU 0 instructions: 50000002 cycles: 12501785 heartbeat IPC: 3.9998 cumulative IPC: 3.99943 (Simulation time: 0 hr 3 min 28 sec) 
Warmup finished CPU 0 instructions: 50000002 cycles: 12501786 cumulative IPC: 3.99943 (Simulation time: 0 hr 3 min 28 sec) 

Warmup complete CPU 0 instructions: 50000002 cycles: 12501786 (Simulation time: 0 hr 3 min 28 sec) 

Heartbeat CPU 0 instructions: 60000001 cycles: 40743951 heartbeat IPC: 0.354081 cumulative IPC: 0.354081 (Simulation time: 0 hr 4 min 53 sec) 
Heartbeat CPU 0 instructions: 70000003 cycles: 69440673 heartbeat IPC: 0.348472 cumulative IPC: 0.351254 (Simulation time: 0 hr 6 min 19 sec) 
Heartbeat CPU 0 instructions: 80000002 cycles: 97802782 heartbeat IPC: 0.352584 cumulative IPC: 0.351696 (Simulation time: 0 hr 7 min 44 sec) 
Heartbeat CPU 0 instructions: 90000000 cycles: 125185184 heartbeat IPC: 0.365198 cumulative IPC: 0.354977 (Simulation time: 0 hr 9 min 8 sec) 
Heartbeat CPU 0 instructions: 100000003 cycles: 152850337 heartbeat IPC: 0.361466 cumulative IPC: 0.356256 (Simulation time: 0 hr 10 min 33 sec) 
Heartbeat CPU 0 instructions: 110000000 cycles: 181662417 heartbeat IPC: 0.347077 cumulative IPC: 0.354693 (Simulation time: 0 hr 11 min 59 sec) 
Heartbeat CPU 0 instructions: 120000000 cycles: 209192532 heartbeat IPC: 0.363239 cumulative IPC: 0.355889 (Simulation time: 0 hr 13 min 23 sec) 
Heartbeat CPU 0 instructions: 130000001 cycles: 236629103 heartbeat IPC: 0.364478 cumulative IPC: 0.35694 (Simulation time: 0 hr 14 min 47 sec) 
Heartbeat CPU 0 instructions: 140000003 cycles: 264132188 heartbeat IPC: 0.363596 cumulative IPC: 0.357668 (Simulation time: 0 hr 16 min 10 sec) 
Heartbeat CPU 0 instructions: 150000001 cycles: 291674743 heartbeat IPC: 0.363075 cumulative IPC: 0.358201 (Simulation time: 0 hr 17 min 34 sec) 
Simulation finished CPU 0 instructions: 100000004 cycles: 279172959 cumulative IPC: 0.358201 (Simulation time: 0 hr 17 min 34 sec) 

Simulation complete CPU 0 instructions: 100000004 cycles: 279172959 (Simulation time: 0 hr 17 min 34 sec) 


ChampSim completed all CPUs

Saving instructions large page distribution to /home/bsc/bsc018186/scratch/itp_asplos25_AE/dump/smt_srv537_ap_srv495_ap_1024i.pdst...
Saving data large page distribution to /home/bsc/bsc018186/scratch/itp_asplos25_AE/dump/smt_srv537_ap_srv495_ap_1024i.pdst...
=== Simulation ===
CPU 0 runs /gpfs/projects/bsc18/MN4/bsc18/romol/ChampSim/traces/qualcomm_srv/smt_srv537_ap_srv495_ap_1024i.champsimtrace.xz

Region of Interest Statistics

CPU 0 cumulative IPC: 0.358201 instructions: 100000004 cycles: 279172959
CPU 0 Branch Prediction Accuracy: 74.9718% MPKI: 45.2034 Average ROB Occupancy at Mispredict: 10.178
Branch type MPKI
BRANCH_DIRECT_JUMP: 1.41107
BRANCH_INDIRECT: 23.2807
BRANCH_CONDITIONAL: 13.2201
BRANCH_DIRECT_CALL: 2.71227
BRANCH_INDIRECT_CALL: 1.02679
BRANCH_RETURN: 3.5525

Instructions large pages: 0
Instructions small pages: 10264
Large page distribution for instructions: 0%

Data large pages: 0
Data small pages: 8859
Large page distribution for data: 0%

cpu0_L1I TOTAL       ACCESS:   39858745  HIT:   30499395  MISS:    9359350  iACCESS:   39858745  iHIT:   30499395  iMISS:    9359350  dACCESS:          0  dHIT:          0  dMISS:          0  itACCESS:          0  itHIT:          0  itMISS:          0  dtACCESS:          0  dtHIT:          0  dtMISS:          0
cpu0_L1I LOAD         ACCESS:   11924367  HIT:    9389276  MISS:    2535091  iACCESS:   11924367  iHIT:    9389276  iMISS:    2535091  dACCESS:          0  dHIT:          0  dMISS:          0  itACCESS:          0  itHIT:          0  itMISS:          0  dtACCESS:          0  dtHIT:          0  dtMISS:          0
cpu0_L1I RFO          ACCESS:          0  HIT:          0  MISS:          0  iACCESS:          0  iHIT:          0  iMISS:          0  dACCESS:          0  dHIT:          0  dMISS:          0  itACCESS:          0  itHIT:          0  itMISS:          0  dtACCESS:          0  dtHIT:          0  dtMISS:          0
cpu0_L1I PREFETCH     ACCESS:   27934378  HIT:   21110119  MISS:    6824259  iACCESS:   27934378  iHIT:   21110119  iMISS:    6824259  dACCESS:          0  dHIT:          0  dMISS:          0  itACCESS:          0  itHIT:          0  itMISS:          0  dtACCESS:          0  dtHIT:          0  dtMISS:          0
cpu0_L1I WRITE        ACCESS:          0  HIT:          0  MISS:          0  iACCESS:          0  iHIT:          0  iMISS:          0  dACCESS:          0  dHIT:          0  dMISS:          0  itACCESS:          0  itHIT:          0  itMISS:          0  dtACCESS:          0  dtHIT:          0  dtMISS:          0
cpu0_L1I TRANSLATION  ACCESS:          0  HIT:          0  MISS:          0  iACCESS:          0  iHIT:          0  iMISS:          0  dACCESS:          0  dHIT:          0  dMISS:          0  itACCESS:          0  itHIT:          0  itMISS:          0  dtACCESS:          0  dtHIT:          0  dtMISS:          0
cpu0_L1I PREFETCH  REQUESTED:   30567963  ISSUED:   30566608  CROSSED:          0  USEFUL:    2250878  USELESS:     778372
cpu0_L1I AVERAGE iMISS LATENCY: 24.3029 cycles
cpu0_L1I AVERAGE dMISS LATENCY: 0 cycles
cpu0_L1I AVERAGE itMISS LATENCY: 0 cycles
cpu0_L1I AVERAGE dtMISS LATENCY: 0 cycles
cpu0_L1I PAGE CROSSINGS (TLB HIT):         0 
cpu0_L1I PAGE CROSSINGS (TLB MISS):         0 
cpu0_L1I AVERAGE MISS LATENCY: 24.3029 cycles
cpu0_ITLB TOTAL       ACCESS:   33531399  HIT:   31261457  MISS:    2269942  iACCESS:   33531399  iHIT:   31261457  iMISS:    2269942  dACCESS:          0  dHIT:          0  dMISS:          0  itACCESS:          0  itHIT:          0  itMISS:          0  dtACCESS:          0  dtHIT:          0  dtMISS:          0
cpu0_ITLB LOAD         ACCESS:   33531399  HIT:   31261457  MISS:    2269942  iACCESS:   33531399  iHIT:   31261457  iMISS:    2269942  dACCESS:          0  dHIT:          0  dMISS:          0  itACCESS:          0  itHIT:          0  itMISS:          0  dtACCESS:          0  dtHIT:          0  dtMISS:          0
cpu0_ITLB RFO          ACCESS:          0  HIT:          0  MISS:          0  iACCESS:          0  iHIT:          0  iMISS:          0  dACCESS:          0  dHIT:          0  dMISS:          0  itACCESS:          0  itHIT:          0  itMISS:          0  dtACCESS:          0  dtHIT:          0  dtMISS:          0
cpu0_ITLB PREFETCH     ACCESS:          0  HIT:          0  MISS:          0  iACCESS:          0  iHIT:          0  iMISS:          0  dACCESS:          0  dHIT:          0  dMISS:          0  itACCESS:          0  itHIT:          0  itMISS:          0  dtACCESS:          0  dtHIT:          0  dtMISS:          0
cpu0_ITLB WRITE        ACCESS:          0  HIT:          0  MISS:          0  iACCESS:          0  iHIT:          0  iMISS:          0  dACCESS:          0  dHIT:          0  dMISS:          0  itACCESS:          0  itHIT:          0  itMISS:          0  dtACCESS:          0  dtHIT:          0  dtMISS:          0
cpu0_ITLB TRANSLATION  ACCESS:          0  HIT:          0  MISS:          0  iACCESS:          0  iHIT:          0  iMISS:          0  dACCESS:          0  dHIT:          0  dMISS:          0  itACCESS:          0  itHIT:          0  itMISS:          0  dtACCESS:          0  dtHIT:          0  dtMISS:          0
cpu0_ITLB PREFETCH  REQUESTED:          0  ISSUED:          0  CROSSED:          0  USEFUL:     396739  USELESS:      80877
cpu0_ITLB AVERAGE iMISS LATENCY: 7.65816 cycles
cpu0_ITLB AVERAGE dMISS LATENCY: 0 cycles
cpu0_ITLB AVERAGE itMISS LATENCY: 0 cycles
cpu0_ITLB AVERAGE dtMISS LATENCY: 0 cycles
cpu0_ITLB PAGE CROSSINGS (TLB HIT):         0 
cpu0_ITLB PAGE CROSSINGS (TLB MISS):         0 
cpu0_ITLB AVERAGE MISS LATENCY: 7.65816 cycles
cpu0_DTLB TOTAL       ACCESS:   28890113  HIT:   25527295  MISS:    3362818  iACCESS:          0  iHIT:          0  iMISS:          0  dACCESS:   28890113  dHIT:   25527295  dMISS:    3362818  itACCESS:          0  itHIT:          0  itMISS:          0  dtACCESS:          0  dtHIT:          0  dtMISS:          0
cpu0_DTLB LOAD         ACCESS:   28890113  HIT:   25527295  MISS:    3362818  iACCESS:          0  iHIT:          0  iMISS:          0  dACCESS:   28890113  dHIT:   25527295  dMISS:    3362818  itACCESS:          0  itHIT:          0  itMISS:          0  dtACCESS:          0  dtHIT:          0  dtMISS:          0
cpu0_DTLB RFO          ACCESS:          0  HIT:          0  MISS:          0  iACCESS:          0  iHIT:          0  iMISS:          0  dACCESS:          0  dHIT:          0  dMISS:          0  itACCESS:          0  itHIT:          0  itMISS:          0  dtACCESS:          0  dtHIT:          0  dtMISS:          0
cpu0_DTLB PREFETCH     ACCESS:          0  HIT:          0  MISS:          0  iACCESS:          0  iHIT:          0  iMISS:          0  dACCESS:          0  dHIT:          0  dMISS:          0  itACCESS:          0  itHIT:          0  itMISS:          0  dtACCESS:          0  dtHIT:          0  dtMISS:          0
cpu0_DTLB WRITE        ACCESS:          0  HIT:          0  MISS:          0  iACCESS:          0  iHIT:          0  iMISS:          0  dACCESS:          0  dHIT:          0  dMISS:          0  itACCESS:          0  itHIT:          0  itMISS:          0  dtACCESS:          0  dtHIT:          0  dtMISS:          0
cpu0_DTLB TRANSLATION  ACCESS:          0  HIT:          0  MISS:          0  iACCESS:          0  iHIT:          0  iMISS:          0  dACCESS:          0  dHIT:          0  dMISS:          0  itACCESS:          0  itHIT:          0  itMISS:          0  dtACCESS:          0  dtHIT:          0  dtMISS:          0
cpu0_DTLB PREFETCH  REQUESTED:          0  ISSUED:          0  CROSSED:          0  USEFUL:          0  USELESS:          0
cpu0_DTLB AVERAGE iMISS LATENCY: 0 cycles
cpu0_DTLB AVERAGE dMISS LATENCY: 17.6425 cycles
cpu0_DTLB AVERAGE itMISS LATENCY: 0 cycles
cpu0_DTLB AVERAGE dtMISS LATENCY: 0 cycles
cpu0_DTLB PAGE CROSSINGS (TLB HIT):         0 
cpu0_DTLB PAGE CROSSINGS (TLB MISS):         0 
cpu0_DTLB AVERAGE MISS LATENCY: 17.6425 cycles
cpu0_STLB TOTAL       ACCESS:    2423022  HIT:    2051863  MISS:     371159  iACCESS:     477623  iHIT:     359231  iMISS:     118392  dACCESS:    1945399  dHIT:    1692632  dMISS:     252767  itACCESS:          0  itHIT:          0  itMISS:          0  dtACCESS:          0  dtHIT:          0  dtMISS:          0
cpu0_STLB LOAD         ACCESS:    2423022  HIT:    2051863  MISS:     371159  iACCESS:     477623  iHIT:     359231  iMISS:     118392  dACCESS:    1945399  dHIT:    1692632  dMISS:     252767  itACCESS:          0  itHIT:          0  itMISS:          0  dtACCESS:          0  dtHIT:          0  dtMISS:          0
cpu0_STLB RFO          ACCESS:          0  HIT:          0  MISS:          0  iACCESS:          0  iHIT:          0  iMISS:          0  dACCESS:          0  dHIT:          0  dMISS:          0  itACCESS:          0  itHIT:          0  itMISS:          0  dtACCESS:          0  dtHIT:          0  dtMISS:          0
cpu0_STLB PREFETCH     ACCESS:          0  HIT:          0  MISS:          0  iACCESS:          0  iHIT:          0  iMISS:          0  dACCESS:          0  dHIT:          0  dMISS:          0  itACCESS:          0  itHIT:          0  itMISS:          0  dtACCESS:          0  dtHIT:          0  dtMISS:          0
cpu0_STLB WRITE        ACCESS:          0  HIT:          0  MISS:          0  iACCESS:          0  iHIT:          0  iMISS:          0  dACCESS:          0  dHIT:          0  dMISS:          0  itACCESS:          0  itHIT:          0  itMISS:          0  dtACCESS:          0  dtHIT:          0  dtMISS:          0
cpu0_STLB TRANSLATION  ACCESS:          0  HIT:          0  MISS:          0  iACCESS:          0  iHIT:          0  iMISS:          0  dACCESS:          0  dHIT:          0  dMISS:          0  itACCESS:          0  itHIT:          0  itMISS:          0  dtACCESS:          0  dtHIT:          0  dtMISS:          0
cpu0_STLB PREFETCH  REQUESTED:          0  ISSUED:          0  CROSSED:          0  USEFUL:          0  USELESS:          0
cpu0_STLB AVERAGE iMISS LATENCY: 36.5458 cycles
cpu0_STLB AVERAGE dMISS LATENCY: 117.773 cycles
cpu0_STLB AVERAGE itMISS LATENCY: 0 cycles
cpu0_STLB AVERAGE dtMISS LATENCY: 0 cycles
cpu0_STLB PAGE CROSSINGS (TLB HIT):         0 
cpu0_STLB PAGE CROSSINGS (TLB MISS):         0 
cpu0_STLB AVERAGE MISS LATENCY: 154.319 cycles
cpu0_L1D TOTAL       ACCESS:   45058159  HIT:   39320552  MISS:    5737607  iACCESS:          0  iHIT:          0  iMISS:          0  dACCESS:   44518135  dHIT:   39287366  dMISS:    5230769  itACCESS:     131346  itHIT:      16009  itMISS:     115337  dtACCESS:     408678  dtHIT:      17177  dtMISS:     391501
cpu0_L1D LOAD         ACCESS:   20297896  HIT:   17945135  MISS:    2352761  iACCESS:          0  iHIT:          0  iMISS:          0  dACCESS:   20297896  dHIT:   17945135  dMISS:    2352761  itACCESS:          0  itHIT:          0  itMISS:          0  dtACCESS:          0  dtHIT:          0  dtMISS:          0
cpu0_L1D RFO          ACCESS:          0  HIT:          0  MISS:          0  iACCESS:          0  iHIT:          0  iMISS:          0  dACCESS:          0  dHIT:          0  dMISS:          0  itACCESS:          0  itHIT:          0  itMISS:          0  dtACCESS:          0  dtHIT:          0  dtMISS:          0
cpu0_L1D PREFETCH     ACCESS:   14042133  HIT:   11726935  MISS:    2315198  iACCESS:          0  iHIT:          0  iMISS:          0  dACCESS:   14042133  dHIT:   11726935  dMISS:    2315198  itACCESS:          0  itHIT:          0  itMISS:          0  dtACCESS:          0  dtHIT:          0  dtMISS:          0
cpu0_L1D WRITE        ACCESS:   10178106  HIT:    9615296  MISS:     562810  iACCESS:          0  iHIT:          0  iMISS:          0  dACCESS:   10178106  dHIT:    9615296  dMISS:     562810  itACCESS:          0  itHIT:          0  itMISS:          0  dtACCESS:          0  dtHIT:          0  dtMISS:          0
cpu0_L1D TRANSLATION  ACCESS:     540024  HIT:      33186  MISS:     506838  iACCESS:          0  iHIT:          0  iMISS:          0  dACCESS:          0  dHIT:          0  dMISS:          0  itACCESS:     131346  itHIT:      16009  itMISS:     115337  dtACCESS:     408678  dtHIT:      17177  dtMISS:     391501
cpu0_L1D PREFETCH  REQUESTED:   20297896  ISSUED:   18467171  CROSSED:          0  USEFUL:     374080  USELESS:     911426
cpu0_L1D AVERAGE iMISS LATENCY: 0 cycles
cpu0_L1D AVERAGE dMISS LATENCY: 50.2359 cycles
cpu0_L1D AVERAGE itMISS LATENCY: 2.16941 cycles
cpu0_L1D AVERAGE dtMISS LATENCY: 6.83776 cycles
cpu0_L1D PAGE CROSSINGS (TLB HIT):         0 
cpu0_L1D PAGE CROSSINGS (TLB MISS):         0 
cpu0_L1D AVERAGE MISS LATENCY: 59.2431 cycles
cpu0_L2C TOTAL       ACCESS:    8692949  HIT:    1550876  MISS:    7142073  iACCESS:    3848826  iHIT:     816982  iMISS:    3031844  dACCESS:    4367441  dHIT:     542949  dMISS:    3824492  itACCESS:     114747  itHIT:      40985  itMISS:      73762  dtACCESS:     361935  dtHIT:     149960  dtMISS:     211975
cpu0_L2C LOAD         ACCESS:    2060929  HIT:     212160  MISS:    1848769  iACCESS:     856348  iHIT:     118675  iMISS:     737673  dACCESS:    1204581  dHIT:      93485  dMISS:    1111096  itACCESS:          0  itHIT:          0  itMISS:          0  dtACCESS:          0  dtHIT:          0  dtMISS:          0
cpu0_L2C RFO          ACCESS:     213483  HIT:      28933  MISS:     184550  iACCESS:          0  iHIT:          0  iMISS:          0  dACCESS:     213483  dHIT:      28933  dMISS:     184550  itACCESS:          0  itHIT:          0  itMISS:          0  dtACCESS:          0  dtHIT:          0  dtMISS:          0
cpu0_L2C PREFETCH     ACCESS:    5597759  HIT:    1016087  MISS:    4581672  iACCESS:    2992478  iHIT:     698307  iMISS:    2294171  dACCESS:    2605281  dHIT:     317780  dMISS:    2287501  itACCESS:          0  itHIT:          0  itMISS:          0  dtACCESS:          0  dtHIT:          0  dtMISS:          0
cpu0_L2C WRITE        ACCESS:     344096  HIT:     102751  MISS:     241345  iACCESS:          0  iHIT:          0  iMISS:          0  dACCESS:     344096  dHIT:     102751  dMISS:     241345  itACCESS:          0  itHIT:          0  itMISS:          0  dtACCESS:          0  dtHIT:          0  dtMISS:          0
cpu0_L2C TRANSLATION  ACCESS:     476682  HIT:     190945  MISS:     285737  iACCESS:          0  iHIT:          0  iMISS:          0  dACCESS:          0  dHIT:          0  dMISS:          0  itACCESS:     114747  itHIT:      40985  itMISS:      73762  dtACCESS:     361935  dtHIT:     149960  dtMISS:     211975
cpu0_L2C PREFETCH  REQUESTED:    1566156  ISSUED:    1566150  CROSSED:          0  USEFUL:     419864  USELESS:     504180
cpu0_L2C AVERAGE iMISS LATENCY: 27.1919 cycles
cpu0_L2C AVERAGE dMISS LATENCY: 50.1714 cycles
cpu0_L2C AVERAGE itMISS LATENCY: 1.58745 cycles
cpu0_L2C AVERAGE dtMISS LATENCY: 5.00524 cycles
cpu0_L2C PAGE CROSSINGS (TLB HIT):         0 
cpu0_L2C PAGE CROSSINGS (TLB MISS):         0 
cpu0_L2C AVERAGE MISS LATENCY: 83.9558 cycles
LLC TOTAL       ACCESS:    6944269  HIT:    4184634  MISS:    2759635  iACCESS:    2937319  iHIT:    2065891  iMISS:     871428  dACCESS:    3721213  dHIT:    2053398  dMISS:    1667815  itACCESS:      73762  itHIT:      18231  itMISS:      55531  dtACCESS:     211975  dtHIT:      47114  dtMISS:     164861
LLC LOAD         ACCESS:    1841588  HIT:    1179781  MISS:     661807  iACCESS:     736423  iHIT:     553450  iMISS:     182973  dACCESS:    1105165  dHIT:     626331  dMISS:     478834  itACCESS:          0  itHIT:          0  itMISS:          0  dtACCESS:          0  dtHIT:          0  dtMISS:          0
LLC RFO          ACCESS:     184544  HIT:      92770  MISS:      91774  iACCESS:          0  iHIT:          0  iMISS:          0  dACCESS:     184544  dHIT:      92770  dMISS:      91774  itACCESS:          0  itHIT:          0  itMISS:          0  dtACCESS:          0  dtHIT:          0  dtMISS:          0
LLC PREFETCH     ACCESS:    4358555  HIT:    2579727  MISS:    1778828  iACCESS:    2200896  iHIT:    1512441  iMISS:     688455  dACCESS:    2157659  dHIT:    1067286  dMISS:    1090373  itACCESS:          0  itHIT:          0  itMISS:          0  dtACCESS:          0  dtHIT:          0  dtMISS:          0
LLC WRITE        ACCESS:     273845  HIT:     267011  MISS:       6834  iACCESS:          0  iHIT:          0  iMISS:          0  dACCESS:     273845  dHIT:     267011  dMISS:       6834  itACCESS:          0  itHIT:          0  itMISS:          0  dtACCESS:          0  dtHIT:          0  dtMISS:          0
LLC TRANSLATION  ACCESS:     285737  HIT:      65345  MISS:     220392  iACCESS:          0  iHIT:          0  iMISS:          0  dACCESS:          0  dHIT:          0  dMISS:          0  itACCESS:      73762  itHIT:      18231  itMISS:      55531  dtACCESS:     211975  dtHIT:      47114  dtMISS:     164861
LLC PREFETCH  REQUESTED:          0  ISSUED:          0  CROSSED:          0  USEFUL:          0  USELESS:          0
LLC AVERAGE iMISS LATENCY: 49.7056 cycles
LLC AVERAGE dMISS LATENCY: 106.458 cycles
LLC AVERAGE itMISS LATENCY: 3.58217 cycles
LLC AVERAGE dtMISS LATENCY: 11.4404 cycles
LLC PAGE CROSSINGS (TLB HIT):         0 
LLC PAGE CROSSINGS (TLB MISS):         0 
LLC AVERAGE MISS LATENCY: 171.186 cycles

PageTableWalker TOTAL       ACCESS:     181663  
PageTableWalker AVERAGE LATENCY: 5.87001 cycles
PageTableWalker TOTAL LATENCY: 1066363 cycles

DRAM Statistics
Channel 0
 RQ ROW_BUFFER_HIT:     607135
  ROW_BUFFER_MISS:    2126335
 AVG DBUS CONGESTED CYCLE:    3.65431
 WQ ROW_BUFFER_HIT:      67190
  ROW_BUFFER_MISS:      62393  FULL:          0

