last_page:0x200000000000000
VMEM_RES_CAP:0x100000
PAGE_SIZE:4096
LOG2_PAGE_SIZE:12
LOG2_PAGE_TABLE_SIZE:9
page_table_levels:5
WARNING: physical memory size is smaller than virtual memory size
FDiP enabled with aggresivity 16

*** ChampSim Multicore Out-of-Order Simulator ***

Warmup Instructions: 50000000
Simulation Instructions: 100000000
Number of CPUs: 1
Small page size: 4096
Large page size: 2097152

CPU 0 Bimodal branch predictor
Basic BTB sets: 1024 ways: 8 indirect buffer size: 4096 RAS size: 64
Instruction page size distrubution: 0
Loading instruction page size distribution from /home/bsc/bsc018186/scratch/itp_asplos25_AE/dump/smt_srv540_ap_srv582_ap_1024i.pdst
Data page size distrubution: 0
Loading data page size distribution from /home/bsc/bsc018186/scratch/itp_asplos25_AE/dump/smt_srv540_ap_srv582_ap_1024i.pdst
cpu0_L2C IP-based stride prefetcher
cpu0_L2C is using PTP replacement policy:
	TLB_STRESS_THRESHOLD:0
	PTE_EVICTION_RATIO:0
cpu0_L1D next line prefetcher
cpu0_STLB using iTP with max lru@8
cpu0_STLB using iTP with instr@0 and data@2
Init sat counter with 3 bits (max:50).
cpu0_L1I next line prefetcher
Off-chip DRAM Size: 4 GiB Channels: 1 Width: 64-bit Data Rate: 3200 MT/s
Heartbeat CPU 0 instructions: 10000000 cycles: 2500382 heartbeat IPC: 3.99939 cumulative IPC: 3.99939 (Simulation time: 0 hr 0 min 37 sec) 
Heartbeat CPU 0 instructions: 20000002 cycles: 5000457 heartbeat IPC: 3.99989 cumulative IPC: 3.99964 (Simulation time: 0 hr 1 min 16 sec) 
Heartbeat CPU 0 instructions: 30000000 cycles: 7500484 heartbeat IPC: 3.99996 cumulative IPC: 3.99975 (Simulation time: 0 hr 1 min 55 sec) 
Heartbeat CPU 0 instructions: 40000001 cycles: 10000536 heartbeat IPC: 3.99992 cumulative IPC: 3.99979 (Simulation time: 0 hr 2 min 34 sec) 
Heartbeat CPU 0 instructions: 50000002 cycles: 12500751 heartbeat IPC: 3.99966 cumulative IPC: 3.99976 (Simulation time: 0 hr 3 min 13 sec) 
Warmup finished CPU 0 instructions: 50000002 cycles: 12500752 cumulative IPC: 3.99976 (Simulation time: 0 hr 3 min 13 sec) 

Warmup complete CPU 0 instructions: 50000002 cycles: 12500752 (Simulation time: 0 hr 3 min 13 sec) 

Heartbeat CPU 0 instructions: 60000002 cycles: 42126936 heartbeat IPC: 0.33754 cumulative IPC: 0.33754 (Simulation time: 0 hr 4 min 34 sec) 
Heartbeat CPU 0 instructions: 70000000 cycles: 72149557 heartbeat IPC: 0.333083 cumulative IPC: 0.335296 (Simulation time: 0 hr 5 min 55 sec) 
Heartbeat CPU 0 instructions: 80000002 cycles: 101380754 heartbeat IPC: 0.342101 cumulative IPC: 0.337534 (Simulation time: 0 hr 7 min 16 sec) 
Heartbeat CPU 0 instructions: 90000000 cycles: 131361956 heartbeat IPC: 0.333543 cumulative IPC: 0.336527 (Simulation time: 0 hr 8 min 38 sec) 
Heartbeat CPU 0 instructions: 100000001 cycles: 162549767 heartbeat IPC: 0.320639 cumulative IPC: 0.333225 (Simulation time: 0 hr 10 min 1 sec) 
Heartbeat CPU 0 instructions: 110000004 cycles: 192509558 heartbeat IPC: 0.333781 cumulative IPC: 0.333318 (Simulation time: 0 hr 11 min 23 sec) 
Heartbeat CPU 0 instructions: 120000002 cycles: 222873649 heartbeat IPC: 0.329337 cumulative IPC: 0.332743 (Simulation time: 0 hr 12 min 46 sec) 
Heartbeat CPU 0 instructions: 130000000 cycles: 252703238 heartbeat IPC: 0.335238 cumulative IPC: 0.333053 (Simulation time: 0 hr 14 min 7 sec) 
Heartbeat CPU 0 instructions: 140000002 cycles: 282631823 heartbeat IPC: 0.334129 cumulative IPC: 0.333172 (Simulation time: 0 hr 15 min 29 sec) 
Heartbeat CPU 0 instructions: 150000001 cycles: 311215474 heartbeat IPC: 0.349851 cumulative IPC: 0.334768 (Simulation time: 0 hr 16 min 51 sec) 
Simulation finished CPU 0 instructions: 100000004 cycles: 298714724 cumulative IPC: 0.334768 (Simulation time: 0 hr 16 min 51 sec) 

Simulation complete CPU 0 instructions: 100000004 cycles: 298714724 (Simulation time: 0 hr 16 min 51 sec) 


ChampSim completed all CPUs

Saving instructions large page distribution to /home/bsc/bsc018186/scratch/itp_asplos25_AE/dump/smt_srv540_ap_srv582_ap_1024i.pdst...
Saving data large page distribution to /home/bsc/bsc018186/scratch/itp_asplos25_AE/dump/smt_srv540_ap_srv582_ap_1024i.pdst...
=== Simulation ===
CPU 0 runs /gpfs/projects/bsc18/MN4/bsc18/romol/ChampSim/traces/qualcomm_srv/smt_srv540_ap_srv582_ap_1024i.champsimtrace.xz

Region of Interest Statistics

CPU 0 cumulative IPC: 0.334768 instructions: 100000004 cycles: 298714724
CPU 0 Branch Prediction Accuracy: 75.1418% MPKI: 44.8326 Average ROB Occupancy at Mispredict: 10.8671
Branch type MPKI
BRANCH_DIRECT_JUMP: 1.39703
BRANCH_INDIRECT: 23.1452
BRANCH_CONDITIONAL: 13.0321
BRANCH_DIRECT_CALL: 2.68798
BRANCH_INDIRECT_CALL: 1.02458
BRANCH_RETURN: 3.54574

Instructions large pages: 0
Instructions small pages: 9622
Large page distribution for instructions: 0%

Data large pages: 0
Data small pages: 8277
Large page distribution for data: 0%

cpu0_L1I TOTAL       ACCESS:   39281206  HIT:   30565869  MISS:    8715337  iACCESS:   39281206  iHIT:   30565869  iMISS:    8715337  dACCESS:          0  dHIT:          0  dMISS:          0  itACCESS:          0  itHIT:          0  itMISS:          0  dtACCESS:          0  dtHIT:          0  dtMISS:          0
cpu0_L1I LOAD         ACCESS:   11758804  HIT:    9390272  MISS:    2368532  iACCESS:   11758804  iHIT:    9390272  iMISS:    2368532  dACCESS:          0  dHIT:          0  dMISS:          0  itACCESS:          0  itHIT:          0  itMISS:          0  dtACCESS:          0  dtHIT:          0  dtMISS:          0
cpu0_L1I RFO          ACCESS:          0  HIT:          0  MISS:          0  iACCESS:          0  iHIT:          0  iMISS:          0  dACCESS:          0  dHIT:          0  dMISS:          0  itACCESS:          0  itHIT:          0  itMISS:          0  dtACCESS:          0  dtHIT:          0  dtMISS:          0
cpu0_L1I PREFETCH     ACCESS:   27522402  HIT:   21175597  MISS:    6346805  iACCESS:   27522402  iHIT:   21175597  iMISS:    6346805  dACCESS:          0  dHIT:          0  dMISS:          0  itACCESS:          0  itHIT:          0  itMISS:          0  dtACCESS:          0  dtHIT:          0  dtMISS:          0
cpu0_L1I WRITE        ACCESS:          0  HIT:          0  MISS:          0  iACCESS:          0  iHIT:          0  iMISS:          0  dACCESS:          0  dHIT:          0  dMISS:          0  itACCESS:          0  itHIT:          0  itMISS:          0  dtACCESS:          0  dtHIT:          0  dtMISS:          0
cpu0_L1I TRANSLATION  ACCESS:          0  HIT:          0  MISS:          0  iACCESS:          0  iHIT:          0  iMISS:          0  dACCESS:          0  dHIT:          0  dMISS:          0  itACCESS:          0  itHIT:          0  itMISS:          0  dtACCESS:          0  dtHIT:          0  dtMISS:          0
cpu0_L1I PREFETCH  REQUESTED:   30339237  ISSUED:   30339227  CROSSED:          0  USEFUL:    2209275  USELESS:     765752
cpu0_L1I AVERAGE iMISS LATENCY: 24.7019 cycles
cpu0_L1I AVERAGE dMISS LATENCY: 0 cycles
cpu0_L1I AVERAGE itMISS LATENCY: 0 cycles
cpu0_L1I AVERAGE dtMISS LATENCY: 0 cycles
cpu0_L1I PAGE CROSSINGS (TLB HIT):         0 
cpu0_L1I PAGE CROSSINGS (TLB MISS):         0 
cpu0_L1I AVERAGE MISS LATENCY: 24.7019 cycles
cpu0_ITLB TOTAL       ACCESS:   33242651  HIT:   31019400  MISS:    2223251  iACCESS:   33242651  iHIT:   31019400  iMISS:    2223251  dACCESS:          0  dHIT:          0  dMISS:          0  itACCESS:          0  itHIT:          0  itMISS:          0  dtACCESS:          0  dtHIT:          0  dtMISS:          0
cpu0_ITLB LOAD         ACCESS:   33242651  HIT:   31019400  MISS:    2223251  iACCESS:   33242651  iHIT:   31019400  iMISS:    2223251  dACCESS:          0  dHIT:          0  dMISS:          0  itACCESS:          0  itHIT:          0  itMISS:          0  dtACCESS:          0  dtHIT:          0  dtMISS:          0
cpu0_ITLB RFO          ACCESS:          0  HIT:          0  MISS:          0  iACCESS:          0  iHIT:          0  iMISS:          0  dACCESS:          0  dHIT:          0  dMISS:          0  itACCESS:          0  itHIT:          0  itMISS:          0  dtACCESS:          0  dtHIT:          0  dtMISS:          0
cpu0_ITLB PREFETCH     ACCESS:          0  HIT:          0  MISS:          0  iACCESS:          0  iHIT:          0  iMISS:          0  dACCESS:          0  dHIT:          0  dMISS:          0  itACCESS:          0  itHIT:          0  itMISS:          0  dtACCESS:          0  dtHIT:          0  dtMISS:          0
cpu0_ITLB WRITE        ACCESS:          0  HIT:          0  MISS:          0  iACCESS:          0  iHIT:          0  iMISS:          0  dACCESS:          0  dHIT:          0  dMISS:          0  itACCESS:          0  itHIT:          0  itMISS:          0  dtACCESS:          0  dtHIT:          0  dtMISS:          0
cpu0_ITLB TRANSLATION  ACCESS:          0  HIT:          0  MISS:          0  iACCESS:          0  iHIT:          0  iMISS:          0  dACCESS:          0  dHIT:          0  dMISS:          0  itACCESS:          0  itHIT:          0  itMISS:          0  dtACCESS:          0  dtHIT:          0  dtMISS:          0
cpu0_ITLB PREFETCH  REQUESTED:          0  ISSUED:          0  CROSSED:          0  USEFUL:     389145  USELESS:      79313
cpu0_ITLB AVERAGE iMISS LATENCY: 6.65011 cycles
cpu0_ITLB AVERAGE dMISS LATENCY: 0 cycles
cpu0_ITLB AVERAGE itMISS LATENCY: 0 cycles
cpu0_ITLB AVERAGE dtMISS LATENCY: 0 cycles
cpu0_ITLB PAGE CROSSINGS (TLB HIT):         0 
cpu0_ITLB PAGE CROSSINGS (TLB MISS):         0 
cpu0_ITLB AVERAGE MISS LATENCY: 6.65011 cycles
cpu0_DTLB TOTAL       ACCESS:   28848185  HIT:   25221439  MISS:    3626746  iACCESS:          0  iHIT:          0  iMISS:          0  dACCESS:   28848185  dHIT:   25221439  dMISS:    3626746  itACCESS:          0  itHIT:          0  itMISS:          0  dtACCESS:          0  dtHIT:          0  dtMISS:          0
cpu0_DTLB LOAD         ACCESS:   28848185  HIT:   25221439  MISS:    3626746  iACCESS:          0  iHIT:          0  iMISS:          0  dACCESS:   28848185  dHIT:   25221439  dMISS:    3626746  itACCESS:          0  itHIT:          0  itMISS:          0  dtACCESS:          0  dtHIT:          0  dtMISS:          0
cpu0_DTLB RFO          ACCESS:          0  HIT:          0  MISS:          0  iACCESS:          0  iHIT:          0  iMISS:          0  dACCESS:          0  dHIT:          0  dMISS:          0  itACCESS:          0  itHIT:          0  itMISS:          0  dtACCESS:          0  dtHIT:          0  dtMISS:          0
cpu0_DTLB PREFETCH     ACCESS:          0  HIT:          0  MISS:          0  iACCESS:          0  iHIT:          0  iMISS:          0  dACCESS:          0  dHIT:          0  dMISS:          0  itACCESS:          0  itHIT:          0  itMISS:          0  dtACCESS:          0  dtHIT:          0  dtMISS:          0
cpu0_DTLB WRITE        ACCESS:          0  HIT:          0  MISS:          0  iACCESS:          0  iHIT:          0  iMISS:          0  dACCESS:          0  dHIT:          0  dMISS:          0  itACCESS:          0  itHIT:          0  itMISS:          0  dtACCESS:          0  dtHIT:          0  dtMISS:          0
cpu0_DTLB TRANSLATION  ACCESS:          0  HIT:          0  MISS:          0  iACCESS:          0  iHIT:          0  iMISS:          0  dACCESS:          0  dHIT:          0  dMISS:          0  itACCESS:          0  itHIT:          0  itMISS:          0  dtACCESS:          0  dtHIT:          0  dtMISS:          0
cpu0_DTLB PREFETCH  REQUESTED:          0  ISSUED:          0  CROSSED:          0  USEFUL:          0  USELESS:          0
cpu0_DTLB AVERAGE iMISS LATENCY: 0 cycles
cpu0_DTLB AVERAGE dMISS LATENCY: 26.7095 cycles
cpu0_DTLB AVERAGE itMISS LATENCY: 0 cycles
cpu0_DTLB AVERAGE dtMISS LATENCY: 0 cycles
cpu0_DTLB PAGE CROSSINGS (TLB HIT):         0 
cpu0_DTLB PAGE CROSSINGS (TLB MISS):         0 
cpu0_DTLB AVERAGE MISS LATENCY: 26.7095 cycles
cpu0_STLB TOTAL       ACCESS:    2574173  HIT:    2198315  MISS:     375858  iACCESS:     468458  iHIT:     410182  iMISS:      58276  dACCESS:    2105715  dHIT:    1788133  dMISS:     317582  itACCESS:          0  itHIT:          0  itMISS:          0  dtACCESS:          0  dtHIT:          0  dtMISS:          0
cpu0_STLB LOAD         ACCESS:    2574173  HIT:    2198315  MISS:     375858  iACCESS:     468458  iHIT:     410182  iMISS:      58276  dACCESS:    2105715  dHIT:    1788133  dMISS:     317582  itACCESS:          0  itHIT:          0  itMISS:          0  dtACCESS:          0  dtHIT:          0  dtMISS:          0
cpu0_STLB RFO          ACCESS:          0  HIT:          0  MISS:          0  iACCESS:          0  iHIT:          0  iMISS:          0  dACCESS:          0  dHIT:          0  dMISS:          0  itACCESS:          0  itHIT:          0  itMISS:          0  dtACCESS:          0  dtHIT:          0  dtMISS:          0
cpu0_STLB PREFETCH     ACCESS:          0  HIT:          0  MISS:          0  iACCESS:          0  iHIT:          0  iMISS:          0  dACCESS:          0  dHIT:          0  dMISS:          0  itACCESS:          0  itHIT:          0  itMISS:          0  dtACCESS:          0  dtHIT:          0  dtMISS:          0
cpu0_STLB WRITE        ACCESS:          0  HIT:          0  MISS:          0  iACCESS:          0  iHIT:          0  iMISS:          0  dACCESS:          0  dHIT:          0  dMISS:          0  itACCESS:          0  itHIT:          0  itMISS:          0  dtACCESS:          0  dtHIT:          0  dtMISS:          0
cpu0_STLB TRANSLATION  ACCESS:          0  HIT:          0  MISS:          0  iACCESS:          0  iHIT:          0  iMISS:          0  dACCESS:          0  dHIT:          0  dMISS:          0  itACCESS:          0  itHIT:          0  itMISS:          0  dtACCESS:          0  dtHIT:          0  dtMISS:          0
cpu0_STLB PREFETCH  REQUESTED:          0  ISSUED:          0  CROSSED:          0  USEFUL:          0  USELESS:          0
cpu0_STLB AVERAGE iMISS LATENCY: 29.5329 cycles
cpu0_STLB AVERAGE dMISS LATENCY: 212.478 cycles
cpu0_STLB AVERAGE itMISS LATENCY: 0 cycles
cpu0_STLB AVERAGE dtMISS LATENCY: 0 cycles
cpu0_STLB PAGE CROSSINGS (TLB HIT):         0 
cpu0_STLB PAGE CROSSINGS (TLB MISS):         0 
cpu0_STLB AVERAGE MISS LATENCY: 242.011 cycles
cpu0_L1D TOTAL       ACCESS:   44865894  HIT:   39071687  MISS:    5794207  iACCESS:          0  iHIT:          0  iMISS:          0  dACCESS:   44292340  dHIT:   39042389  dMISS:    5249951  itACCESS:      68152  itHIT:       5050  itMISS:      63102  dtACCESS:     505402  dtHIT:      24248  dtMISS:     481154
cpu0_L1D LOAD         ACCESS:   20228757  HIT:   17876235  MISS:    2352522  iACCESS:          0  iHIT:          0  iMISS:          0  dACCESS:   20228757  dHIT:   17876235  dMISS:    2352522  itACCESS:          0  itHIT:          0  itMISS:          0  dtACCESS:          0  dtHIT:          0  dtMISS:          0
cpu0_L1D RFO          ACCESS:          0  HIT:          0  MISS:          0  iACCESS:          0  iHIT:          0  iMISS:          0  dACCESS:          0  dHIT:          0  dMISS:          0  itACCESS:          0  itHIT:          0  itMISS:          0  dtACCESS:          0  dtHIT:          0  dtMISS:          0
cpu0_L1D PREFETCH     ACCESS:   13914204  HIT:   11590051  MISS:    2324153  iACCESS:          0  iHIT:          0  iMISS:          0  dACCESS:   13914204  dHIT:   11590051  dMISS:    2324153  itACCESS:          0  itHIT:          0  itMISS:          0  dtACCESS:          0  dtHIT:          0  dtMISS:          0
cpu0_L1D WRITE        ACCESS:   10149379  HIT:    9576103  MISS:     573276  iACCESS:          0  iHIT:          0  iMISS:          0  dACCESS:   10149379  dHIT:    9576103  dMISS:     573276  itACCESS:          0  itHIT:          0  itMISS:          0  dtACCESS:          0  dtHIT:          0  dtMISS:          0
cpu0_L1D TRANSLATION  ACCESS:     573554  HIT:      29298  MISS:     544256  iACCESS:          0  iHIT:          0  iMISS:          0  dACCESS:          0  dHIT:          0  dMISS:          0  itACCESS:      68152  itHIT:       5050  itMISS:      63102  dtACCESS:     505402  dtHIT:      24248  dtMISS:     481154
cpu0_L1D PREFETCH  REQUESTED:   20228757  ISSUED:   18409266  CROSSED:          0  USEFUL:     359112  USELESS:     928874
cpu0_L1D AVERAGE iMISS LATENCY: 0 cycles
cpu0_L1D AVERAGE dMISS LATENCY: 49.5682 cycles
cpu0_L1D AVERAGE itMISS LATENCY: 1.81455 cycles
cpu0_L1D AVERAGE dtMISS LATENCY: 12.8944 cycles
cpu0_L1D PAGE CROSSINGS (TLB HIT):         0 
cpu0_L1D PAGE CROSSINGS (TLB MISS):         0 
cpu0_L1D AVERAGE MISS LATENCY: 64.2771 cycles
cpu0_L2C TOTAL       ACCESS:    8655137  HIT:    3821146  MISS:    4833991  iACCESS:    3779509  iHIT:    2097352  iMISS:    1682157  dACCESS:    4361626  dHIT:    1639493  dMISS:    2722133  itACCESS:      62806  itHIT:       8954  itMISS:      53852  dtACCESS:     451196  dtHIT:      75347  dtMISS:     375849
cpu0_L2C LOAD         ACCESS:    2041311  HIT:     882737  MISS:    1158574  iACCESS:     841717  iHIT:     474442  iMISS:     367275  dACCESS:    1199594  dHIT:     408295  dMISS:     791299  itACCESS:          0  itHIT:          0  itMISS:          0  dtACCESS:          0  dtHIT:          0  dtMISS:          0
cpu0_L2C RFO          ACCESS:     220142  HIT:      74892  MISS:     145250  iACCESS:          0  iHIT:          0  iMISS:          0  dACCESS:     220142  dHIT:      74892  dMISS:     145250  itACCESS:          0  itHIT:          0  itMISS:          0  dtACCESS:          0  dtHIT:          0  dtMISS:          0
cpu0_L2C PREFETCH     ACCESS:    5533942  HIT:    2476765  MISS:    3057177  iACCESS:    2937792  iHIT:    1622910  iMISS:    1314882  dACCESS:    2596150  dHIT:     853855  dMISS:    1742295  itACCESS:          0  itHIT:          0  itMISS:          0  dtACCESS:          0  dtHIT:          0  dtMISS:          0
cpu0_L2C WRITE        ACCESS:     345740  HIT:     302451  MISS:      43289  iACCESS:          0  iHIT:          0  iMISS:          0  dACCESS:     345740  dHIT:     302451  dMISS:      43289  itACCESS:          0  itHIT:          0  itMISS:          0  dtACCESS:          0  dtHIT:          0  dtMISS:          0
cpu0_L2C TRANSLATION  ACCESS:     514002  HIT:      84301  MISS:     429701  iACCESS:          0  iHIT:          0  iMISS:          0  dACCESS:          0  dHIT:          0  dMISS:          0  itACCESS:      62806  itHIT:       8954  itMISS:      53852  dtACCESS:     451196  dtHIT:      75347  dtMISS:     375849
cpu0_L2C PREFETCH  REQUESTED:    1550407  ISSUED:    1550406  CROSSED:          0  USEFUL:     364069  USELESS:     351345
cpu0_L2C AVERAGE iMISS LATENCY: 38.0257 cycles
cpu0_L2C AVERAGE dMISS LATENCY: 74.0981 cycles
cpu0_L2C AVERAGE itMISS LATENCY: 2.04652 cycles
cpu0_L2C AVERAGE dtMISS LATENCY: 14.5325 cycles
cpu0_L2C PAGE CROSSINGS (TLB HIT):         0 
cpu0_L2C PAGE CROSSINGS (TLB MISS):         0 
cpu0_L2C AVERAGE MISS LATENCY: 128.703 cycles
LLC TOTAL       ACCESS:    4792725  HIT:    1711441  MISS:    3081284  iACCESS:    1589753  iHIT:     631965  iMISS:     957788  dACCESS:    2773271  dHIT:    1024639  dMISS:    1748632  itACCESS:      53852  itHIT:       4634  itMISS:      49218  dtACCESS:     375849  dtHIT:      50203  dtMISS:     325646
LLC LOAD         ACCESS:    1151396  HIT:     442026  MISS:     709370  iACCESS:     365966  iHIT:     160924  iMISS:     205042  dACCESS:     785430  dHIT:     281102  dMISS:     504328  itACCESS:          0  itHIT:          0  itMISS:          0  dtACCESS:          0  dtHIT:          0  dtMISS:          0
LLC RFO          ACCESS:     145234  HIT:      50364  MISS:      94870  iACCESS:          0  iHIT:          0  iMISS:          0  dACCESS:     145234  dHIT:      50364  dMISS:      94870  itACCESS:          0  itHIT:          0  itMISS:          0  dtACCESS:          0  dtHIT:          0  dtMISS:          0
LLC PREFETCH     ACCESS:    2840603  HIT:     947246  MISS:    1893357  iACCESS:    1223787  iHIT:     471041  iMISS:     752746  dACCESS:    1616816  dHIT:     476205  dMISS:    1140611  itACCESS:          0  itHIT:          0  itMISS:          0  dtACCESS:          0  dtHIT:          0  dtMISS:          0
LLC WRITE        ACCESS:     225791  HIT:     216968  MISS:       8823  iACCESS:          0  iHIT:          0  iMISS:          0  dACCESS:     225791  dHIT:     216968  dMISS:       8823  itACCESS:          0  itHIT:          0  itMISS:          0  dtACCESS:          0  dtHIT:          0  dtMISS:          0
LLC TRANSLATION  ACCESS:     429701  HIT:      54837  MISS:     374864  iACCESS:          0  iHIT:          0  iMISS:          0  dACCESS:          0  dHIT:          0  dMISS:          0  itACCESS:      53852  itHIT:       4634  itMISS:      49218  dtACCESS:     375849  dtHIT:      50203  dtMISS:     325646
LLC PREFETCH  REQUESTED:          0  ISSUED:          0  CROSSED:          0  USEFUL:          0  USELESS:          0
LLC AVERAGE iMISS LATENCY: 49.5239 cycles
LLC AVERAGE dMISS LATENCY: 101.013 cycles
LLC AVERAGE itMISS LATENCY: 2.86416 cycles
LLC AVERAGE dtMISS LATENCY: 20.3892 cycles
LLC PAGE CROSSINGS (TLB HIT):         0 
LLC PAGE CROSSINGS (TLB MISS):         0 
LLC AVERAGE MISS LATENCY: 173.79 cycles

PageTableWalker TOTAL       ACCESS:     188734  
PageTableWalker AVERAGE LATENCY: 6.50504 cycles
PageTableWalker TOTAL LATENCY: 1227721 cycles

DRAM Statistics
Channel 0
 RQ ROW_BUFFER_HIT:     642346
  ROW_BUFFER_MISS:    2409256
 AVG DBUS CONGESTED CYCLE:    3.65363
 WQ ROW_BUFFER_HIT:      67476
  ROW_BUFFER_MISS:      57759  FULL:          0

