last_page:0x200000000000000
VMEM_RES_CAP:0x100000
PAGE_SIZE:4096
LOG2_PAGE_SIZE:12
LOG2_PAGE_TABLE_SIZE:9
page_table_levels:5
WARNING: physical memory size is smaller than virtual memory size
FDiP enabled with aggresivity 16

*** ChampSim Multicore Out-of-Order Simulator ***

Warmup Instructions: 50000000
Simulation Instructions: 100000000
Number of CPUs: 1
Small page size: 4096
Large page size: 2097152

CPU 0 Bimodal branch predictor
Basic BTB sets: 1024 ways: 8 indirect buffer size: 4096 RAS size: 64
Instruction page size distrubution: 0
Loading instruction page size distribution from /home/bsc/bsc018186/scratch/itp_asplos25_AE/dump/smt_srv85_ap_srv180_ap_1024i.pdst
Data page size distrubution: 0
Loading data page size distribution from /home/bsc/bsc018186/scratch/itp_asplos25_AE/dump/smt_srv85_ap_srv180_ap_1024i.pdst
cpu0_L2C IP-based stride prefetcher
cpu0_L1D next line prefetcher
cpu0_STLB using iTP with max lru@8
cpu0_STLB using iTP with instr@0 and data@2
Init sat counter with 3 bits (max:50).
cpu0_L1I next line prefetcher
Off-chip DRAM Size: 4 GiB Channels: 1 Width: 64-bit Data Rate: 3200 MT/s
Heartbeat CPU 0 instructions: 10000000 cycles: 2500450 heartbeat IPC: 3.99929 cumulative IPC: 3.99929 (Simulation time: 0 hr 0 min 54 sec) 
Heartbeat CPU 0 instructions: 20000001 cycles: 5000551 heartbeat IPC: 3.99984 cumulative IPC: 3.99956 (Simulation time: 0 hr 1 min 55 sec) 
Heartbeat CPU 0 instructions: 30000003 cycles: 7500684 heartbeat IPC: 3.99979 cumulative IPC: 3.99964 (Simulation time: 0 hr 2 min 56 sec) 
Heartbeat CPU 0 instructions: 40000002 cycles: 10000926 heartbeat IPC: 3.99962 cumulative IPC: 3.99963 (Simulation time: 0 hr 3 min 57 sec) 
Heartbeat CPU 0 instructions: 50000001 cycles: 12501042 heartbeat IPC: 3.99982 cumulative IPC: 3.99967 (Simulation time: 0 hr 5 min 1 sec) 
Warmup finished CPU 0 instructions: 50000001 cycles: 12501043 cumulative IPC: 3.99967 (Simulation time: 0 hr 5 min 1 sec) 

Warmup complete CPU 0 instructions: 50000001 cycles: 12501043 (Simulation time: 0 hr 5 min 1 sec) 

Heartbeat CPU 0 instructions: 60000004 cycles: 39238054 heartbeat IPC: 0.374014 cumulative IPC: 0.374014 (Simulation time: 0 hr 6 min 55 sec) 
Heartbeat CPU 0 instructions: 70000003 cycles: 65241199 heartbeat IPC: 0.384569 cumulative IPC: 0.379218 (Simulation time: 0 hr 8 min 50 sec) 
Heartbeat CPU 0 instructions: 80000002 cycles: 92509357 heartbeat IPC: 0.366729 cumulative IPC: 0.374962 (Simulation time: 0 hr 10 min 52 sec) 
Heartbeat CPU 0 instructions: 90000002 cycles: 119322385 heartbeat IPC: 0.372954 cumulative IPC: 0.374458 (Simulation time: 0 hr 12 min 51 sec) 
Heartbeat CPU 0 instructions: 100000000 cycles: 146027451 heartbeat IPC: 0.374461 cumulative IPC: 0.374458 (Simulation time: 0 hr 14 min 50 sec) 
Heartbeat CPU 0 instructions: 110000000 cycles: 173378916 heartbeat IPC: 0.365612 cumulative IPC: 0.372954 (Simulation time: 0 hr 16 min 53 sec) 
Heartbeat CPU 0 instructions: 120000001 cycles: 199980103 heartbeat IPC: 0.375924 cumulative IPC: 0.373376 (Simulation time: 0 hr 18 min 52 sec) 
Heartbeat CPU 0 instructions: 130000000 cycles: 225882500 heartbeat IPC: 0.386065 cumulative IPC: 0.374916 (Simulation time: 0 hr 20 min 49 sec) 
Heartbeat CPU 0 instructions: 140000004 cycles: 253030423 heartbeat IPC: 0.368353 cumulative IPC: 0.374175 (Simulation time: 0 hr 22 min 53 sec) 
Heartbeat CPU 0 instructions: 150000000 cycles: 279867133 heartbeat IPC: 0.372624 cumulative IPC: 0.37402 (Simulation time: 0 hr 24 min 52 sec) 
Simulation finished CPU 0 instructions: 100000004 cycles: 267366092 cumulative IPC: 0.37402 (Simulation time: 0 hr 24 min 52 sec) 

Simulation complete CPU 0 instructions: 100000004 cycles: 267366092 (Simulation time: 0 hr 24 min 52 sec) 


ChampSim completed all CPUs

Saving instructions large page distribution to /home/bsc/bsc018186/scratch/itp_asplos25_AE/dump/smt_srv85_ap_srv180_ap_1024i.pdst...
Saving data large page distribution to /home/bsc/bsc018186/scratch/itp_asplos25_AE/dump/smt_srv85_ap_srv180_ap_1024i.pdst...
=== Simulation ===
CPU 0 runs /gpfs/projects/bsc18/MN4/bsc18/romol/ChampSim/traces/qualcomm_srv/smt_srv85_ap_srv180_ap_1024i.champsimtrace.xz

Region of Interest Statistics

CPU 0 cumulative IPC: 0.37402 instructions: 100000004 cycles: 267366092
CPU 0 Branch Prediction Accuracy: 75.818% MPKI: 43.4496 Average ROB Occupancy at Mispredict: 11.1806
Branch type MPKI
BRANCH_DIRECT_JUMP: 1.30954
BRANCH_INDIRECT: 22.6756
BRANCH_CONDITIONAL: 12.6136
BRANCH_DIRECT_CALL: 2.49478
BRANCH_INDIRECT_CALL: 0.92066
BRANCH_RETURN: 3.43539

Instructions large pages: 0
Instructions small pages: 13336
Large page distribution for instructions: 0%

Data large pages: 0
Data small pages: 12088
Large page distribution for data: 0%

cpu0_L1I TOTAL       ACCESS:   39433091  HIT:   30272666  MISS:    9160425  iACCESS:   39433091  iHIT:   30272666  iMISS:    9160425  dACCESS:          0  dHIT:          0  dMISS:          0  itACCESS:          0  itHIT:          0  itMISS:          0  dtACCESS:          0  dtHIT:          0  dtMISS:          0
cpu0_L1I LOAD         ACCESS:   11843719  HIT:    9353050  MISS:    2490669  iACCESS:   11843719  iHIT:    9353050  iMISS:    2490669  dACCESS:          0  dHIT:          0  dMISS:          0  itACCESS:          0  itHIT:          0  itMISS:          0  dtACCESS:          0  dtHIT:          0  dtMISS:          0
cpu0_L1I RFO          ACCESS:          0  HIT:          0  MISS:          0  iACCESS:          0  iHIT:          0  iMISS:          0  dACCESS:          0  dHIT:          0  dMISS:          0  itACCESS:          0  itHIT:          0  itMISS:          0  dtACCESS:          0  dtHIT:          0  dtMISS:          0
cpu0_L1I PREFETCH     ACCESS:   27589372  HIT:   20919616  MISS:    6669756  iACCESS:   27589372  iHIT:   20919616  iMISS:    6669756  dACCESS:          0  dHIT:          0  dMISS:          0  itACCESS:          0  itHIT:          0  itMISS:          0  dtACCESS:          0  dtHIT:          0  dtMISS:          0
cpu0_L1I WRITE        ACCESS:          0  HIT:          0  MISS:          0  iACCESS:          0  iHIT:          0  iMISS:          0  dACCESS:          0  dHIT:          0  dMISS:          0  itACCESS:          0  itHIT:          0  itMISS:          0  dtACCESS:          0  dtHIT:          0  dtMISS:          0
cpu0_L1I TRANSLATION  ACCESS:          0  HIT:          0  MISS:          0  iACCESS:          0  iHIT:          0  iMISS:          0  dACCESS:          0  dHIT:          0  dMISS:          0  itACCESS:          0  itHIT:          0  itMISS:          0  dtACCESS:          0  dtHIT:          0  dtMISS:          0
cpu0_L1I PREFETCH  REQUESTED:   30270843  ISSUED:   30269483  CROSSED:          0  USEFUL:    2201878  USELESS:     751123
cpu0_L1I AVERAGE iMISS LATENCY: 23.1023 cycles
cpu0_L1I AVERAGE dMISS LATENCY: 0 cycles
cpu0_L1I AVERAGE itMISS LATENCY: 0 cycles
cpu0_L1I AVERAGE dtMISS LATENCY: 0 cycles
cpu0_L1I PAGE CROSSINGS (TLB HIT):         0 
cpu0_L1I PAGE CROSSINGS (TLB MISS):         0 
cpu0_L1I AVERAGE MISS LATENCY: 23.1023 cycles
cpu0_ITLB TOTAL       ACCESS:   33074269  HIT:   30882304  MISS:    2191965  iACCESS:   33074269  iHIT:   30882304  iMISS:    2191965  dACCESS:          0  dHIT:          0  dMISS:          0  itACCESS:          0  itHIT:          0  itMISS:          0  dtACCESS:          0  dtHIT:          0  dtMISS:          0
cpu0_ITLB LOAD         ACCESS:   33074269  HIT:   30882304  MISS:    2191965  iACCESS:   33074269  iHIT:   30882304  iMISS:    2191965  dACCESS:          0  dHIT:          0  dMISS:          0  itACCESS:          0  itHIT:          0  itMISS:          0  dtACCESS:          0  dtHIT:          0  dtMISS:          0
cpu0_ITLB RFO          ACCESS:          0  HIT:          0  MISS:          0  iACCESS:          0  iHIT:          0  iMISS:          0  dACCESS:          0  dHIT:          0  dMISS:          0  itACCESS:          0  itHIT:          0  itMISS:          0  dtACCESS:          0  dtHIT:          0  dtMISS:          0
cpu0_ITLB PREFETCH     ACCESS:          0  HIT:          0  MISS:          0  iACCESS:          0  iHIT:          0  iMISS:          0  dACCESS:          0  dHIT:          0  dMISS:          0  itACCESS:          0  itHIT:          0  itMISS:          0  dtACCESS:          0  dtHIT:          0  dtMISS:          0
cpu0_ITLB WRITE        ACCESS:          0  HIT:          0  MISS:          0  iACCESS:          0  iHIT:          0  iMISS:          0  dACCESS:          0  dHIT:          0  dMISS:          0  itACCESS:          0  itHIT:          0  itMISS:          0  dtACCESS:          0  dtHIT:          0  dtMISS:          0
cpu0_ITLB TRANSLATION  ACCESS:          0  HIT:          0  MISS:          0  iACCESS:          0  iHIT:          0  iMISS:          0  dACCESS:          0  dHIT:          0  dMISS:          0  itACCESS:          0  itHIT:          0  itMISS:          0  dtACCESS:          0  dtHIT:          0  dtMISS:          0
cpu0_ITLB PREFETCH  REQUESTED:          0  ISSUED:          0  CROSSED:          0  USEFUL:     383579  USELESS:      77335
cpu0_ITLB AVERAGE iMISS LATENCY: 5.10463 cycles
cpu0_ITLB AVERAGE dMISS LATENCY: 0 cycles
cpu0_ITLB AVERAGE itMISS LATENCY: 0 cycles
cpu0_ITLB AVERAGE dtMISS LATENCY: 0 cycles
cpu0_ITLB PAGE CROSSINGS (TLB HIT):         0 
cpu0_ITLB PAGE CROSSINGS (TLB MISS):         0 
cpu0_ITLB AVERAGE MISS LATENCY: 5.10463 cycles
cpu0_DTLB TOTAL       ACCESS:   28785619  HIT:   25099658  MISS:    3685961  iACCESS:          0  iHIT:          0  iMISS:          0  dACCESS:   28785619  dHIT:   25099658  dMISS:    3685961  itACCESS:          0  itHIT:          0  itMISS:          0  dtACCESS:          0  dtHIT:          0  dtMISS:          0
cpu0_DTLB LOAD         ACCESS:   28785619  HIT:   25099658  MISS:    3685961  iACCESS:          0  iHIT:          0  iMISS:          0  dACCESS:   28785619  dHIT:   25099658  dMISS:    3685961  itACCESS:          0  itHIT:          0  itMISS:          0  dtACCESS:          0  dtHIT:          0  dtMISS:          0
cpu0_DTLB RFO          ACCESS:          0  HIT:          0  MISS:          0  iACCESS:          0  iHIT:          0  iMISS:          0  dACCESS:          0  dHIT:          0  dMISS:          0  itACCESS:          0  itHIT:          0  itMISS:          0  dtACCESS:          0  dtHIT:          0  dtMISS:          0
cpu0_DTLB PREFETCH     ACCESS:          0  HIT:          0  MISS:          0  iACCESS:          0  iHIT:          0  iMISS:          0  dACCESS:          0  dHIT:          0  dMISS:          0  itACCESS:          0  itHIT:          0  itMISS:          0  dtACCESS:          0  dtHIT:          0  dtMISS:          0
cpu0_DTLB WRITE        ACCESS:          0  HIT:          0  MISS:          0  iACCESS:          0  iHIT:          0  iMISS:          0  dACCESS:          0  dHIT:          0  dMISS:          0  itACCESS:          0  itHIT:          0  itMISS:          0  dtACCESS:          0  dtHIT:          0  dtMISS:          0
cpu0_DTLB TRANSLATION  ACCESS:          0  HIT:          0  MISS:          0  iACCESS:          0  iHIT:          0  iMISS:          0  dACCESS:          0  dHIT:          0  dMISS:          0  itACCESS:          0  itHIT:          0  itMISS:          0  dtACCESS:          0  dtHIT:          0  dtMISS:          0
cpu0_DTLB PREFETCH  REQUESTED:          0  ISSUED:          0  CROSSED:          0  USEFUL:          0  USELESS:          0
cpu0_DTLB AVERAGE iMISS LATENCY: 0 cycles
cpu0_DTLB AVERAGE dMISS LATENCY: 18.3313 cycles
cpu0_DTLB AVERAGE itMISS LATENCY: 0 cycles
cpu0_DTLB AVERAGE dtMISS LATENCY: 0 cycles
cpu0_DTLB PAGE CROSSINGS (TLB HIT):         0 
cpu0_DTLB PAGE CROSSINGS (TLB MISS):         0 
cpu0_DTLB AVERAGE MISS LATENCY: 18.3313 cycles
cpu0_STLB TOTAL       ACCESS:    2609135  HIT:    2244533  MISS:     364602  iACCESS:     460925  iHIT:     410732  iMISS:      50193  dACCESS:    2148210  dHIT:    1833801  dMISS:     314409  itACCESS:          0  itHIT:          0  itMISS:          0  dtACCESS:          0  dtHIT:          0  dtMISS:          0
cpu0_STLB LOAD         ACCESS:    2609135  HIT:    2244533  MISS:     364602  iACCESS:     460925  iHIT:     410732  iMISS:      50193  dACCESS:    2148210  dHIT:    1833801  dMISS:     314409  itACCESS:          0  itHIT:          0  itMISS:          0  dtACCESS:          0  dtHIT:          0  dtMISS:          0
cpu0_STLB RFO          ACCESS:          0  HIT:          0  MISS:          0  iACCESS:          0  iHIT:          0  iMISS:          0  dACCESS:          0  dHIT:          0  dMISS:          0  itACCESS:          0  itHIT:          0  itMISS:          0  dtACCESS:          0  dtHIT:          0  dtMISS:          0
cpu0_STLB PREFETCH     ACCESS:          0  HIT:          0  MISS:          0  iACCESS:          0  iHIT:          0  iMISS:          0  dACCESS:          0  dHIT:          0  dMISS:          0  itACCESS:          0  itHIT:          0  itMISS:          0  dtACCESS:          0  dtHIT:          0  dtMISS:          0
cpu0_STLB WRITE        ACCESS:          0  HIT:          0  MISS:          0  iACCESS:          0  iHIT:          0  iMISS:          0  dACCESS:          0  dHIT:          0  dMISS:          0  itACCESS:          0  itHIT:          0  itMISS:          0  dtACCESS:          0  dtHIT:          0  dtMISS:          0
cpu0_STLB TRANSLATION  ACCESS:          0  HIT:          0  MISS:          0  iACCESS:          0  iHIT:          0  iMISS:          0  dACCESS:          0  dHIT:          0  dMISS:          0  itACCESS:          0  itHIT:          0  itMISS:          0  dtACCESS:          0  dtHIT:          0  dtMISS:          0
cpu0_STLB PREFETCH  REQUESTED:          0  ISSUED:          0  CROSSED:          0  USEFUL:          0  USELESS:          0
cpu0_STLB AVERAGE iMISS LATENCY: 20.7768 cycles
cpu0_STLB AVERAGE dMISS LATENCY: 137.85 cycles
cpu0_STLB AVERAGE itMISS LATENCY: 0 cycles
cpu0_STLB AVERAGE dtMISS LATENCY: 0 cycles
cpu0_STLB PAGE CROSSINGS (TLB HIT):         0 
cpu0_STLB PAGE CROSSINGS (TLB MISS):         0 
cpu0_STLB AVERAGE MISS LATENCY: 158.627 cycles
cpu0_L1D TOTAL       ACCESS:   44384566  HIT:   39080386  MISS:    5304180  iACCESS:          0  iHIT:          0  iMISS:          0  dACCESS:   43819980  dHIT:   39051638  dMISS:    4768342  itACCESS:      60677  itHIT:       4630  itMISS:      56047  dtACCESS:     503909  dtHIT:      24118  dtMISS:     479791
cpu0_L1D LOAD         ACCESS:   19989551  HIT:   17856566  MISS:    2132985  iACCESS:          0  iHIT:          0  iMISS:          0  dACCESS:   19989551  dHIT:   17856566  dMISS:    2132985  itACCESS:          0  itHIT:          0  itMISS:          0  dtACCESS:          0  dtHIT:          0  dtMISS:          0
cpu0_L1D RFO          ACCESS:          0  HIT:          0  MISS:          0  iACCESS:          0  iHIT:          0  iMISS:          0  dACCESS:          0  dHIT:          0  dMISS:          0  itACCESS:          0  itHIT:          0  itMISS:          0  dtACCESS:          0  dtHIT:          0  dtMISS:          0
cpu0_L1D PREFETCH     ACCESS:   13693433  HIT:   11620484  MISS:    2072949  iACCESS:          0  iHIT:          0  iMISS:          0  dACCESS:   13693433  dHIT:   11620484  dMISS:    2072949  itACCESS:          0  itHIT:          0  itMISS:          0  dtACCESS:          0  dtHIT:          0  dtMISS:          0
cpu0_L1D WRITE        ACCESS:   10136996  HIT:    9574588  MISS:     562408  iACCESS:          0  iHIT:          0  iMISS:          0  dACCESS:   10136996  dHIT:    9574588  dMISS:     562408  itACCESS:          0  itHIT:          0  itMISS:          0  dtACCESS:          0  dtHIT:          0  dtMISS:          0
cpu0_L1D TRANSLATION  ACCESS:     564586  HIT:      28748  MISS:     535838  iACCESS:          0  iHIT:          0  iMISS:          0  dACCESS:          0  dHIT:          0  dMISS:          0  itACCESS:      60677  itHIT:       4630  itMISS:      56047  dtACCESS:     503909  dtHIT:      24118  dtMISS:     479791
cpu0_L1D PREFETCH  REQUESTED:   19989551  ISSUED:   18347332  CROSSED:          0  USEFUL:     358447  USELESS:     934203
cpu0_L1D AVERAGE iMISS LATENCY: 0 cycles
cpu0_L1D AVERAGE dMISS LATENCY: 51.938 cycles
cpu0_L1D AVERAGE itMISS LATENCY: 1.33029 cycles
cpu0_L1D AVERAGE dtMISS LATENCY: 8.36586 cycles
cpu0_L1D PAGE CROSSINGS (TLB HIT):         0 
cpu0_L1D PAGE CROSSINGS (TLB MISS):         0 
cpu0_L1D AVERAGE MISS LATENCY: 61.6341 cycles
cpu0_L2C TOTAL       ACCESS:    8587998  HIT:    1576746  MISS:    7011252  iACCESS:    3751840  iHIT:     819162  iMISS:    2932678  dACCESS:    4328660  dHIT:     547577  dMISS:    3781083  itACCESS:      55229  itHIT:      15487  itMISS:      39742  dtACCESS:     452269  dtHIT:     194520  dtMISS:     257749
cpu0_L2C LOAD         ACCESS:    2046150  HIT:     215803  MISS:    1830347  iACCESS:     835569  iHIT:     117622  iMISS:     717947  dACCESS:    1210581  dHIT:      98181  dMISS:    1112400  itACCESS:          0  itHIT:          0  itMISS:          0  dtACCESS:          0  dtHIT:          0  dtMISS:          0
cpu0_L2C RFO          ACCESS:     210452  HIT:      28045  MISS:     182407  iACCESS:          0  iHIT:          0  iMISS:          0  dACCESS:     210452  dHIT:      28045  dMISS:     182407  itACCESS:          0  itHIT:          0  itMISS:          0  dtACCESS:          0  dtHIT:          0  dtMISS:          0
cpu0_L2C PREFETCH     ACCESS:    5477235  HIT:    1013309  MISS:    4463926  iACCESS:    2916271  iHIT:     701540  iMISS:    2214731  dACCESS:    2560964  dHIT:     311769  dMISS:    2249195  itACCESS:          0  itHIT:          0  itMISS:          0  dtACCESS:          0  dtHIT:          0  dtMISS:          0
cpu0_L2C WRITE        ACCESS:     346663  HIT:     109582  MISS:     237081  iACCESS:          0  iHIT:          0  iMISS:          0  dACCESS:     346663  dHIT:     109582  dMISS:     237081  itACCESS:          0  itHIT:          0  itMISS:          0  dtACCESS:          0  dtHIT:          0  dtMISS:          0
cpu0_L2C TRANSLATION  ACCESS:     507498  HIT:     210007  MISS:     297491  iACCESS:          0  iHIT:          0  iMISS:          0  dACCESS:          0  dHIT:          0  dMISS:          0  itACCESS:      55229  itHIT:      15487  itMISS:      39742  dtACCESS:     452269  dtHIT:     194520  dtMISS:     257749
cpu0_L2C PREFETCH  REQUESTED:    1517259  ISSUED:    1517256  CROSSED:          0  USEFUL:     413142  USELESS:     484816
cpu0_L2C AVERAGE iMISS LATENCY: 25.5461 cycles
cpu0_L2C AVERAGE dMISS LATENCY: 48.3561 cycles
cpu0_L2C AVERAGE itMISS LATENCY: 0.929621 cycles
cpu0_L2C AVERAGE dtMISS LATENCY: 5.70861 cycles
cpu0_L2C PAGE CROSSINGS (TLB HIT):         0 
cpu0_L2C PAGE CROSSINGS (TLB MISS):         0 
cpu0_L2C AVERAGE MISS LATENCY: 80.5404 cycles
LLC TOTAL       ACCESS:    6828589  HIT:    4262375  MISS:    2566214  iACCESS:    2838776  iHIT:    2051984  iMISS:     786792  dACCESS:    3692322  dHIT:    2131547  dMISS:    1560775  itACCESS:      39742  itHIT:       7504  itMISS:      32238  dtACCESS:     257749  dtHIT:      71340  dtMISS:     186409
LLC LOAD         ACCESS:    1824627  HIT:    1210591  MISS:     614036  iACCESS:     716598  iHIT:     553480  iMISS:     163118  dACCESS:    1108029  dHIT:     657111  dMISS:     450918  itACCESS:          0  itHIT:          0  itMISS:          0  dtACCESS:          0  dtHIT:          0  dtMISS:          0
LLC RFO          ACCESS:     182356  HIT:      96266  MISS:      86090  iACCESS:          0  iHIT:          0  iMISS:          0  dACCESS:     182356  dHIT:      96266  dMISS:      86090  itACCESS:          0  itHIT:          0  itMISS:          0  dtACCESS:          0  dtHIT:          0  dtMISS:          0
LLC PREFETCH     ACCESS:    4253524  HIT:    2613630  MISS:    1639894  iACCESS:    2122178  iHIT:    1498504  iMISS:     623674  dACCESS:    2131346  dHIT:    1115126  dMISS:    1016220  itACCESS:          0  itHIT:          0  itMISS:          0  dtACCESS:          0  dtHIT:          0  dtMISS:          0
LLC WRITE        ACCESS:     270591  HIT:     263044  MISS:       7547  iACCESS:          0  iHIT:          0  iMISS:          0  dACCESS:     270591  dHIT:     263044  dMISS:       7547  itACCESS:          0  itHIT:          0  itMISS:          0  dtACCESS:          0  dtHIT:          0  dtMISS:          0
LLC TRANSLATION  ACCESS:     297491  HIT:      78844  MISS:     218647  iACCESS:          0  iHIT:          0  iMISS:          0  dACCESS:          0  dHIT:          0  dMISS:          0  itACCESS:      39742  itHIT:       7504  itMISS:      32238  dtACCESS:     257749  dtHIT:      71340  dtMISS:     186409
LLC PREFETCH  REQUESTED:          0  ISSUED:          0  CROSSED:          0  USEFUL:          0  USELESS:          0
LLC AVERAGE iMISS LATENCY: 48.3274 cycles
LLC AVERAGE dMISS LATENCY: 106.826 cycles
LLC AVERAGE itMISS LATENCY: 2.2342 cycles
LLC AVERAGE dtMISS LATENCY: 13.6209 cycles
LLC PAGE CROSSINGS (TLB HIT):         0 
LLC PAGE CROSSINGS (TLB MISS):         0 
LLC AVERAGE MISS LATENCY: 171.008 cycles

PageTableWalker TOTAL       ACCESS:     180960  
PageTableWalker AVERAGE LATENCY: 6.24833 cycles
PageTableWalker TOTAL LATENCY: 1130696 cycles

DRAM Statistics
Channel 0
 RQ ROW_BUFFER_HIT:     578121
  ROW_BUFFER_MISS:    1969801
 AVG DBUS CONGESTED CYCLE:    3.65031
 WQ ROW_BUFFER_HIT:      63400
  ROW_BUFFER_MISS:      61014  FULL:          0

