last_page:0x200000000000000
VMEM_RES_CAP:0x100000
PAGE_SIZE:4096
LOG2_PAGE_SIZE:12
LOG2_PAGE_TABLE_SIZE:9
page_table_levels:5
WARNING: physical memory size is smaller than virtual memory size
FDiP enabled with aggresivity 16

*** ChampSim Multicore Out-of-Order Simulator ***

Warmup Instructions: 50000000
Simulation Instructions: 100000000
Number of CPUs: 1
Small page size: 4096
Large page size: 2097152

CPU 0 Bimodal branch predictor
Basic BTB sets: 1024 ways: 8 indirect buffer size: 4096 RAS size: 64
Instruction page size distrubution: 0
Loading instruction page size distribution from /home/bsc/bsc018186/scratch/itp_asplos25_AE/dump/smt_srv207_ap_srv727_ap_1024i.pdst
Data page size distrubution: 0
Loading data page size distribution from /home/bsc/bsc018186/scratch/itp_asplos25_AE/dump/smt_srv207_ap_srv727_ap_1024i.pdst
cpu0_L2C IP-based stride prefetcher
cpu0_L2C is using PTP replacement policy:
	TLB_STRESS_THRESHOLD:0
	PTE_EVICTION_RATIO:0
cpu0_L1D next line prefetcher
CHiRPing...
cpu0_L1I next line prefetcher
Off-chip DRAM Size: 4 GiB Channels: 1 Width: 64-bit Data Rate: 3200 MT/s
Heartbeat CPU 0 instructions: 10000002 cycles: 2501019 heartbeat IPC: 3.99838 cumulative IPC: 3.99838 (Simulation time: 0 hr 0 min 36 sec) 
Heartbeat CPU 0 instructions: 20000003 cycles: 5001380 heartbeat IPC: 3.99943 cumulative IPC: 3.9989 (Simulation time: 0 hr 1 min 14 sec) 
Heartbeat CPU 0 instructions: 30000001 cycles: 7501810 heartbeat IPC: 3.99932 cumulative IPC: 3.99904 (Simulation time: 0 hr 1 min 52 sec) 
Heartbeat CPU 0 instructions: 40000001 cycles: 10002388 heartbeat IPC: 3.99908 cumulative IPC: 3.99905 (Simulation time: 0 hr 2 min 31 sec) 
Heartbeat CPU 0 instructions: 50000001 cycles: 12502721 heartbeat IPC: 3.99947 cumulative IPC: 3.99913 (Simulation time: 0 hr 3 min 10 sec) 
Warmup finished CPU 0 instructions: 50000001 cycles: 12502722 cumulative IPC: 3.99913 (Simulation time: 0 hr 3 min 10 sec) 

Warmup complete CPU 0 instructions: 50000001 cycles: 12502722 (Simulation time: 0 hr 3 min 10 sec) 

Heartbeat CPU 0 instructions: 60000004 cycles: 42603236 heartbeat IPC: 0.332221 cumulative IPC: 0.332221 (Simulation time: 0 hr 4 min 31 sec) 
Heartbeat CPU 0 instructions: 70000004 cycles: 73684986 heartbeat IPC: 0.321733 cumulative IPC: 0.326893 (Simulation time: 0 hr 5 min 54 sec) 
Heartbeat CPU 0 instructions: 80000001 cycles: 105923571 heartbeat IPC: 0.310188 cumulative IPC: 0.321128 (Simulation time: 0 hr 7 min 19 sec) 
Heartbeat CPU 0 instructions: 90000000 cycles: 137711986 heartbeat IPC: 0.31458 cumulative IPC: 0.319466 (Simulation time: 0 hr 8 min 44 sec) 
Heartbeat CPU 0 instructions: 100000000 cycles: 168785659 heartbeat IPC: 0.321816 cumulative IPC: 0.319933 (Simulation time: 0 hr 10 min 7 sec) 
Heartbeat CPU 0 instructions: 110000000 cycles: 200884259 heartbeat IPC: 0.311541 cumulative IPC: 0.318503 (Simulation time: 0 hr 11 min 32 sec) 
Heartbeat CPU 0 instructions: 120000002 cycles: 232079750 heartbeat IPC: 0.32056 cumulative IPC: 0.318795 (Simulation time: 0 hr 12 min 56 sec) 
Heartbeat CPU 0 instructions: 130000000 cycles: 262374628 heartbeat IPC: 0.330089 cumulative IPC: 0.320165 (Simulation time: 0 hr 14 min 19 sec) 
Heartbeat CPU 0 instructions: 140000002 cycles: 294435500 heartbeat IPC: 0.311907 cumulative IPC: 0.319226 (Simulation time: 0 hr 15 min 44 sec) 
Heartbeat CPU 0 instructions: 150000000 cycles: 325265271 heartbeat IPC: 0.324362 cumulative IPC: 0.319732 (Simulation time: 0 hr 17 min 7 sec) 
Simulation finished CPU 0 instructions: 100000004 cycles: 312762551 cumulative IPC: 0.319732 (Simulation time: 0 hr 17 min 7 sec) 

Simulation complete CPU 0 instructions: 100000004 cycles: 312762551 (Simulation time: 0 hr 17 min 7 sec) 


ChampSim completed all CPUs

Saving instructions large page distribution to /home/bsc/bsc018186/scratch/itp_asplos25_AE/dump/smt_srv207_ap_srv727_ap_1024i.pdst...
Saving data large page distribution to /home/bsc/bsc018186/scratch/itp_asplos25_AE/dump/smt_srv207_ap_srv727_ap_1024i.pdst...
=== Simulation ===
CPU 0 runs /gpfs/projects/bsc18/MN4/bsc18/romol/ChampSim/traces/qualcomm_srv/smt_srv207_ap_srv727_ap_1024i.champsimtrace.xz

Region of Interest Statistics

CPU 0 cumulative IPC: 0.319732 instructions: 100000004 cycles: 312762551
CPU 0 Branch Prediction Accuracy: 74.5167% MPKI: 45.8478 Average ROB Occupancy at Mispredict: 10.8332
Branch type MPKI
BRANCH_DIRECT_JUMP: 1.43368
BRANCH_INDIRECT: 24.037
BRANCH_CONDITIONAL: 13.0153
BRANCH_DIRECT_CALL: 2.7401
BRANCH_INDIRECT_CALL: 1.02377
BRANCH_RETURN: 3.59798

Instructions large pages: 0
Instructions small pages: 11368
Large page distribution for instructions: 0%

Data large pages: 0
Data small pages: 9849
Large page distribution for data: 0%

cpu0_L1I TOTAL       ACCESS:   39011584  HIT:   30270300  MISS:    8741284  iACCESS:   39011584  iHIT:   30270300  iMISS:    8741284  dACCESS:          0  dHIT:          0  dMISS:          0  itACCESS:          0  itHIT:          0  itMISS:          0  dtACCESS:          0  dtHIT:          0  dtMISS:          0
cpu0_L1I LOAD         ACCESS:   11535795  HIT:    9154439  MISS:    2381356  iACCESS:   11535795  iHIT:    9154439  iMISS:    2381356  dACCESS:          0  dHIT:          0  dMISS:          0  itACCESS:          0  itHIT:          0  itMISS:          0  dtACCESS:          0  dtHIT:          0  dtMISS:          0
cpu0_L1I RFO          ACCESS:          0  HIT:          0  MISS:          0  iACCESS:          0  iHIT:          0  iMISS:          0  dACCESS:          0  dHIT:          0  dMISS:          0  itACCESS:          0  itHIT:          0  itMISS:          0  dtACCESS:          0  dtHIT:          0  dtMISS:          0
cpu0_L1I PREFETCH     ACCESS:   27475789  HIT:   21115861  MISS:    6359928  iACCESS:   27475789  iHIT:   21115861  iMISS:    6359928  dACCESS:          0  dHIT:          0  dMISS:          0  itACCESS:          0  itHIT:          0  itMISS:          0  dtACCESS:          0  dtHIT:          0  dtMISS:          0
cpu0_L1I WRITE        ACCESS:          0  HIT:          0  MISS:          0  iACCESS:          0  iHIT:          0  iMISS:          0  dACCESS:          0  dHIT:          0  dMISS:          0  itACCESS:          0  itHIT:          0  itMISS:          0  dtACCESS:          0  dtHIT:          0  dtMISS:          0
cpu0_L1I TRANSLATION  ACCESS:          0  HIT:          0  MISS:          0  iACCESS:          0  iHIT:          0  iMISS:          0  dACCESS:          0  dHIT:          0  dMISS:          0  itACCESS:          0  itHIT:          0  itMISS:          0  dtACCESS:          0  dtHIT:          0  dtMISS:          0
cpu0_L1I PREFETCH  REQUESTED:   30171938  ISSUED:   30171926  CROSSED:          0  USEFUL:    2207317  USELESS:     793767
cpu0_L1I AVERAGE iMISS LATENCY: 25.3736 cycles
cpu0_L1I AVERAGE dMISS LATENCY: 0 cycles
cpu0_L1I AVERAGE itMISS LATENCY: 0 cycles
cpu0_L1I AVERAGE dtMISS LATENCY: 0 cycles
cpu0_L1I PAGE CROSSINGS (TLB HIT):         0 
cpu0_L1I PAGE CROSSINGS (TLB MISS):         0 
cpu0_L1I AVERAGE MISS LATENCY: 25.3736 cycles
cpu0_ITLB TOTAL       ACCESS:   33147191  HIT:   30877862  MISS:    2269329  iACCESS:   33147191  iHIT:   30877862  iMISS:    2269329  dACCESS:          0  dHIT:          0  dMISS:          0  itACCESS:          0  itHIT:          0  itMISS:          0  dtACCESS:          0  dtHIT:          0  dtMISS:          0
cpu0_ITLB LOAD         ACCESS:   33147191  HIT:   30877862  MISS:    2269329  iACCESS:   33147191  iHIT:   30877862  iMISS:    2269329  dACCESS:          0  dHIT:          0  dMISS:          0  itACCESS:          0  itHIT:          0  itMISS:          0  dtACCESS:          0  dtHIT:          0  dtMISS:          0
cpu0_ITLB RFO          ACCESS:          0  HIT:          0  MISS:          0  iACCESS:          0  iHIT:          0  iMISS:          0  dACCESS:          0  dHIT:          0  dMISS:          0  itACCESS:          0  itHIT:          0  itMISS:          0  dtACCESS:          0  dtHIT:          0  dtMISS:          0
cpu0_ITLB PREFETCH     ACCESS:          0  HIT:          0  MISS:          0  iACCESS:          0  iHIT:          0  iMISS:          0  dACCESS:          0  dHIT:          0  dMISS:          0  itACCESS:          0  itHIT:          0  itMISS:          0  dtACCESS:          0  dtHIT:          0  dtMISS:          0
cpu0_ITLB WRITE        ACCESS:          0  HIT:          0  MISS:          0  iACCESS:          0  iHIT:          0  iMISS:          0  dACCESS:          0  dHIT:          0  dMISS:          0  itACCESS:          0  itHIT:          0  itMISS:          0  dtACCESS:          0  dtHIT:          0  dtMISS:          0
cpu0_ITLB TRANSLATION  ACCESS:          0  HIT:          0  MISS:          0  iACCESS:          0  iHIT:          0  iMISS:          0  dACCESS:          0  dHIT:          0  dMISS:          0  itACCESS:          0  itHIT:          0  itMISS:          0  dtACCESS:          0  dtHIT:          0  dtMISS:          0
cpu0_ITLB PREFETCH  REQUESTED:          0  ISSUED:          0  CROSSED:          0  USEFUL:     399115  USELESS:      82732
cpu0_ITLB AVERAGE iMISS LATENCY: 10.7705 cycles
cpu0_ITLB AVERAGE dMISS LATENCY: 0 cycles
cpu0_ITLB AVERAGE itMISS LATENCY: 0 cycles
cpu0_ITLB AVERAGE dtMISS LATENCY: 0 cycles
cpu0_ITLB PAGE CROSSINGS (TLB HIT):         0 
cpu0_ITLB PAGE CROSSINGS (TLB MISS):         0 
cpu0_ITLB AVERAGE MISS LATENCY: 10.7705 cycles
cpu0_DTLB TOTAL       ACCESS:   29218963  HIT:   25697808  MISS:    3521155  iACCESS:          0  iHIT:          0  iMISS:          0  dACCESS:   29218963  dHIT:   25697808  dMISS:    3521155  itACCESS:          0  itHIT:          0  itMISS:          0  dtACCESS:          0  dtHIT:          0  dtMISS:          0
cpu0_DTLB LOAD         ACCESS:   29218963  HIT:   25697808  MISS:    3521155  iACCESS:          0  iHIT:          0  iMISS:          0  dACCESS:   29218963  dHIT:   25697808  dMISS:    3521155  itACCESS:          0  itHIT:          0  itMISS:          0  dtACCESS:          0  dtHIT:          0  dtMISS:          0
cpu0_DTLB RFO          ACCESS:          0  HIT:          0  MISS:          0  iACCESS:          0  iHIT:          0  iMISS:          0  dACCESS:          0  dHIT:          0  dMISS:          0  itACCESS:          0  itHIT:          0  itMISS:          0  dtACCESS:          0  dtHIT:          0  dtMISS:          0
cpu0_DTLB PREFETCH     ACCESS:          0  HIT:          0  MISS:          0  iACCESS:          0  iHIT:          0  iMISS:          0  dACCESS:          0  dHIT:          0  dMISS:          0  itACCESS:          0  itHIT:          0  itMISS:          0  dtACCESS:          0  dtHIT:          0  dtMISS:          0
cpu0_DTLB WRITE        ACCESS:          0  HIT:          0  MISS:          0  iACCESS:          0  iHIT:          0  iMISS:          0  dACCESS:          0  dHIT:          0  dMISS:          0  itACCESS:          0  itHIT:          0  itMISS:          0  dtACCESS:          0  dtHIT:          0  dtMISS:          0
cpu0_DTLB TRANSLATION  ACCESS:          0  HIT:          0  MISS:          0  iACCESS:          0  iHIT:          0  iMISS:          0  dACCESS:          0  dHIT:          0  dMISS:          0  itACCESS:          0  itHIT:          0  itMISS:          0  dtACCESS:          0  dtHIT:          0  dtMISS:          0
cpu0_DTLB PREFETCH  REQUESTED:          0  ISSUED:          0  CROSSED:          0  USEFUL:          0  USELESS:          0
cpu0_DTLB AVERAGE iMISS LATENCY: 0 cycles
cpu0_DTLB AVERAGE dMISS LATENCY: 26.3734 cycles
cpu0_DTLB AVERAGE itMISS LATENCY: 0 cycles
cpu0_DTLB AVERAGE dtMISS LATENCY: 0 cycles
cpu0_DTLB PAGE CROSSINGS (TLB HIT):         0 
cpu0_DTLB PAGE CROSSINGS (TLB MISS):         0 
cpu0_DTLB AVERAGE MISS LATENCY: 26.3734 cycles
cpu0_STLB TOTAL       ACCESS:    2566960  HIT:    2174232  MISS:     392728  iACCESS:     481853  iHIT:     361760  iMISS:     120093  dACCESS:    2085107  dHIT:    1812472  dMISS:     272635  itACCESS:          0  itHIT:          0  itMISS:          0  dtACCESS:          0  dtHIT:          0  dtMISS:          0
cpu0_STLB LOAD         ACCESS:    2566960  HIT:    2174232  MISS:     392728  iACCESS:     481853  iHIT:     361760  iMISS:     120093  dACCESS:    2085107  dHIT:    1812472  dMISS:     272635  itACCESS:          0  itHIT:          0  itMISS:          0  dtACCESS:          0  dtHIT:          0  dtMISS:          0
cpu0_STLB RFO          ACCESS:          0  HIT:          0  MISS:          0  iACCESS:          0  iHIT:          0  iMISS:          0  dACCESS:          0  dHIT:          0  dMISS:          0  itACCESS:          0  itHIT:          0  itMISS:          0  dtACCESS:          0  dtHIT:          0  dtMISS:          0
cpu0_STLB PREFETCH     ACCESS:          0  HIT:          0  MISS:          0  iACCESS:          0  iHIT:          0  iMISS:          0  dACCESS:          0  dHIT:          0  dMISS:          0  itACCESS:          0  itHIT:          0  itMISS:          0  dtACCESS:          0  dtHIT:          0  dtMISS:          0
cpu0_STLB WRITE        ACCESS:          0  HIT:          0  MISS:          0  iACCESS:          0  iHIT:          0  iMISS:          0  dACCESS:          0  dHIT:          0  dMISS:          0  itACCESS:          0  itHIT:          0  itMISS:          0  dtACCESS:          0  dtHIT:          0  dtMISS:          0
cpu0_STLB TRANSLATION  ACCESS:          0  HIT:          0  MISS:          0  iACCESS:          0  iHIT:          0  iMISS:          0  dACCESS:          0  dHIT:          0  dMISS:          0  itACCESS:          0  itHIT:          0  itMISS:          0  dtACCESS:          0  dtHIT:          0  dtMISS:          0
cpu0_STLB PREFETCH  REQUESTED:          0  ISSUED:          0  CROSSED:          0  USEFUL:          0  USELESS:          0
cpu0_STLB AVERAGE iMISS LATENCY: 52.4118 cycles
cpu0_STLB AVERAGE dMISS LATENCY: 193.698 cycles
cpu0_STLB AVERAGE itMISS LATENCY: 0 cycles
cpu0_STLB AVERAGE dtMISS LATENCY: 0 cycles
cpu0_STLB PAGE CROSSINGS (TLB HIT):         0 
cpu0_STLB PAGE CROSSINGS (TLB MISS):         0 
cpu0_STLB AVERAGE MISS LATENCY: 246.109 cycles
cpu0_L1D TOTAL       ACCESS:   45642629  HIT:   39684780  MISS:    5957849  iACCESS:          0  iHIT:          0  iMISS:          0  dACCESS:   45071411  dHIT:   39651927  dMISS:    5419484  itACCESS:     134253  itHIT:      13963  itMISS:     120290  dtACCESS:     436965  dtHIT:      18890  dtMISS:     418075
cpu0_L1D LOAD         ACCESS:   20654396  HIT:   18216200  MISS:    2438196  iACCESS:          0  iHIT:          0  iMISS:          0  dACCESS:   20654396  dHIT:   18216200  dMISS:    2438196  itACCESS:          0  itHIT:          0  itMISS:          0  dtACCESS:          0  dtHIT:          0  dtMISS:          0
cpu0_L1D RFO          ACCESS:          0  HIT:          0  MISS:          0  iACCESS:          0  iHIT:          0  iMISS:          0  dACCESS:          0  dHIT:          0  dMISS:          0  itACCESS:          0  itHIT:          0  itMISS:          0  dtACCESS:          0  dtHIT:          0  dtMISS:          0
cpu0_L1D PREFETCH     ACCESS:   14298405  HIT:   11920780  MISS:    2377625  iACCESS:          0  iHIT:          0  iMISS:          0  dACCESS:   14298405  dHIT:   11920780  dMISS:    2377625  itACCESS:          0  itHIT:          0  itMISS:          0  dtACCESS:          0  dtHIT:          0  dtMISS:          0
cpu0_L1D WRITE        ACCESS:   10118610  HIT:    9514947  MISS:     603663  iACCESS:          0  iHIT:          0  iMISS:          0  dACCESS:   10118610  dHIT:    9514947  dMISS:     603663  itACCESS:          0  itHIT:          0  itMISS:          0  dtACCESS:          0  dtHIT:          0  dtMISS:          0
cpu0_L1D TRANSLATION  ACCESS:     571218  HIT:      32853  MISS:     538365  iACCESS:          0  iHIT:          0  iMISS:          0  dACCESS:          0  dHIT:          0  dMISS:          0  itACCESS:     134253  itHIT:      13963  itMISS:     120290  dtACCESS:     436965  dtHIT:      18890  dtMISS:     418075
cpu0_L1D PREFETCH  REQUESTED:   20654396  ISSUED:   18874561  CROSSED:          0  USEFUL:     380521  USELESS:     959727
cpu0_L1D AVERAGE iMISS LATENCY: 0 cycles
cpu0_L1D AVERAGE dMISS LATENCY: 50.5804 cycles
cpu0_L1D AVERAGE itMISS LATENCY: 3.26607 cycles
cpu0_L1D AVERAGE dtMISS LATENCY: 11.989 cycles
cpu0_L1D PAGE CROSSINGS (TLB HIT):         0 
cpu0_L1D PAGE CROSSINGS (TLB MISS):         0 
cpu0_L1D AVERAGE MISS LATENCY: 65.8354 cycles
cpu0_L2C TOTAL       ACCESS:    8791028  HIT:    4155831  MISS:    4635197  iACCESS:    3822157  iHIT:    2252882  iMISS:    1569275  dACCESS:    4462920  dHIT:    1839261  dMISS:    2623659  itACCESS:     119955  itHIT:      21888  itMISS:      98067  dtACCESS:     385996  dtHIT:      41800  dtMISS:     344196
cpu0_L2C LOAD         ACCESS:    2113462  HIT:    1003335  MISS:    1110127  iACCESS:     855587  iHIT:     525035  iMISS:     330552  dACCESS:    1257875  dHIT:     478300  dMISS:     779575  itACCESS:          0  itHIT:          0  itMISS:          0  dtACCESS:          0  dtHIT:          0  dtMISS:          0
cpu0_L2C RFO          ACCESS:     225772  HIT:      87557  MISS:     138215  iACCESS:          0  iHIT:          0  iMISS:          0  dACCESS:     225772  dHIT:      87557  dMISS:     138215  itACCESS:          0  itHIT:          0  itMISS:          0  dtACCESS:          0  dtHIT:          0  dtMISS:          0
cpu0_L2C PREFETCH     ACCESS:    5595151  HIT:    2661044  MISS:    2934107  iACCESS:    2966570  iHIT:    1727847  iMISS:    1238723  dACCESS:    2628581  dHIT:     933197  dMISS:    1695384  itACCESS:          0  itHIT:          0  itMISS:          0  dtACCESS:          0  dtHIT:          0  dtMISS:          0
cpu0_L2C WRITE        ACCESS:     350692  HIT:     340207  MISS:      10485  iACCESS:          0  iHIT:          0  iMISS:          0  dACCESS:     350692  dHIT:     340207  dMISS:      10485  itACCESS:          0  itHIT:          0  itMISS:          0  dtACCESS:          0  dtHIT:          0  dtMISS:          0
cpu0_L2C TRANSLATION  ACCESS:     505951  HIT:      63688  MISS:     442263  iACCESS:          0  iHIT:          0  iMISS:          0  dACCESS:          0  dHIT:          0  dMISS:          0  itACCESS:     119955  itHIT:      21888  itMISS:      98067  dtACCESS:     385996  dtHIT:      41800  dtMISS:     344196
cpu0_L2C PREFETCH  REQUESTED:    1527096  ISSUED:    1527091  CROSSED:          0  USEFUL:     354418  USELESS:     336688
cpu0_L2C AVERAGE iMISS LATENCY: 41.0026 cycles
cpu0_L2C AVERAGE dMISS LATENCY: 80.5391 cycles
cpu0_L2C AVERAGE itMISS LATENCY: 3.94321 cycles
cpu0_L2C AVERAGE dtMISS LATENCY: 14.5816 cycles
cpu0_L2C PAGE CROSSINGS (TLB HIT):         0 
cpu0_L2C PAGE CROSSINGS (TLB MISS):         0 
cpu0_L2C AVERAGE MISS LATENCY: 140.067 cycles
LLC TOTAL       ACCESS:    4621542  HIT:    1367136  MISS:    3254406  iACCESS:    1481329  iHIT:     470304  iMISS:    1011025  dACCESS:    2697950  dHIT:     857459  dMISS:    1840491  itACCESS:      98067  itHIT:       7101  itMISS:      90966  dtACCESS:     344196  dtHIT:      32272  dtMISS:     311924
LLC LOAD         ACCESS:    1101898  HIT:     343830  MISS:     758068  iACCESS:     329372  iHIT:     114383  iMISS:     214989  dACCESS:     772526  dHIT:     229447  dMISS:     543079  itACCESS:          0  itHIT:          0  itMISS:          0  dtACCESS:          0  dtHIT:          0  dtMISS:          0
LLC RFO          ACCESS:     138210  HIT:      41154  MISS:      97056  iACCESS:          0  iHIT:          0  iMISS:          0  dACCESS:     138210  dHIT:      41154  dMISS:      97056  itACCESS:          0  itHIT:          0  itMISS:          0  dtACCESS:          0  dtHIT:          0  dtMISS:          0
LLC PREFETCH     ACCESS:    2724122  HIT:     738103  MISS:    1986019  iACCESS:    1151957  iHIT:     355921  iMISS:     796036  dACCESS:    1572165  dHIT:     382182  dMISS:    1189983  itACCESS:          0  itHIT:          0  itMISS:          0  dtACCESS:          0  dtHIT:          0  dtMISS:          0
LLC WRITE        ACCESS:     215049  HIT:     204676  MISS:      10373  iACCESS:          0  iHIT:          0  iMISS:          0  dACCESS:     215049  dHIT:     204676  dMISS:      10373  itACCESS:          0  itHIT:          0  itMISS:          0  dtACCESS:          0  dtHIT:          0  dtMISS:          0
LLC TRANSLATION  ACCESS:     442263  HIT:      39373  MISS:     402890  iACCESS:          0  iHIT:          0  iMISS:          0  dACCESS:          0  dHIT:          0  dMISS:          0  itACCESS:      98067  itHIT:       7101  itMISS:      90966  dtACCESS:     344196  dtHIT:      32272  dtMISS:     311924
LLC PREFETCH  REQUESTED:          0  ISSUED:          0  CROSSED:          0  USEFUL:          0  USELESS:          0
LLC AVERAGE iMISS LATENCY: 49.4329 cycles
LLC AVERAGE dMISS LATENCY: 100.523 cycles
LLC AVERAGE itMISS LATENCY: 5.01861 cycles
LLC AVERAGE dtMISS LATENCY: 18.6765 cycles
LLC PAGE CROSSINGS (TLB HIT):         0 
LLC PAGE CROSSINGS (TLB MISS):         0 
LLC AVERAGE MISS LATENCY: 173.651 cycles

PageTableWalker TOTAL       ACCESS:     193838  
PageTableWalker AVERAGE LATENCY: 6.39421 cycles
PageTableWalker TOTAL LATENCY: 1239440 cycles

DRAM Statistics
Channel 0
 RQ ROW_BUFFER_HIT:     668404
  ROW_BUFFER_MISS:    2556840
 AVG DBUS CONGESTED CYCLE:    3.65254
 WQ ROW_BUFFER_HIT:      68697
  ROW_BUFFER_MISS:      59477  FULL:          0

