last_page:0x200000000000000
VMEM_RES_CAP:0x100000
PAGE_SIZE:4096
LOG2_PAGE_SIZE:12
LOG2_PAGE_TABLE_SIZE:9
page_table_levels:5
WARNING: physical memory size is smaller than virtual memory size
FDiP enabled with aggresivity 16

*** ChampSim Multicore Out-of-Order Simulator ***

Warmup Instructions: 50000000
Simulation Instructions: 100000000
Number of CPUs: 1
Small page size: 4096
Large page size: 2097152

CPU 0 Bimodal branch predictor
Basic BTB sets: 1024 ways: 8 indirect buffer size: 4096 RAS size: 64
Instruction page size distrubution: 0
Loading instruction page size distribution from /home/bsc/bsc018186/scratch/itp_asplos25_AE/dump/smt_srv540_ap_srv551_ap_1024i.pdst
Data page size distrubution: 0
Loading data page size distribution from /home/bsc/bsc018186/scratch/itp_asplos25_AE/dump/smt_srv540_ap_srv551_ap_1024i.pdst
cpu0_L2C IP-based stride prefetcher
cpu0_L2C is using xPTP/LRU
	TLB_LOWER_STRESS_THRESHOLD:1
	TLB_UPPER_STRESS_THRESHOLD:4
	MIN_EVICTION_POSITION:4
cpu0_L1D next line prefetcher
cpu0_STLB using iTP with max lru@8
cpu0_STLB using iTP with instr@0 and data@2
Init sat counter with 3 bits (max:50).
cpu0_L1I next line prefetcher
Off-chip DRAM Size: 4 GiB Channels: 1 Width: 64-bit Data Rate: 3200 MT/s
Heartbeat CPU 0 instructions: 10000001 cycles: 2500410 heartbeat IPC: 3.99935 cumulative IPC: 3.99935 (Simulation time: 0 hr 0 min 38 sec) 
Heartbeat CPU 0 instructions: 20000002 cycles: 5000484 heartbeat IPC: 3.99989 cumulative IPC: 3.99962 (Simulation time: 0 hr 1 min 19 sec) 
Heartbeat CPU 0 instructions: 30000003 cycles: 7500579 heartbeat IPC: 3.99985 cumulative IPC: 3.9997 (Simulation time: 0 hr 1 min 59 sec) 
Heartbeat CPU 0 instructions: 40000003 cycles: 10000616 heartbeat IPC: 3.99995 cumulative IPC: 3.99976 (Simulation time: 0 hr 2 min 40 sec) 
Heartbeat CPU 0 instructions: 50000000 cycles: 12500772 heartbeat IPC: 3.99975 cumulative IPC: 3.99976 (Simulation time: 0 hr 3 min 22 sec) 
Warmup finished CPU 0 instructions: 50000000 cycles: 12500773 cumulative IPC: 3.99976 (Simulation time: 0 hr 3 min 22 sec) 

Warmup complete CPU 0 instructions: 50000000 cycles: 12500773 (Simulation time: 0 hr 3 min 22 sec) 

Heartbeat CPU 0 instructions: 60000000 cycles: 39715056 heartbeat IPC: 0.367455 cumulative IPC: 0.367455 (Simulation time: 0 hr 4 min 42 sec) 
Heartbeat CPU 0 instructions: 70000000 cycles: 67416917 heartbeat IPC: 0.360987 cumulative IPC: 0.364192 (Simulation time: 0 hr 6 min 3 sec) 
Heartbeat CPU 0 instructions: 80000002 cycles: 94651545 heartbeat IPC: 0.36718 cumulative IPC: 0.365183 (Simulation time: 0 hr 7 min 23 sec) 
Heartbeat CPU 0 instructions: 90000000 cycles: 121833066 heartbeat IPC: 0.367897 cumulative IPC: 0.365858 (Simulation time: 0 hr 8 min 43 sec) 
Heartbeat CPU 0 instructions: 100000003 cycles: 150024499 heartbeat IPC: 0.354718 cumulative IPC: 0.363574 (Simulation time: 0 hr 10 min 5 sec) 
Heartbeat CPU 0 instructions: 110000000 cycles: 176345742 heartbeat IPC: 0.379922 cumulative IPC: 0.3662 (Simulation time: 0 hr 11 min 24 sec) 
Heartbeat CPU 0 instructions: 120000000 cycles: 200280089 heartbeat IPC: 0.41781 cumulative IPC: 0.372779 (Simulation time: 0 hr 12 min 41 sec) 
Heartbeat CPU 0 instructions: 130000000 cycles: 216688230 heartbeat IPC: 0.609454 cumulative IPC: 0.391797 (Simulation time: 0 hr 13 min 51 sec) 
Heartbeat CPU 0 instructions: 140000002 cycles: 233554649 heartbeat IPC: 0.592895 cumulative IPC: 0.407141 (Simulation time: 0 hr 15 min 0 sec) 
Heartbeat CPU 0 instructions: 150000000 cycles: 261181224 heartbeat IPC: 0.361971 cumulative IPC: 0.402123 (Simulation time: 0 hr 16 min 21 sec) 
Simulation finished CPU 0 instructions: 100000000 cycles: 248680452 cumulative IPC: 0.402123 (Simulation time: 0 hr 16 min 21 sec) 

Simulation complete CPU 0 instructions: 100000000 cycles: 248680452 (Simulation time: 0 hr 16 min 21 sec) 


ChampSim completed all CPUs

Saving instructions large page distribution to /home/bsc/bsc018186/scratch/itp_asplos25_AE/dump/smt_srv540_ap_srv551_ap_1024i.pdst...
Saving data large page distribution to /home/bsc/bsc018186/scratch/itp_asplos25_AE/dump/smt_srv540_ap_srv551_ap_1024i.pdst...
=== Simulation ===
CPU 0 runs /gpfs/projects/bsc18/MN4/bsc18/romol/ChampSim/traces/qualcomm_srv/smt_srv540_ap_srv551_ap_1024i.champsimtrace.xz

Region of Interest Statistics

CPU 0 cumulative IPC: 0.402123 instructions: 100000000 cycles: 248680452
CPU 0 Branch Prediction Accuracy: 77.9969% MPKI: 42.4508 Average ROB Occupancy at Mispredict: 11.5507
Branch type MPKI
BRANCH_DIRECT_JUMP: 1.234
BRANCH_INDIRECT: 22.826
BRANCH_CONDITIONAL: 11.6402
BRANCH_DIRECT_CALL: 2.3668
BRANCH_INDIRECT_CALL: 1.07039
BRANCH_RETURN: 3.31347

Instructions large pages: 0
Instructions small pages: 10131
Large page distribution for instructions: 0%

Data large pages: 0
Data small pages: 8688
Large page distribution for data: 0%

cpu0_L1I TOTAL       ACCESS:   39832634  HIT:   31930991  MISS:    7901643  iACCESS:   39832634  iHIT:   31930991  iMISS:    7901643  dACCESS:          0  dHIT:          0  dMISS:          0  itACCESS:          0  itHIT:          0  itMISS:          0  dtACCESS:          0  dtHIT:          0  dtMISS:          0
cpu0_L1I LOAD         ACCESS:   11370114  HIT:    9221923  MISS:    2148191  iACCESS:   11370114  iHIT:    9221923  iMISS:    2148191  dACCESS:          0  dHIT:          0  dMISS:          0  itACCESS:          0  itHIT:          0  itMISS:          0  dtACCESS:          0  dtHIT:          0  dtMISS:          0
cpu0_L1I RFO          ACCESS:          0  HIT:          0  MISS:          0  iACCESS:          0  iHIT:          0  iMISS:          0  dACCESS:          0  dHIT:          0  dMISS:          0  itACCESS:          0  itHIT:          0  itMISS:          0  dtACCESS:          0  dtHIT:          0  dtMISS:          0
cpu0_L1I PREFETCH     ACCESS:   28462520  HIT:   22709068  MISS:    5753452  iACCESS:   28462520  iHIT:   22709068  iMISS:    5753452  dACCESS:          0  dHIT:          0  dMISS:          0  itACCESS:          0  itHIT:          0  itMISS:          0  dtACCESS:          0  dtHIT:          0  dtMISS:          0
cpu0_L1I WRITE        ACCESS:          0  HIT:          0  MISS:          0  iACCESS:          0  iHIT:          0  iMISS:          0  dACCESS:          0  dHIT:          0  dMISS:          0  itACCESS:          0  itHIT:          0  itMISS:          0  dtACCESS:          0  dtHIT:          0  dtMISS:          0
cpu0_L1I TRANSLATION  ACCESS:          0  HIT:          0  MISS:          0  iACCESS:          0  iHIT:          0  iMISS:          0  dACCESS:          0  dHIT:          0  dMISS:          0  itACCESS:          0  itHIT:          0  itMISS:          0  dtACCESS:          0  dtHIT:          0  dtMISS:          0
cpu0_L1I PREFETCH  REQUESTED:   31075863  ISSUED:   31075512  CROSSED:          0  USEFUL:    1962951  USELESS:     678029
cpu0_L1I AVERAGE iMISS LATENCY: 22.512 cycles
cpu0_L1I AVERAGE dMISS LATENCY: 0 cycles
cpu0_L1I AVERAGE itMISS LATENCY: 0 cycles
cpu0_L1I AVERAGE dtMISS LATENCY: 0 cycles
cpu0_L1I PAGE CROSSINGS (TLB HIT):         0 
cpu0_L1I PAGE CROSSINGS (TLB MISS):         0 
cpu0_L1I AVERAGE MISS LATENCY: 22.512 cycles
cpu0_ITLB TOTAL       ACCESS:   33432918  HIT:   31468846  MISS:    1964072  iACCESS:   33432918  iHIT:   31468846  iMISS:    1964072  dACCESS:          0  dHIT:          0  dMISS:          0  itACCESS:          0  itHIT:          0  itMISS:          0  dtACCESS:          0  dtHIT:          0  dtMISS:          0
cpu0_ITLB LOAD         ACCESS:   33432918  HIT:   31468846  MISS:    1964072  iACCESS:   33432918  iHIT:   31468846  iMISS:    1964072  dACCESS:          0  dHIT:          0  dMISS:          0  itACCESS:          0  itHIT:          0  itMISS:          0  dtACCESS:          0  dtHIT:          0  dtMISS:          0
cpu0_ITLB RFO          ACCESS:          0  HIT:          0  MISS:          0  iACCESS:          0  iHIT:          0  iMISS:          0  dACCESS:          0  dHIT:          0  dMISS:          0  itACCESS:          0  itHIT:          0  itMISS:          0  dtACCESS:          0  dtHIT:          0  dtMISS:          0
cpu0_ITLB PREFETCH     ACCESS:          0  HIT:          0  MISS:          0  iACCESS:          0  iHIT:          0  iMISS:          0  dACCESS:          0  dHIT:          0  dMISS:          0  itACCESS:          0  itHIT:          0  itMISS:          0  dtACCESS:          0  dtHIT:          0  dtMISS:          0
cpu0_ITLB WRITE        ACCESS:          0  HIT:          0  MISS:          0  iACCESS:          0  iHIT:          0  iMISS:          0  dACCESS:          0  dHIT:          0  dMISS:          0  itACCESS:          0  itHIT:          0  itMISS:          0  dtACCESS:          0  dtHIT:          0  dtMISS:          0
cpu0_ITLB TRANSLATION  ACCESS:          0  HIT:          0  MISS:          0  iACCESS:          0  iHIT:          0  iMISS:          0  dACCESS:          0  dHIT:          0  dMISS:          0  itACCESS:          0  itHIT:          0  itMISS:          0  dtACCESS:          0  dtHIT:          0  dtMISS:          0
cpu0_ITLB PREFETCH  REQUESTED:          0  ISSUED:          0  CROSSED:          0  USEFUL:     345783  USELESS:      70387
cpu0_ITLB AVERAGE iMISS LATENCY: 5.91206 cycles
cpu0_ITLB AVERAGE dMISS LATENCY: 0 cycles
cpu0_ITLB AVERAGE itMISS LATENCY: 0 cycles
cpu0_ITLB AVERAGE dtMISS LATENCY: 0 cycles
cpu0_ITLB PAGE CROSSINGS (TLB HIT):         0 
cpu0_ITLB PAGE CROSSINGS (TLB MISS):         0 
cpu0_ITLB AVERAGE MISS LATENCY: 5.91206 cycles
cpu0_DTLB TOTAL       ACCESS:   30746254  HIT:   24638665  MISS:    6107589  iACCESS:          0  iHIT:          0  iMISS:          0  dACCESS:   30746254  dHIT:   24638665  dMISS:    6107589  itACCESS:          0  itHIT:          0  itMISS:          0  dtACCESS:          0  dtHIT:          0  dtMISS:          0
cpu0_DTLB LOAD         ACCESS:   30746254  HIT:   24638665  MISS:    6107589  iACCESS:          0  iHIT:          0  iMISS:          0  dACCESS:   30746254  dHIT:   24638665  dMISS:    6107589  itACCESS:          0  itHIT:          0  itMISS:          0  dtACCESS:          0  dtHIT:          0  dtMISS:          0
cpu0_DTLB RFO          ACCESS:          0  HIT:          0  MISS:          0  iACCESS:          0  iHIT:          0  iMISS:          0  dACCESS:          0  dHIT:          0  dMISS:          0  itACCESS:          0  itHIT:          0  itMISS:          0  dtACCESS:          0  dtHIT:          0  dtMISS:          0
cpu0_DTLB PREFETCH     ACCESS:          0  HIT:          0  MISS:          0  iACCESS:          0  iHIT:          0  iMISS:          0  dACCESS:          0  dHIT:          0  dMISS:          0  itACCESS:          0  itHIT:          0  itMISS:          0  dtACCESS:          0  dtHIT:          0  dtMISS:          0
cpu0_DTLB WRITE        ACCESS:          0  HIT:          0  MISS:          0  iACCESS:          0  iHIT:          0  iMISS:          0  dACCESS:          0  dHIT:          0  dMISS:          0  itACCESS:          0  itHIT:          0  itMISS:          0  dtACCESS:          0  dtHIT:          0  dtMISS:          0
cpu0_DTLB TRANSLATION  ACCESS:          0  HIT:          0  MISS:          0  iACCESS:          0  iHIT:          0  iMISS:          0  dACCESS:          0  dHIT:          0  dMISS:          0  itACCESS:          0  itHIT:          0  itMISS:          0  dtACCESS:          0  dtHIT:          0  dtMISS:          0
cpu0_DTLB PREFETCH  REQUESTED:          0  ISSUED:          0  CROSSED:          0  USEFUL:          0  USELESS:          0
cpu0_DTLB AVERAGE iMISS LATENCY: 0 cycles
cpu0_DTLB AVERAGE dMISS LATENCY: 11.485 cycles
cpu0_DTLB AVERAGE itMISS LATENCY: 0 cycles
cpu0_DTLB AVERAGE dtMISS LATENCY: 0 cycles
cpu0_DTLB PAGE CROSSINGS (TLB HIT):         0 
cpu0_DTLB PAGE CROSSINGS (TLB MISS):         0 
cpu0_DTLB AVERAGE MISS LATENCY: 11.485 cycles
cpu0_STLB TOTAL       ACCESS:    3671794  HIT:    3350385  MISS:     321409  iACCESS:     416172  iHIT:     364072  iMISS:      52100  dACCESS:    3255622  dHIT:    2986313  dMISS:     269309  itACCESS:          0  itHIT:          0  itMISS:          0  dtACCESS:          0  dtHIT:          0  dtMISS:          0
cpu0_STLB LOAD         ACCESS:    3671794  HIT:    3350385  MISS:     321409  iACCESS:     416172  iHIT:     364072  iMISS:      52100  dACCESS:    3255622  dHIT:    2986313  dMISS:     269309  itACCESS:          0  itHIT:          0  itMISS:          0  dtACCESS:          0  dtHIT:          0  dtMISS:          0
cpu0_STLB RFO          ACCESS:          0  HIT:          0  MISS:          0  iACCESS:          0  iHIT:          0  iMISS:          0  dACCESS:          0  dHIT:          0  dMISS:          0  itACCESS:          0  itHIT:          0  itMISS:          0  dtACCESS:          0  dtHIT:          0  dtMISS:          0
cpu0_STLB PREFETCH     ACCESS:          0  HIT:          0  MISS:          0  iACCESS:          0  iHIT:          0  iMISS:          0  dACCESS:          0  dHIT:          0  dMISS:          0  itACCESS:          0  itHIT:          0  itMISS:          0  dtACCESS:          0  dtHIT:          0  dtMISS:          0
cpu0_STLB WRITE        ACCESS:          0  HIT:          0  MISS:          0  iACCESS:          0  iHIT:          0  iMISS:          0  dACCESS:          0  dHIT:          0  dMISS:          0  itACCESS:          0  itHIT:          0  itMISS:          0  dtACCESS:          0  dtHIT:          0  dtMISS:          0
cpu0_STLB TRANSLATION  ACCESS:          0  HIT:          0  MISS:          0  iACCESS:          0  iHIT:          0  iMISS:          0  dACCESS:          0  dHIT:          0  dMISS:          0  itACCESS:          0  itHIT:          0  itMISS:          0  dtACCESS:          0  dtHIT:          0  dtMISS:          0
cpu0_STLB PREFETCH  REQUESTED:          0  ISSUED:          0  CROSSED:          0  USEFUL:          0  USELESS:          0
cpu0_STLB AVERAGE iMISS LATENCY: 25.9446 cycles
cpu0_STLB AVERAGE dMISS LATENCY: 136.199 cycles
cpu0_STLB AVERAGE itMISS LATENCY: 0 cycles
cpu0_STLB AVERAGE dtMISS LATENCY: 0 cycles
cpu0_STLB PAGE CROSSINGS (TLB HIT):         0 
cpu0_STLB PAGE CROSSINGS (TLB MISS):         0 
cpu0_STLB AVERAGE MISS LATENCY: 162.143 cycles
cpu0_L1D TOTAL       ACCESS:   48834563  HIT:   39413501  MISS:    9421062  iACCESS:          0  iHIT:          0  iMISS:          0  dACCESS:   48352529  dHIT:   39388841  dMISS:    8963688  itACCESS:      60854  itHIT:       4513  itMISS:      56341  dtACCESS:     421180  dtHIT:      20147  dtMISS:     401033
cpu0_L1D LOAD         ACCESS:   23298090  HIT:   18320954  MISS:    4977136  iACCESS:          0  iHIT:          0  iMISS:          0  dACCESS:   23298090  dHIT:   18320954  dMISS:    4977136  itACCESS:          0  itHIT:          0  itMISS:          0  dtACCESS:          0  dtHIT:          0  dtMISS:          0
cpu0_L1D RFO          ACCESS:          0  HIT:          0  MISS:          0  iACCESS:          0  iHIT:          0  iMISS:          0  dACCESS:          0  dHIT:          0  dMISS:          0  itACCESS:          0  itHIT:          0  itMISS:          0  dtACCESS:          0  dtHIT:          0  dtMISS:          0
cpu0_L1D PREFETCH     ACCESS:   15278531  HIT:   11864635  MISS:    3413896  iACCESS:          0  iHIT:          0  iMISS:          0  dACCESS:   15278531  dHIT:   11864635  dMISS:    3413896  itACCESS:          0  itHIT:          0  itMISS:          0  dtACCESS:          0  dtHIT:          0  dtMISS:          0
cpu0_L1D WRITE        ACCESS:    9775908  HIT:    9203252  MISS:     572656  iACCESS:          0  iHIT:          0  iMISS:          0  dACCESS:    9775908  dHIT:    9203252  dMISS:     572656  itACCESS:          0  itHIT:          0  itMISS:          0  dtACCESS:          0  dtHIT:          0  dtMISS:          0
cpu0_L1D TRANSLATION  ACCESS:     482034  HIT:      24660  MISS:     457374  iACCESS:          0  iHIT:          0  iMISS:          0  dACCESS:          0  dHIT:          0  dMISS:          0  itACCESS:      60854  itHIT:       4513  itMISS:      56341  dtACCESS:     421180  dtHIT:      20147  dtMISS:     401033
cpu0_L1D PREFETCH  REQUESTED:   23298090  ISSUED:   18819047  CROSSED:          0  USEFUL:     328020  USELESS:    1097394
cpu0_L1D AVERAGE iMISS LATENCY: 0 cycles
cpu0_L1D AVERAGE dMISS LATENCY: 30.1231 cycles
cpu0_L1D AVERAGE itMISS LATENCY: 0.827148 cycles
cpu0_L1D AVERAGE dtMISS LATENCY: 4.18384 cycles
cpu0_L1D PAGE CROSSINGS (TLB HIT):         0 
cpu0_L1D PAGE CROSSINGS (TLB MISS):         0 
cpu0_L1D AVERAGE MISS LATENCY: 35.1341 cycles
cpu0_L2C TOTAL       ACCESS:    9835386  HIT:    3238154  MISS:    6597232  iACCESS:    3347581  iHIT:    1245651  iMISS:    2101930  dACCESS:    6049887  dHIT:    1803850  dMISS:    4246037  itACCESS:      56285  itHIT:      12547  itMISS:      43738  dtACCESS:     381633  dtHIT:     176106  dtMISS:     205527
cpu0_L2C LOAD         ACCESS:    3630616  HIT:    1249854  MISS:    2380762  iACCESS:     738288  iHIT:     245045  iMISS:     493243  dACCESS:    2892328  dHIT:    1004809  dMISS:    1887519  itACCESS:          0  itHIT:          0  itMISS:          0  dtACCESS:          0  dtHIT:          0  dtMISS:          0
cpu0_L2C RFO          ACCESS:     227244  HIT:      49561  MISS:     177683  iACCESS:          0  iHIT:          0  iMISS:          0  dACCESS:     227244  dHIT:      49561  dMISS:     177683  itACCESS:          0  itHIT:          0  itMISS:          0  dtACCESS:          0  dtHIT:          0  dtMISS:          0
cpu0_L2C PREFETCH     ACCESS:    5214127  HIT:    1623769  MISS:    3590358  iACCESS:    2609293  iHIT:    1000606  iMISS:    1608687  dACCESS:    2604834  dHIT:     623163  dMISS:    1981671  itACCESS:          0  itHIT:          0  itMISS:          0  dtACCESS:          0  dtHIT:          0  dtMISS:          0
cpu0_L2C WRITE        ACCESS:     325481  HIT:     126317  MISS:     199164  iACCESS:          0  iHIT:          0  iMISS:          0  dACCESS:     325481  dHIT:     126317  dMISS:     199164  itACCESS:          0  itHIT:          0  itMISS:          0  dtACCESS:          0  dtHIT:          0  dtMISS:          0
cpu0_L2C TRANSLATION  ACCESS:     437918  HIT:     188653  MISS:     249265  iACCESS:          0  iHIT:          0  iMISS:          0  dACCESS:          0  dHIT:          0  dMISS:          0  itACCESS:      56285  itHIT:      12547  itMISS:      43738  dtACCESS:     381633  dtHIT:     176106  dtMISS:     205527
cpu0_L2C PREFETCH  REQUESTED:    1392308  ISSUED:    1392305  CROSSED:          0  USEFUL:     338516  USELESS:     388191
cpu0_L2C AVERAGE iMISS LATENCY: 22.6807 cycles
cpu0_L2C AVERAGE dMISS LATENCY: 47.7932 cycles
cpu0_L2C AVERAGE itMISS LATENCY: 1.09754 cycles
cpu0_L2C AVERAGE dtMISS LATENCY: 5.42028 cycles
cpu0_L2C PAGE CROSSINGS (TLB HIT):         0 
cpu0_L2C PAGE CROSSINGS (TLB MISS):         0 
cpu0_L2C AVERAGE MISS LATENCY: 76.9917 cycles
LLC TOTAL       ACCESS:    6458829  HIT:    4192744  MISS:    2266085  iACCESS:    2024157  iHIT:    1323159  iMISS:     700998  dACCESS:    4185407  dHIT:    2823665  dMISS:    1361742  itACCESS:      43738  itHIT:       7931  itMISS:      35807  dtACCESS:     205527  dtHIT:      37989  dtMISS:     167538
LLC LOAD         ACCESS:    2373623  HIT:    1833842  MISS:     539781  iACCESS:     492019  iHIT:     344638  iMISS:     147381  dACCESS:    1881604  dHIT:    1489204  dMISS:     392400  itACCESS:          0  itHIT:          0  itMISS:          0  dtACCESS:          0  dtHIT:          0  dtMISS:          0
LLC RFO          ACCESS:     177640  HIT:      98498  MISS:      79142  iACCESS:          0  iHIT:          0  iMISS:          0  dACCESS:     177640  dHIT:      98498  dMISS:      79142  itACCESS:          0  itHIT:          0  itMISS:          0  dtACCESS:          0  dtHIT:          0  dtMISS:          0
LLC PREFETCH     ACCESS:    3404464  HIT:    1964304  MISS:    1440160  iACCESS:    1532138  iHIT:     978521  iMISS:     553617  dACCESS:    1872326  dHIT:     985783  dMISS:     886543  itACCESS:          0  itHIT:          0  itMISS:          0  dtACCESS:          0  dtHIT:          0  dtMISS:          0
LLC WRITE        ACCESS:     253837  HIT:     250180  MISS:       3657  iACCESS:          0  iHIT:          0  iMISS:          0  dACCESS:     253837  dHIT:     250180  dMISS:       3657  itACCESS:          0  itHIT:          0  itMISS:          0  dtACCESS:          0  dtHIT:          0  dtMISS:          0
LLC TRANSLATION  ACCESS:     249265  HIT:      45920  MISS:     203345  iACCESS:          0  iHIT:          0  iMISS:          0  dACCESS:          0  dHIT:          0  dMISS:          0  itACCESS:      43738  itHIT:       7931  itMISS:      35807  dtACCESS:     205527  dtHIT:      37989  dtMISS:     167538
LLC PREFETCH  REQUESTED:          0  ISSUED:          0  CROSSED:          0  USEFUL:          0  USELESS:          0
LLC AVERAGE iMISS LATENCY: 48.6603 cycles
LLC AVERAGE dMISS LATENCY: 106.428 cycles
LLC AVERAGE itMISS LATENCY: 2.81408 cycles
LLC AVERAGE dtMISS LATENCY: 13.9901 cycles
LLC PAGE CROSSINGS (TLB HIT):         0 
LLC PAGE CROSSINGS (TLB MISS):         0 
LLC AVERAGE MISS LATENCY: 171.892 cycles

PageTableWalker TOTAL       ACCESS:     187386  
PageTableWalker AVERAGE LATENCY: 5.97885 cycles
PageTableWalker TOTAL LATENCY: 1120351 cycles

DRAM Statistics
Channel 0
 RQ ROW_BUFFER_HIT:     500650
  ROW_BUFFER_MISS:    1743471
 AVG DBUS CONGESTED CYCLE:    3.65401
 WQ ROW_BUFFER_HIT:      55951
  ROW_BUFFER_MISS:      55517  FULL:          0

