last_page:0x200000000000000
VMEM_RES_CAP:0x100000
PAGE_SIZE:4096
LOG2_PAGE_SIZE:12
LOG2_PAGE_TABLE_SIZE:9
page_table_levels:5
WARNING: physical memory size is smaller than virtual memory size
FDiP enabled with aggresivity 16

*** ChampSim Multicore Out-of-Order Simulator ***

Warmup Instructions: 50000000
Simulation Instructions: 100000000
Number of CPUs: 1
Small page size: 4096
Large page size: 2097152

CPU 0 Bimodal branch predictor
Basic BTB sets: 1024 ways: 8 indirect buffer size: 4096 RAS size: 64
Instruction page size distrubution: 0
Loading instruction page size distribution from /home/bsc/bsc018186/scratch/itp_asplos25_AE/dump/smt_srv85_ap_srv73_ap_1024i.pdst
Data page size distrubution: 0
Loading data page size distribution from /home/bsc/bsc018186/scratch/itp_asplos25_AE/dump/smt_srv85_ap_srv73_ap_1024i.pdst
cpu0_L2C IP-based stride prefetcher
cpu0_L2C is using PTP replacement policy:
	TLB_STRESS_THRESHOLD:0
	PTE_EVICTION_RATIO:0
cpu0_L1D next line prefetcher
CHiRPing...
cpu0_L1I next line prefetcher
Off-chip DRAM Size: 4 GiB Channels: 1 Width: 64-bit Data Rate: 3200 MT/s
Heartbeat CPU 0 instructions: 10000001 cycles: 2500480 heartbeat IPC: 3.99924 cumulative IPC: 3.99924 (Simulation time: 0 hr 0 min 36 sec) 
Heartbeat CPU 0 instructions: 20000002 cycles: 5000937 heartbeat IPC: 3.99927 cumulative IPC: 3.99926 (Simulation time: 0 hr 1 min 14 sec) 
Heartbeat CPU 0 instructions: 30000001 cycles: 7501340 heartbeat IPC: 3.99936 cumulative IPC: 3.99929 (Simulation time: 0 hr 1 min 53 sec) 
Heartbeat CPU 0 instructions: 40000002 cycles: 10001761 heartbeat IPC: 3.99933 cumulative IPC: 3.9993 (Simulation time: 0 hr 2 min 32 sec) 
Heartbeat CPU 0 instructions: 50000002 cycles: 12503332 heartbeat IPC: 3.99749 cumulative IPC: 3.99894 (Simulation time: 0 hr 3 min 11 sec) 
Warmup finished CPU 0 instructions: 50000002 cycles: 12503333 cumulative IPC: 3.99894 (Simulation time: 0 hr 3 min 11 sec) 

Warmup complete CPU 0 instructions: 50000002 cycles: 12503333 (Simulation time: 0 hr 3 min 11 sec) 

Heartbeat CPU 0 instructions: 60000004 cycles: 36602241 heartbeat IPC: 0.414957 cumulative IPC: 0.414957 (Simulation time: 0 hr 4 min 24 sec) 
Heartbeat CPU 0 instructions: 70000000 cycles: 58887345 heartbeat IPC: 0.448731 cumulative IPC: 0.431184 (Simulation time: 0 hr 5 min 34 sec) 
Heartbeat CPU 0 instructions: 80000002 cycles: 82361260 heartbeat IPC: 0.426005 cumulative IPC: 0.429444 (Simulation time: 0 hr 6 min 45 sec) 
Heartbeat CPU 0 instructions: 90000002 cycles: 113450288 heartbeat IPC: 0.321657 cumulative IPC: 0.396248 (Simulation time: 0 hr 8 min 7 sec) 
Heartbeat CPU 0 instructions: 100000000 cycles: 145422661 heartbeat IPC: 0.31277 cumulative IPC: 0.376169 (Simulation time: 0 hr 9 min 32 sec) 
Heartbeat CPU 0 instructions: 110000001 cycles: 177051083 heartbeat IPC: 0.316172 cumulative IPC: 0.364636 (Simulation time: 0 hr 10 min 56 sec) 
Heartbeat CPU 0 instructions: 120000001 cycles: 207155627 heartbeat IPC: 0.332176 cumulative IPC: 0.359616 (Simulation time: 0 hr 12 min 19 sec) 
Heartbeat CPU 0 instructions: 130000000 cycles: 224764506 heartbeat IPC: 0.567896 cumulative IPC: 0.376895 (Simulation time: 0 hr 13 min 27 sec) 
Heartbeat CPU 0 instructions: 140000004 cycles: 245707159 heartbeat IPC: 0.477495 cumulative IPC: 0.385929 (Simulation time: 0 hr 14 min 39 sec) 
Heartbeat CPU 0 instructions: 150000000 cycles: 276968554 heartbeat IPC: 0.319884 cumulative IPC: 0.378122 (Simulation time: 0 hr 16 min 3 sec) 
Simulation finished CPU 0 instructions: 100000003 cycles: 264465223 cumulative IPC: 0.378122 (Simulation time: 0 hr 16 min 3 sec) 

Simulation complete CPU 0 instructions: 100000003 cycles: 264465223 (Simulation time: 0 hr 16 min 3 sec) 


ChampSim completed all CPUs

Saving instructions large page distribution to /home/bsc/bsc018186/scratch/itp_asplos25_AE/dump/smt_srv85_ap_srv73_ap_1024i.pdst...
Saving data large page distribution to /home/bsc/bsc018186/scratch/itp_asplos25_AE/dump/smt_srv85_ap_srv73_ap_1024i.pdst...
=== Simulation ===
CPU 0 runs /gpfs/projects/bsc18/MN4/bsc18/romol/ChampSim/traces/qualcomm_srv/smt_srv85_ap_srv73_ap_1024i.champsimtrace.xz

Region of Interest Statistics

CPU 0 cumulative IPC: 0.378122 instructions: 100000003 cycles: 264465223
CPU 0 Branch Prediction Accuracy: 77.8344% MPKI: 42.992 Average ROB Occupancy at Mispredict: 10.9896
Branch type MPKI
BRANCH_DIRECT_JUMP: 1.10547
BRANCH_INDIRECT: 23.0236
BRANCH_CONDITIONAL: 12.2427
BRANCH_DIRECT_CALL: 2.0156
BRANCH_INDIRECT_CALL: 1.67551
BRANCH_RETURN: 2.92911

Instructions large pages: 0
Instructions small pages: 11330
Large page distribution for instructions: 0%

Data large pages: 0
Data small pages: 9490
Large page distribution for data: 0%

cpu0_L1I TOTAL       ACCESS:   38203622  HIT:   31077849  MISS:    7125773  iACCESS:   38203622  iHIT:   31077849  iMISS:    7125773  dACCESS:          0  dHIT:          0  dMISS:          0  itACCESS:          0  itHIT:          0  itMISS:          0  dtACCESS:          0  dtHIT:          0  dtMISS:          0
cpu0_L1I LOAD         ACCESS:   10591232  HIT:    8637159  MISS:    1954073  iACCESS:   10591232  iHIT:    8637159  iMISS:    1954073  dACCESS:          0  dHIT:          0  dMISS:          0  itACCESS:          0  itHIT:          0  itMISS:          0  dtACCESS:          0  dtHIT:          0  dtMISS:          0
cpu0_L1I RFO          ACCESS:          0  HIT:          0  MISS:          0  iACCESS:          0  iHIT:          0  iMISS:          0  dACCESS:          0  dHIT:          0  dMISS:          0  itACCESS:          0  itHIT:          0  itMISS:          0  dtACCESS:          0  dtHIT:          0  dtMISS:          0
cpu0_L1I PREFETCH     ACCESS:   27612390  HIT:   22440690  MISS:    5171700  iACCESS:   27612390  iHIT:   22440690  iMISS:    5171700  dACCESS:          0  dHIT:          0  dMISS:          0  itACCESS:          0  itHIT:          0  itMISS:          0  dtACCESS:          0  dtHIT:          0  dtMISS:          0
cpu0_L1I WRITE        ACCESS:          0  HIT:          0  MISS:          0  iACCESS:          0  iHIT:          0  iMISS:          0  dACCESS:          0  dHIT:          0  dMISS:          0  itACCESS:          0  itHIT:          0  itMISS:          0  dtACCESS:          0  dtHIT:          0  dtMISS:          0
cpu0_L1I TRANSLATION  ACCESS:          0  HIT:          0  MISS:          0  iACCESS:          0  iHIT:          0  iMISS:          0  dACCESS:          0  dHIT:          0  dMISS:          0  itACCESS:          0  itHIT:          0  itMISS:          0  dtACCESS:          0  dtHIT:          0  dtMISS:          0
cpu0_L1I PREFETCH  REQUESTED:   30039505  ISSUED:   30039495  CROSSED:          0  USEFUL:    1800064  USELESS:     650227
cpu0_L1I AVERAGE iMISS LATENCY: 24.2918 cycles
cpu0_L1I AVERAGE dMISS LATENCY: 0 cycles
cpu0_L1I AVERAGE itMISS LATENCY: 0 cycles
cpu0_L1I AVERAGE dtMISS LATENCY: 0 cycles
cpu0_L1I PAGE CROSSINGS (TLB HIT):         0 
cpu0_L1I PAGE CROSSINGS (TLB MISS):         0 
cpu0_L1I AVERAGE MISS LATENCY: 24.2918 cycles
cpu0_ITLB TOTAL       ACCESS:   32337388  HIT:   30476176  MISS:    1861212  iACCESS:   32337388  iHIT:   30476176  iMISS:    1861212  dACCESS:          0  dHIT:          0  dMISS:          0  itACCESS:          0  itHIT:          0  itMISS:          0  dtACCESS:          0  dtHIT:          0  dtMISS:          0
cpu0_ITLB LOAD         ACCESS:   32337388  HIT:   30476176  MISS:    1861212  iACCESS:   32337388  iHIT:   30476176  iMISS:    1861212  dACCESS:          0  dHIT:          0  dMISS:          0  itACCESS:          0  itHIT:          0  itMISS:          0  dtACCESS:          0  dtHIT:          0  dtMISS:          0
cpu0_ITLB RFO          ACCESS:          0  HIT:          0  MISS:          0  iACCESS:          0  iHIT:          0  iMISS:          0  dACCESS:          0  dHIT:          0  dMISS:          0  itACCESS:          0  itHIT:          0  itMISS:          0  dtACCESS:          0  dtHIT:          0  dtMISS:          0
cpu0_ITLB PREFETCH     ACCESS:          0  HIT:          0  MISS:          0  iACCESS:          0  iHIT:          0  iMISS:          0  dACCESS:          0  dHIT:          0  dMISS:          0  itACCESS:          0  itHIT:          0  itMISS:          0  dtACCESS:          0  dtHIT:          0  dtMISS:          0
cpu0_ITLB WRITE        ACCESS:          0  HIT:          0  MISS:          0  iACCESS:          0  iHIT:          0  iMISS:          0  dACCESS:          0  dHIT:          0  dMISS:          0  itACCESS:          0  itHIT:          0  itMISS:          0  dtACCESS:          0  dtHIT:          0  dtMISS:          0
cpu0_ITLB TRANSLATION  ACCESS:          0  HIT:          0  MISS:          0  iACCESS:          0  iHIT:          0  iMISS:          0  dACCESS:          0  dHIT:          0  dMISS:          0  itACCESS:          0  itHIT:          0  itMISS:          0  dtACCESS:          0  dtHIT:          0  dtMISS:          0
cpu0_ITLB PREFETCH  REQUESTED:          0  ISSUED:          0  CROSSED:          0  USEFUL:     326957  USELESS:      69037
cpu0_ITLB AVERAGE iMISS LATENCY: 10.2261 cycles
cpu0_ITLB AVERAGE dMISS LATENCY: 0 cycles
cpu0_ITLB AVERAGE itMISS LATENCY: 0 cycles
cpu0_ITLB AVERAGE dtMISS LATENCY: 0 cycles
cpu0_ITLB PAGE CROSSINGS (TLB HIT):         0 
cpu0_ITLB PAGE CROSSINGS (TLB MISS):         0 
cpu0_ITLB AVERAGE MISS LATENCY: 10.2261 cycles
cpu0_DTLB TOTAL       ACCESS:   31277365  HIT:   25852151  MISS:    5425214  iACCESS:          0  iHIT:          0  iMISS:          0  dACCESS:   31277365  dHIT:   25852151  dMISS:    5425214  itACCESS:          0  itHIT:          0  itMISS:          0  dtACCESS:          0  dtHIT:          0  dtMISS:          0
cpu0_DTLB LOAD         ACCESS:   31277365  HIT:   25852151  MISS:    5425214  iACCESS:          0  iHIT:          0  iMISS:          0  dACCESS:   31277365  dHIT:   25852151  dMISS:    5425214  itACCESS:          0  itHIT:          0  itMISS:          0  dtACCESS:          0  dtHIT:          0  dtMISS:          0
cpu0_DTLB RFO          ACCESS:          0  HIT:          0  MISS:          0  iACCESS:          0  iHIT:          0  iMISS:          0  dACCESS:          0  dHIT:          0  dMISS:          0  itACCESS:          0  itHIT:          0  itMISS:          0  dtACCESS:          0  dtHIT:          0  dtMISS:          0
cpu0_DTLB PREFETCH     ACCESS:          0  HIT:          0  MISS:          0  iACCESS:          0  iHIT:          0  iMISS:          0  dACCESS:          0  dHIT:          0  dMISS:          0  itACCESS:          0  itHIT:          0  itMISS:          0  dtACCESS:          0  dtHIT:          0  dtMISS:          0
cpu0_DTLB WRITE        ACCESS:          0  HIT:          0  MISS:          0  iACCESS:          0  iHIT:          0  iMISS:          0  dACCESS:          0  dHIT:          0  dMISS:          0  itACCESS:          0  itHIT:          0  itMISS:          0  dtACCESS:          0  dtHIT:          0  dtMISS:          0
cpu0_DTLB TRANSLATION  ACCESS:          0  HIT:          0  MISS:          0  iACCESS:          0  iHIT:          0  iMISS:          0  dACCESS:          0  dHIT:          0  dMISS:          0  itACCESS:          0  itHIT:          0  itMISS:          0  dtACCESS:          0  dtHIT:          0  dtMISS:          0
cpu0_DTLB PREFETCH  REQUESTED:          0  ISSUED:          0  CROSSED:          0  USEFUL:          0  USELESS:          0
cpu0_DTLB AVERAGE iMISS LATENCY: 0 cycles
cpu0_DTLB AVERAGE dMISS LATENCY: 14.5849 cycles
cpu0_DTLB AVERAGE itMISS LATENCY: 0 cycles
cpu0_DTLB AVERAGE dtMISS LATENCY: 0 cycles
cpu0_DTLB PAGE CROSSINGS (TLB HIT):         0 
cpu0_DTLB PAGE CROSSINGS (TLB MISS):         0 
cpu0_DTLB AVERAGE MISS LATENCY: 14.5849 cycles
cpu0_STLB TOTAL       ACCESS:    3280960  HIT:    2985897  MISS:     295063  iACCESS:     395995  iHIT:     304849  iMISS:      91146  dACCESS:    2884965  dHIT:    2681048  dMISS:     203917  itACCESS:          0  itHIT:          0  itMISS:          0  dtACCESS:          0  dtHIT:          0  dtMISS:          0
cpu0_STLB LOAD         ACCESS:    3280960  HIT:    2985897  MISS:     295063  iACCESS:     395995  iHIT:     304849  iMISS:      91146  dACCESS:    2884965  dHIT:    2681048  dMISS:     203917  itACCESS:          0  itHIT:          0  itMISS:          0  dtACCESS:          0  dtHIT:          0  dtMISS:          0
cpu0_STLB RFO          ACCESS:          0  HIT:          0  MISS:          0  iACCESS:          0  iHIT:          0  iMISS:          0  dACCESS:          0  dHIT:          0  dMISS:          0  itACCESS:          0  itHIT:          0  itMISS:          0  dtACCESS:          0  dtHIT:          0  dtMISS:          0
cpu0_STLB PREFETCH     ACCESS:          0  HIT:          0  MISS:          0  iACCESS:          0  iHIT:          0  iMISS:          0  dACCESS:          0  dHIT:          0  dMISS:          0  itACCESS:          0  itHIT:          0  itMISS:          0  dtACCESS:          0  dtHIT:          0  dtMISS:          0
cpu0_STLB WRITE        ACCESS:          0  HIT:          0  MISS:          0  iACCESS:          0  iHIT:          0  iMISS:          0  dACCESS:          0  dHIT:          0  dMISS:          0  itACCESS:          0  itHIT:          0  itMISS:          0  dtACCESS:          0  dtHIT:          0  dtMISS:          0
cpu0_STLB TRANSLATION  ACCESS:          0  HIT:          0  MISS:          0  iACCESS:          0  iHIT:          0  iMISS:          0  dACCESS:          0  dHIT:          0  dMISS:          0  itACCESS:          0  itHIT:          0  itMISS:          0  dtACCESS:          0  dtHIT:          0  dtMISS:          0
cpu0_STLB PREFETCH  REQUESTED:          0  ISSUED:          0  CROSSED:          0  USEFUL:          0  USELESS:          0
cpu0_STLB AVERAGE iMISS LATENCY: 53.7843 cycles
cpu0_STLB AVERAGE dMISS LATENCY: 189.174 cycles
cpu0_STLB AVERAGE itMISS LATENCY: 0 cycles
cpu0_STLB AVERAGE dtMISS LATENCY: 0 cycles
cpu0_STLB PAGE CROSSINGS (TLB HIT):         0 
cpu0_STLB PAGE CROSSINGS (TLB MISS):         0 
cpu0_STLB AVERAGE MISS LATENCY: 242.958 cycles
cpu0_L1D TOTAL       ACCESS:   48885031  HIT:   40791316  MISS:    8093715  iACCESS:          0  iHIT:          0  iMISS:          0  dACCESS:   48404710  dHIT:   40767898  dMISS:    7636812  itACCESS:     111390  itHIT:       9888  itMISS:     101502  dtACCESS:     368931  dtHIT:      13530  dtMISS:     355401
cpu0_L1D LOAD         ACCESS:   23357215  HIT:   19284178  MISS:    4073037  iACCESS:          0  iHIT:          0  iMISS:          0  dACCESS:   23357215  dHIT:   19284178  dMISS:    4073037  itACCESS:          0  itHIT:          0  itMISS:          0  dtACCESS:          0  dtHIT:          0  dtMISS:          0
cpu0_L1D RFO          ACCESS:          0  HIT:          0  MISS:          0  iACCESS:          0  iHIT:          0  iMISS:          0  dACCESS:          0  dHIT:          0  dMISS:          0  itACCESS:          0  itHIT:          0  itMISS:          0  dtACCESS:          0  dtHIT:          0  dtMISS:          0
cpu0_L1D PREFETCH     ACCESS:   15213056  HIT:   12433939  MISS:    2779117  iACCESS:          0  iHIT:          0  iMISS:          0  dACCESS:   15213056  dHIT:   12433939  dMISS:    2779117  itACCESS:          0  itHIT:          0  itMISS:          0  dtACCESS:          0  dtHIT:          0  dtMISS:          0
cpu0_L1D WRITE        ACCESS:    9834439  HIT:    9049781  MISS:     784658  iACCESS:          0  iHIT:          0  iMISS:          0  dACCESS:    9834439  dHIT:    9049781  dMISS:     784658  itACCESS:          0  itHIT:          0  itMISS:          0  dtACCESS:          0  dtHIT:          0  dtMISS:          0
cpu0_L1D TRANSLATION  ACCESS:     480321  HIT:      23418  MISS:     456903  iACCESS:          0  iHIT:          0  iMISS:          0  dACCESS:          0  dHIT:          0  dMISS:          0  itACCESS:     111390  itHIT:       9888  itMISS:     101502  dtACCESS:     368931  dtHIT:      13530  dtMISS:     355401
cpu0_L1D PREFETCH  REQUESTED:   23357215  ISSUED:   19751965  CROSSED:          0  USEFUL:     341554  USELESS:    1117578
cpu0_L1D AVERAGE iMISS LATENCY: 0 cycles
cpu0_L1D AVERAGE dMISS LATENCY: 33.5494 cycles
cpu0_L1D AVERAGE itMISS LATENCY: 1.84327 cycles
cpu0_L1D AVERAGE dtMISS LATENCY: 6.42681 cycles
cpu0_L1D PAGE CROSSINGS (TLB HIT):         0 
cpu0_L1D PAGE CROSSINGS (TLB MISS):         0 
cpu0_L1D AVERAGE MISS LATENCY: 41.8194 cycles
cpu0_L2C TOTAL       ACCESS:    9229912  HIT:    5472055  MISS:    3757857  iACCESS:    3124402  iHIT:    1890321  iMISS:    1234081  dACCESS:    5725846  dHIT:    3532854  dMISS:    2192992  itACCESS:      92324  itHIT:      15816  itMISS:      76508  dtACCESS:     287340  dtHIT:      33064  dtMISS:     254276
cpu0_L2C LOAD         ACCESS:    3357197  HIT:    2406703  MISS:     950494  iACCESS:     702440  iHIT:     440798  iMISS:     261642  dACCESS:    2654757  dHIT:    1965905  dMISS:     688852  itACCESS:          0  itHIT:          0  itMISS:          0  dtACCESS:          0  dtHIT:          0  dtMISS:          0
cpu0_L2C RFO          ACCESS:     235448  HIT:     102389  MISS:     133059  iACCESS:          0  iHIT:          0  iMISS:          0  dACCESS:     235448  dHIT:     102389  dMISS:     133059  itACCESS:          0  itHIT:          0  itMISS:          0  dtACCESS:          0  dtHIT:          0  dtMISS:          0
cpu0_L2C PREFETCH     ACCESS:    4922794  HIT:    2590506  MISS:    2332288  iACCESS:    2421962  iHIT:    1449523  iMISS:     972439  dACCESS:    2500832  dHIT:    1140983  dMISS:    1359849  itACCESS:          0  itHIT:          0  itMISS:          0  dtACCESS:          0  dtHIT:          0  dtMISS:          0
cpu0_L2C WRITE        ACCESS:     334809  HIT:     323577  MISS:      11232  iACCESS:          0  iHIT:          0  iMISS:          0  dACCESS:     334809  dHIT:     323577  dMISS:      11232  itACCESS:          0  itHIT:          0  itMISS:          0  dtACCESS:          0  dtHIT:          0  dtMISS:          0
cpu0_L2C TRANSLATION  ACCESS:     379664  HIT:      48880  MISS:     330784  iACCESS:          0  iHIT:          0  iMISS:          0  dACCESS:          0  dHIT:          0  dMISS:          0  itACCESS:      92324  itHIT:      15816  itMISS:      76508  dtACCESS:     287340  dtHIT:      33064  dtMISS:     254276
cpu0_L2C PREFETCH  REQUESTED:    1227674  ISSUED:    1227634  CROSSED:          0  USEFUL:     275753  USELESS:     258117
cpu0_L2C AVERAGE iMISS LATENCY: 39.1385 cycles
cpu0_L2C AVERAGE dMISS LATENCY: 79.6762 cycles
cpu0_L2C AVERAGE itMISS LATENCY: 3.72786 cycles
cpu0_L2C AVERAGE dtMISS LATENCY: 13.0821 cycles
cpu0_L2C PAGE CROSSINGS (TLB HIT):         0 
cpu0_L2C PAGE CROSSINGS (TLB MISS):         0 
cpu0_L2C AVERAGE MISS LATENCY: 135.625 cycles
LLC TOTAL       ACCESS:    3775080  HIT:    1240991  MISS:    2534089  iACCESS:    1166950  iHIT:     389758  iMISS:     777192  dACCESS:    2277346  dHIT:     817450  dMISS:    1459896  itACCESS:      76508  itHIT:       6403  itMISS:      70105  dtACCESS:     254276  dtHIT:      27380  dtMISS:     226896
LLC LOAD         ACCESS:     943868  HIT:     344303  MISS:     599565  iACCESS:     260736  iHIT:      96401  iMISS:     164335  dACCESS:     683132  dHIT:     247902  dMISS:     435230  itACCESS:          0  itHIT:          0  itMISS:          0  dtACCESS:          0  dtHIT:          0  dtMISS:          0
LLC RFO          ACCESS:     133044  HIT:      39645  MISS:      93399  iACCESS:          0  iHIT:          0  iMISS:          0  dACCESS:     133044  dHIT:      39645  dMISS:      93399  itACCESS:          0  itHIT:          0  itMISS:          0  dtACCESS:          0  dtHIT:          0  dtMISS:          0
LLC PREFETCH     ACCESS:    2174110  HIT:     638216  MISS:    1535894  iACCESS:     906214  iHIT:     293357  iMISS:     612857  dACCESS:    1267896  dHIT:     344859  dMISS:     923037  itACCESS:          0  itHIT:          0  itMISS:          0  dtACCESS:          0  dtHIT:          0  dtMISS:          0
LLC WRITE        ACCESS:     193274  HIT:     185044  MISS:       8230  iACCESS:          0  iHIT:          0  iMISS:          0  dACCESS:     193274  dHIT:     185044  dMISS:       8230  itACCESS:          0  itHIT:          0  itMISS:          0  dtACCESS:          0  dtHIT:          0  dtMISS:          0
LLC TRANSLATION  ACCESS:     330784  HIT:      33783  MISS:     297001  iACCESS:          0  iHIT:          0  iMISS:          0  dACCESS:          0  dHIT:          0  dMISS:          0  itACCESS:      76508  itHIT:       6403  itMISS:      70105  dtACCESS:     254276  dtHIT:      27380  dtMISS:     226896
LLC PREFETCH  REQUESTED:          0  ISSUED:          0  CROSSED:          0  USEFUL:          0  USELESS:          0
LLC AVERAGE iMISS LATENCY: 48.9718 cycles
LLC AVERAGE dMISS LATENCY: 102.879 cycles
LLC AVERAGE itMISS LATENCY: 4.92953 cycles
LLC AVERAGE dtMISS LATENCY: 17.4163 cycles
LLC PAGE CROSSINGS (TLB HIT):         0 
LLC PAGE CROSSINGS (TLB MISS):         0 
LLC AVERAGE MISS LATENCY: 174.196 cycles

PageTableWalker TOTAL       ACCESS:     193373  
PageTableWalker AVERAGE LATENCY: 6.49807 cycles
PageTableWalker TOTAL LATENCY: 1256551 cycles

DRAM Statistics
Channel 0
 RQ ROW_BUFFER_HIT:     517468
  ROW_BUFFER_MISS:    1994084
 AVG DBUS CONGESTED CYCLE:     3.6531
 WQ ROW_BUFFER_HIT:      57843
  ROW_BUFFER_MISS:      54781  FULL:          0

