last_page:0x200000000000000
VMEM_RES_CAP:0x100000
PAGE_SIZE:4096
LOG2_PAGE_SIZE:12
LOG2_PAGE_TABLE_SIZE:9
page_table_levels:5
WARNING: physical memory size is smaller than virtual memory size
FDiP enabled with aggresivity 16

*** ChampSim Multicore Out-of-Order Simulator ***

Warmup Instructions: 50000000
Simulation Instructions: 100000000
Number of CPUs: 1
Small page size: 4096
Large page size: 2097152

CPU 0 Bimodal branch predictor
Basic BTB sets: 1024 ways: 8 indirect buffer size: 4096 RAS size: 64
Instruction page size distrubution: 0
Loading instruction page size distribution from /home/bsc/bsc018186/scratch/itp_asplos25_AE/dump/smt_srv85_ap_srv180_ap_1024i.pdst
Data page size distrubution: 0
Loading data page size distribution from /home/bsc/bsc018186/scratch/itp_asplos25_AE/dump/smt_srv85_ap_srv180_ap_1024i.pdst
cpu0_L2C IP-based stride prefetcher
cpu0_L1D next line prefetcher
cpu0_L1I next line prefetcher
Off-chip DRAM Size: 4 GiB Channels: 1 Width: 64-bit Data Rate: 3200 MT/s
Heartbeat CPU 0 instructions: 10000003 cycles: 2500640 heartbeat IPC: 3.99898 cumulative IPC: 3.99898 (Simulation time: 0 hr 0 min 44 sec) 
Heartbeat CPU 0 instructions: 20000001 cycles: 5000868 heartbeat IPC: 3.99964 cumulative IPC: 3.99931 (Simulation time: 0 hr 1 min 32 sec) 
Heartbeat CPU 0 instructions: 30000000 cycles: 7501330 heartbeat IPC: 3.99927 cumulative IPC: 3.9993 (Simulation time: 0 hr 2 min 20 sec) 
Heartbeat CPU 0 instructions: 40000003 cycles: 10001842 heartbeat IPC: 3.99919 cumulative IPC: 3.99927 (Simulation time: 0 hr 3 min 9 sec) 
Heartbeat CPU 0 instructions: 50000001 cycles: 12502075 heartbeat IPC: 3.99963 cumulative IPC: 3.99934 (Simulation time: 0 hr 3 min 58 sec) 
Warmup finished CPU 0 instructions: 50000001 cycles: 12502076 cumulative IPC: 3.99934 (Simulation time: 0 hr 3 min 58 sec) 

Warmup complete CPU 0 instructions: 50000001 cycles: 12502076 (Simulation time: 0 hr 3 min 58 sec) 

Heartbeat CPU 0 instructions: 60000004 cycles: 39408734 heartbeat IPC: 0.371656 cumulative IPC: 0.371656 (Simulation time: 0 hr 5 min 30 sec) 
Heartbeat CPU 0 instructions: 70000003 cycles: 65607519 heartbeat IPC: 0.381698 cumulative IPC: 0.37661 (Simulation time: 0 hr 6 min 54 sec) 
Heartbeat CPU 0 instructions: 80000002 cycles: 93104137 heartbeat IPC: 0.363682 cumulative IPC: 0.372199 (Simulation time: 0 hr 8 min 19 sec) 
Heartbeat CPU 0 instructions: 90000002 cycles: 120204365 heartbeat IPC: 0.369001 cumulative IPC: 0.371395 (Simulation time: 0 hr 9 min 43 sec) 
Heartbeat CPU 0 instructions: 100000000 cycles: 147181391 heartbeat IPC: 0.370686 cumulative IPC: 0.371253 (Simulation time: 0 hr 11 min 8 sec) 
Heartbeat CPU 0 instructions: 110000000 cycles: 174751551 heartbeat IPC: 0.362711 cumulative IPC: 0.369801 (Simulation time: 0 hr 12 min 35 sec) 
Heartbeat CPU 0 instructions: 120000002 cycles: 201489115 heartbeat IPC: 0.374006 cumulative IPC: 0.370396 (Simulation time: 0 hr 14 min 7 sec) 
Heartbeat CPU 0 instructions: 130000000 cycles: 227311108 heartbeat IPC: 0.387267 cumulative IPC: 0.372424 (Simulation time: 0 hr 15 min 30 sec) 
Heartbeat CPU 0 instructions: 140000002 cycles: 254419468 heartbeat IPC: 0.36889 cumulative IPC: 0.372028 (Simulation time: 0 hr 16 min 53 sec) 
Heartbeat CPU 0 instructions: 150000000 cycles: 281274553 heartbeat IPC: 0.372369 cumulative IPC: 0.372062 (Simulation time: 0 hr 18 min 24 sec) 
Simulation finished CPU 0 instructions: 100000004 cycles: 268772479 cumulative IPC: 0.372062 (Simulation time: 0 hr 18 min 24 sec) 

Simulation complete CPU 0 instructions: 100000004 cycles: 268772479 (Simulation time: 0 hr 18 min 24 sec) 


ChampSim completed all CPUs

Saving instructions large page distribution to /home/bsc/bsc018186/scratch/itp_asplos25_AE/dump/smt_srv85_ap_srv180_ap_1024i.pdst...
Saving data large page distribution to /home/bsc/bsc018186/scratch/itp_asplos25_AE/dump/smt_srv85_ap_srv180_ap_1024i.pdst...
=== Simulation ===
CPU 0 runs /gpfs/projects/bsc18/MN4/bsc18/romol/ChampSim/traces/qualcomm_srv/smt_srv85_ap_srv180_ap_1024i.champsimtrace.xz

Region of Interest Statistics

CPU 0 cumulative IPC: 0.372062 instructions: 100000004 cycles: 268772479
CPU 0 Branch Prediction Accuracy: 75.818% MPKI: 43.4496 Average ROB Occupancy at Mispredict: 11.0351
Branch type MPKI
BRANCH_DIRECT_JUMP: 1.30954
BRANCH_INDIRECT: 22.6756
BRANCH_CONDITIONAL: 12.6136
BRANCH_DIRECT_CALL: 2.49478
BRANCH_INDIRECT_CALL: 0.92066
BRANCH_RETURN: 3.43539

Instructions large pages: 0
Instructions small pages: 13336
Large page distribution for instructions: 0%

Data large pages: 0
Data small pages: 12088
Large page distribution for data: 0%

cpu0_L1I TOTAL       ACCESS:   39436132  HIT:   30274141  MISS:    9161991  iACCESS:   39436132  iHIT:   30274141  iMISS:    9161991  dACCESS:          0  dHIT:          0  dMISS:          0  itACCESS:          0  itHIT:          0  itMISS:          0  dtACCESS:          0  dtHIT:          0  dtMISS:          0
cpu0_L1I LOAD         ACCESS:   11844079  HIT:    9352609  MISS:    2491470  iACCESS:   11844079  iHIT:    9352609  iMISS:    2491470  dACCESS:          0  dHIT:          0  dMISS:          0  itACCESS:          0  itHIT:          0  itMISS:          0  dtACCESS:          0  dtHIT:          0  dtMISS:          0
cpu0_L1I RFO          ACCESS:          0  HIT:          0  MISS:          0  iACCESS:          0  iHIT:          0  iMISS:          0  dACCESS:          0  dHIT:          0  dMISS:          0  itACCESS:          0  itHIT:          0  itMISS:          0  dtACCESS:          0  dtHIT:          0  dtMISS:          0
cpu0_L1I PREFETCH     ACCESS:   27592053  HIT:   20921532  MISS:    6670521  iACCESS:   27592053  iHIT:   20921532  iMISS:    6670521  dACCESS:          0  dHIT:          0  dMISS:          0  itACCESS:          0  itHIT:          0  itMISS:          0  dtACCESS:          0  dtHIT:          0  dtMISS:          0
cpu0_L1I WRITE        ACCESS:          0  HIT:          0  MISS:          0  iACCESS:          0  iHIT:          0  iMISS:          0  dACCESS:          0  dHIT:          0  dMISS:          0  itACCESS:          0  itHIT:          0  itMISS:          0  dtACCESS:          0  dtHIT:          0  dtMISS:          0
cpu0_L1I TRANSLATION  ACCESS:          0  HIT:          0  MISS:          0  iACCESS:          0  iHIT:          0  iMISS:          0  dACCESS:          0  dHIT:          0  dMISS:          0  itACCESS:          0  itHIT:          0  itMISS:          0  dtACCESS:          0  dtHIT:          0  dtMISS:          0
cpu0_L1I PREFETCH  REQUESTED:   30271907  ISSUED:   30270605  CROSSED:          0  USEFUL:    2201084  USELESS:     751066
cpu0_L1I AVERAGE iMISS LATENCY: 23.0349 cycles
cpu0_L1I AVERAGE dMISS LATENCY: 0 cycles
cpu0_L1I AVERAGE itMISS LATENCY: 0 cycles
cpu0_L1I AVERAGE dtMISS LATENCY: 0 cycles
cpu0_L1I PAGE CROSSINGS (TLB HIT):         0 
cpu0_L1I PAGE CROSSINGS (TLB MISS):         0 
cpu0_L1I AVERAGE MISS LATENCY: 23.0349 cycles
cpu0_ITLB TOTAL       ACCESS:   33073493  HIT:   30877362  MISS:    2196131  iACCESS:   33073493  iHIT:   30877362  iMISS:    2196131  dACCESS:          0  dHIT:          0  dMISS:          0  itACCESS:          0  itHIT:          0  itMISS:          0  dtACCESS:          0  dtHIT:          0  dtMISS:          0
cpu0_ITLB LOAD         ACCESS:   33073493  HIT:   30877362  MISS:    2196131  iACCESS:   33073493  iHIT:   30877362  iMISS:    2196131  dACCESS:          0  dHIT:          0  dMISS:          0  itACCESS:          0  itHIT:          0  itMISS:          0  dtACCESS:          0  dtHIT:          0  dtMISS:          0
cpu0_ITLB RFO          ACCESS:          0  HIT:          0  MISS:          0  iACCESS:          0  iHIT:          0  iMISS:          0  dACCESS:          0  dHIT:          0  dMISS:          0  itACCESS:          0  itHIT:          0  itMISS:          0  dtACCESS:          0  dtHIT:          0  dtMISS:          0
cpu0_ITLB PREFETCH     ACCESS:          0  HIT:          0  MISS:          0  iACCESS:          0  iHIT:          0  iMISS:          0  dACCESS:          0  dHIT:          0  dMISS:          0  itACCESS:          0  itHIT:          0  itMISS:          0  dtACCESS:          0  dtHIT:          0  dtMISS:          0
cpu0_ITLB WRITE        ACCESS:          0  HIT:          0  MISS:          0  iACCESS:          0  iHIT:          0  iMISS:          0  dACCESS:          0  dHIT:          0  dMISS:          0  itACCESS:          0  itHIT:          0  itMISS:          0  dtACCESS:          0  dtHIT:          0  dtMISS:          0
cpu0_ITLB TRANSLATION  ACCESS:          0  HIT:          0  MISS:          0  iACCESS:          0  iHIT:          0  iMISS:          0  dACCESS:          0  dHIT:          0  dMISS:          0  itACCESS:          0  itHIT:          0  itMISS:          0  dtACCESS:          0  dtHIT:          0  dtMISS:          0
cpu0_ITLB PREFETCH  REQUESTED:          0  ISSUED:          0  CROSSED:          0  USEFUL:     383794  USELESS:      77102
cpu0_ITLB AVERAGE iMISS LATENCY: 7.46688 cycles
cpu0_ITLB AVERAGE dMISS LATENCY: 0 cycles
cpu0_ITLB AVERAGE itMISS LATENCY: 0 cycles
cpu0_ITLB AVERAGE dtMISS LATENCY: 0 cycles
cpu0_ITLB PAGE CROSSINGS (TLB HIT):         0 
cpu0_ITLB PAGE CROSSINGS (TLB MISS):         0 
cpu0_ITLB AVERAGE MISS LATENCY: 7.46688 cycles
cpu0_DTLB TOTAL       ACCESS:   28786574  HIT:   25112550  MISS:    3674024  iACCESS:          0  iHIT:          0  iMISS:          0  dACCESS:   28786574  dHIT:   25112550  dMISS:    3674024  itACCESS:          0  itHIT:          0  itMISS:          0  dtACCESS:          0  dtHIT:          0  dtMISS:          0
cpu0_DTLB LOAD         ACCESS:   28786574  HIT:   25112550  MISS:    3674024  iACCESS:          0  iHIT:          0  iMISS:          0  dACCESS:   28786574  dHIT:   25112550  dMISS:    3674024  itACCESS:          0  itHIT:          0  itMISS:          0  dtACCESS:          0  dtHIT:          0  dtMISS:          0
cpu0_DTLB RFO          ACCESS:          0  HIT:          0  MISS:          0  iACCESS:          0  iHIT:          0  iMISS:          0  dACCESS:          0  dHIT:          0  dMISS:          0  itACCESS:          0  itHIT:          0  itMISS:          0  dtACCESS:          0  dtHIT:          0  dtMISS:          0
cpu0_DTLB PREFETCH     ACCESS:          0  HIT:          0  MISS:          0  iACCESS:          0  iHIT:          0  iMISS:          0  dACCESS:          0  dHIT:          0  dMISS:          0  itACCESS:          0  itHIT:          0  itMISS:          0  dtACCESS:          0  dtHIT:          0  dtMISS:          0
cpu0_DTLB WRITE        ACCESS:          0  HIT:          0  MISS:          0  iACCESS:          0  iHIT:          0  iMISS:          0  dACCESS:          0  dHIT:          0  dMISS:          0  itACCESS:          0  itHIT:          0  itMISS:          0  dtACCESS:          0  dtHIT:          0  dtMISS:          0
cpu0_DTLB TRANSLATION  ACCESS:          0  HIT:          0  MISS:          0  iACCESS:          0  iHIT:          0  iMISS:          0  dACCESS:          0  dHIT:          0  dMISS:          0  itACCESS:          0  itHIT:          0  itMISS:          0  dtACCESS:          0  dtHIT:          0  dtMISS:          0
cpu0_DTLB PREFETCH  REQUESTED:          0  ISSUED:          0  CROSSED:          0  USEFUL:          0  USELESS:          0
cpu0_DTLB AVERAGE iMISS LATENCY: 0 cycles
cpu0_DTLB AVERAGE dMISS LATENCY: 16.6849 cycles
cpu0_DTLB AVERAGE itMISS LATENCY: 0 cycles
cpu0_DTLB AVERAGE dtMISS LATENCY: 0 cycles
cpu0_DTLB PAGE CROSSINGS (TLB HIT):         0 
cpu0_DTLB PAGE CROSSINGS (TLB MISS):         0 
cpu0_DTLB AVERAGE MISS LATENCY: 16.6849 cycles
cpu0_STLB TOTAL       ACCESS:    2609117  HIT:    2239577  MISS:     369540  iACCESS:     460911  iHIT:     352786  iMISS:     108125  dACCESS:    2148206  dHIT:    1886791  dMISS:     261415  itACCESS:          0  itHIT:          0  itMISS:          0  dtACCESS:          0  dtHIT:          0  dtMISS:          0
cpu0_STLB LOAD         ACCESS:    2609117  HIT:    2239577  MISS:     369540  iACCESS:     460911  iHIT:     352786  iMISS:     108125  dACCESS:    2148206  dHIT:    1886791  dMISS:     261415  itACCESS:          0  itHIT:          0  itMISS:          0  dtACCESS:          0  dtHIT:          0  dtMISS:          0
cpu0_STLB RFO          ACCESS:          0  HIT:          0  MISS:          0  iACCESS:          0  iHIT:          0  iMISS:          0  dACCESS:          0  dHIT:          0  dMISS:          0  itACCESS:          0  itHIT:          0  itMISS:          0  dtACCESS:          0  dtHIT:          0  dtMISS:          0
cpu0_STLB PREFETCH     ACCESS:          0  HIT:          0  MISS:          0  iACCESS:          0  iHIT:          0  iMISS:          0  dACCESS:          0  dHIT:          0  dMISS:          0  itACCESS:          0  itHIT:          0  itMISS:          0  dtACCESS:          0  dtHIT:          0  dtMISS:          0
cpu0_STLB WRITE        ACCESS:          0  HIT:          0  MISS:          0  iACCESS:          0  iHIT:          0  iMISS:          0  dACCESS:          0  dHIT:          0  dMISS:          0  itACCESS:          0  itHIT:          0  itMISS:          0  dtACCESS:          0  dtHIT:          0  dtMISS:          0
cpu0_STLB TRANSLATION  ACCESS:          0  HIT:          0  MISS:          0  iACCESS:          0  iHIT:          0  iMISS:          0  dACCESS:          0  dHIT:          0  dMISS:          0  itACCESS:          0  itHIT:          0  itMISS:          0  dtACCESS:          0  dtHIT:          0  dtMISS:          0
cpu0_STLB PREFETCH  REQUESTED:          0  ISSUED:          0  CROSSED:          0  USEFUL:          0  USELESS:          0
cpu0_STLB AVERAGE iMISS LATENCY: 34.4245 cycles
cpu0_STLB AVERAGE dMISS LATENCY: 119.186 cycles
cpu0_STLB AVERAGE itMISS LATENCY: 0 cycles
cpu0_STLB AVERAGE dtMISS LATENCY: 0 cycles
cpu0_STLB PAGE CROSSINGS (TLB HIT):         0 
cpu0_STLB PAGE CROSSINGS (TLB MISS):         0 
cpu0_STLB AVERAGE MISS LATENCY: 153.61 cycles
cpu0_L1D TOTAL       ACCESS:   44508752  HIT:   39106429  MISS:    5402323  iACCESS:          0  iHIT:          0  iMISS:          0  dACCESS:   43962897  dHIT:   39072082  dMISS:    4890815  itACCESS:     122188  itHIT:      14361  itMISS:     107827  dtACCESS:     423667  dtHIT:      19986  dtMISS:     403681
cpu0_L1D LOAD         ACCESS:   20055753  HIT:   17867411  MISS:    2188342  iACCESS:          0  iHIT:          0  iMISS:          0  dACCESS:   20055753  dHIT:   17867411  dMISS:    2188342  itACCESS:          0  itHIT:          0  itMISS:          0  dtACCESS:          0  dtHIT:          0  dtMISS:          0
cpu0_L1D RFO          ACCESS:          0  HIT:          0  MISS:          0  iACCESS:          0  iHIT:          0  iMISS:          0  dACCESS:          0  dHIT:          0  dMISS:          0  itACCESS:          0  itHIT:          0  itMISS:          0  dtACCESS:          0  dtHIT:          0  dtMISS:          0
cpu0_L1D PREFETCH     ACCESS:   13771015  HIT:   11627588  MISS:    2143427  iACCESS:          0  iHIT:          0  iMISS:          0  dACCESS:   13771015  dHIT:   11627588  dMISS:    2143427  itACCESS:          0  itHIT:          0  itMISS:          0  dtACCESS:          0  dtHIT:          0  dtMISS:          0
cpu0_L1D WRITE        ACCESS:   10136129  HIT:    9577083  MISS:     559046  iACCESS:          0  iHIT:          0  iMISS:          0  dACCESS:   10136129  dHIT:    9577083  dMISS:     559046  itACCESS:          0  itHIT:          0  itMISS:          0  dtACCESS:          0  dtHIT:          0  dtMISS:          0
cpu0_L1D TRANSLATION  ACCESS:     545855  HIT:      34347  MISS:     511508  iACCESS:          0  iHIT:          0  iMISS:          0  dACCESS:          0  dHIT:          0  dMISS:          0  itACCESS:     122188  itHIT:      14361  itMISS:     107827  dtACCESS:     423667  dtHIT:      19986  dtMISS:     403681
cpu0_L1D PREFETCH  REQUESTED:   20055753  ISSUED:   18389988  CROSSED:          0  USEFUL:     358526  USELESS:     932160
cpu0_L1D AVERAGE iMISS LATENCY: 0 cycles
cpu0_L1D AVERAGE dMISS LATENCY: 51.7625 cycles
cpu0_L1D AVERAGE itMISS LATENCY: 2.16943 cycles
cpu0_L1D AVERAGE dtMISS LATENCY: 7.17058 cycles
cpu0_L1D PAGE CROSSINGS (TLB HIT):         0 
cpu0_L1D PAGE CROSSINGS (TLB MISS):         0 
cpu0_L1D AVERAGE MISS LATENCY: 61.1025 cycles
cpu0_L2C TOTAL       ACCESS:    8555149  HIT:    1545292  MISS:    7009857  iACCESS:    3751398  iHIT:     824446  iMISS:    2926952  dACCESS:    4321374  dHIT:     522601  dMISS:    3798773  itACCESS:     106988  itHIT:      39013  itMISS:      67975  dtACCESS:     375389  dtHIT:     159232  dtMISS:     216157
cpu0_L2C LOAD         ACCESS:    2043849  HIT:     204192  MISS:    1839657  iACCESS:     836349  iHIT:     116898  iMISS:     719451  dACCESS:    1207500  dHIT:      87294  dMISS:    1120206  itACCESS:          0  itHIT:          0  itMISS:          0  dtACCESS:          0  dtHIT:          0  dtMISS:          0
cpu0_L2C RFO          ACCESS:     209665  HIT:      27307  MISS:     182358  iACCESS:          0  iHIT:          0  iMISS:          0  dACCESS:     209665  dHIT:      27307  dMISS:     182358  itACCESS:          0  itHIT:          0  itMISS:          0  dtACCESS:          0  dtHIT:          0  dtMISS:          0
cpu0_L2C PREFETCH     ACCESS:    5473026  HIT:    1013711  MISS:    4459315  iACCESS:    2915049  iHIT:     707548  iMISS:    2207501  dACCESS:    2557977  dHIT:     306163  dMISS:    2251814  itACCESS:          0  itHIT:          0  itMISS:          0  dtACCESS:          0  dtHIT:          0  dtMISS:          0
cpu0_L2C WRITE        ACCESS:     346232  HIT:     101837  MISS:     244395  iACCESS:          0  iHIT:          0  iMISS:          0  dACCESS:     346232  dHIT:     101837  dMISS:     244395  itACCESS:          0  itHIT:          0  itMISS:          0  dtACCESS:          0  dtHIT:          0  dtMISS:          0
cpu0_L2C TRANSLATION  ACCESS:     482377  HIT:     198245  MISS:     284132  iACCESS:          0  iHIT:          0  iMISS:          0  dACCESS:          0  dHIT:          0  dMISS:          0  itACCESS:     106988  itHIT:      39013  itMISS:      67975  dtACCESS:     375389  dtHIT:     159232  dtMISS:     216157
cpu0_L2C PREFETCH  REQUESTED:    1515546  ISSUED:    1515544  CROSSED:          0  USEFUL:     414931  USELESS:     485542
cpu0_L2C AVERAGE iMISS LATENCY: 25.4389 cycles
cpu0_L2C AVERAGE dMISS LATENCY: 48.9644 cycles
cpu0_L2C AVERAGE itMISS LATENCY: 1.52447 cycles
cpu0_L2C AVERAGE dtMISS LATENCY: 5.01104 cycles
cpu0_L2C PAGE CROSSINGS (TLB HIT):         0 
cpu0_L2C PAGE CROSSINGS (TLB MISS):         0 
cpu0_L2C AVERAGE MISS LATENCY: 80.9388 cycles
LLC TOTAL       ACCESS:    6828499  HIT:    4249203  MISS:    2579296  iACCESS:    2833751  iHIT:    2044212  iMISS:     789539  dACCESS:    3710616  dHIT:    2136288  dMISS:    1574328  itACCESS:      67975  itHIT:      15743  itMISS:      52232  dtACCESS:     216157  dtHIT:      52960  dtMISS:     163197
LLC LOAD         ACCESS:    1833847  HIT:    1210784  MISS:     623063  iACCESS:     718066  iHIT:     553460  iMISS:     164606  dACCESS:    1115781  dHIT:     657324  dMISS:     458457  itACCESS:          0  itHIT:          0  itMISS:          0  dtACCESS:          0  dtHIT:          0  dtMISS:          0
LLC RFO          ACCESS:     182299  HIT:      96001  MISS:      86298  iACCESS:          0  iHIT:          0  iMISS:          0  dACCESS:     182299  dHIT:      96001  dMISS:      86298  itACCESS:          0  itHIT:          0  itMISS:          0  dtACCESS:          0  dtHIT:          0  dtMISS:          0
LLC PREFETCH     ACCESS:    4250795  HIT:    2602980  MISS:    1647815  iACCESS:    2115685  iHIT:    1490752  iMISS:     624933  dACCESS:    2135110  dHIT:    1112228  dMISS:    1022882  itACCESS:          0  itHIT:          0  itMISS:          0  dtACCESS:          0  dtHIT:          0  dtMISS:          0
LLC WRITE        ACCESS:     277426  HIT:     270735  MISS:       6691  iACCESS:          0  iHIT:          0  iMISS:          0  dACCESS:     277426  dHIT:     270735  dMISS:       6691  itACCESS:          0  itHIT:          0  itMISS:          0  dtACCESS:          0  dtHIT:          0  dtMISS:          0
LLC TRANSLATION  ACCESS:     284132  HIT:      68703  MISS:     215429  iACCESS:          0  iHIT:          0  iMISS:          0  dACCESS:          0  dHIT:          0  dMISS:          0  itACCESS:      67975  itHIT:      15743  itMISS:      52232  dtACCESS:     216157  dtHIT:      52960  dtMISS:     163197
LLC PREFETCH  REQUESTED:          0  ISSUED:          0  CROSSED:          0  USEFUL:          0  USELESS:          0
LLC AVERAGE iMISS LATENCY: 47.8113 cycles
LLC AVERAGE dMISS LATENCY: 107.921 cycles
LLC AVERAGE itMISS LATENCY: 3.62382 cycles
LLC AVERAGE dtMISS LATENCY: 11.9689 cycles
LLC PAGE CROSSINGS (TLB HIT):         0 
LLC PAGE CROSSINGS (TLB MISS):         0 
LLC AVERAGE MISS LATENCY: 171.325 cycles

PageTableWalker TOTAL       ACCESS:     184678  
PageTableWalker AVERAGE LATENCY: 5.95028 cycles
PageTableWalker TOTAL LATENCY: 1098884 cycles

DRAM Statistics
Channel 0
 RQ ROW_BUFFER_HIT:     578468
  ROW_BUFFER_MISS:    1983194
 AVG DBUS CONGESTED CYCLE:    3.64713
 WQ ROW_BUFFER_HIT:      64861
  ROW_BUFFER_MISS:      62144  FULL:          0

