last_page:0x200000000000000
VMEM_RES_CAP:0x100000
PAGE_SIZE:4096
LOG2_PAGE_SIZE:12
LOG2_PAGE_TABLE_SIZE:9
page_table_levels:5
WARNING: physical memory size is smaller than virtual memory size
FDiP enabled with aggresivity 16

*** ChampSim Multicore Out-of-Order Simulator ***

Warmup Instructions: 50000000
Simulation Instructions: 100000000
Number of CPUs: 1
Small page size: 4096
Large page size: 2097152

CPU 0 Bimodal branch predictor
Basic BTB sets: 1024 ways: 8 indirect buffer size: 4096 RAS size: 64
Instruction page size distrubution: 0
Loading instruction page size distribution from /home/bsc/bsc018186/scratch/itp_asplos25_AE/dump/smt_srv537_ap_srv73_ap_1024i.pdst
Data page size distrubution: 0
Loading data page size distribution from /home/bsc/bsc018186/scratch/itp_asplos25_AE/dump/smt_srv537_ap_srv73_ap_1024i.pdst
cpu0_L2C IP-based stride prefetcher
cpu0_L2C is using PTP replacement policy:
	TLB_STRESS_THRESHOLD:0
	PTE_EVICTION_RATIO:0
cpu0_L1D next line prefetcher
cpu0_L1I next line prefetcher
Off-chip DRAM Size: 4 GiB Channels: 1 Width: 64-bit Data Rate: 3200 MT/s
Heartbeat CPU 0 instructions: 10000001 cycles: 2500734 heartbeat IPC: 3.99883 cumulative IPC: 3.99883 (Simulation time: 0 hr 0 min 45 sec) 
Heartbeat CPU 0 instructions: 20000001 cycles: 5001248 heartbeat IPC: 3.99918 cumulative IPC: 3.99901 (Simulation time: 0 hr 1 min 32 sec) 
Heartbeat CPU 0 instructions: 30000003 cycles: 7501574 heartbeat IPC: 3.99948 cumulative IPC: 3.99917 (Simulation time: 0 hr 2 min 19 sec) 
Heartbeat CPU 0 instructions: 40000000 cycles: 10001852 heartbeat IPC: 3.99956 cumulative IPC: 3.99926 (Simulation time: 0 hr 3 min 7 sec) 
Heartbeat CPU 0 instructions: 50000002 cycles: 12503038 heartbeat IPC: 3.99811 cumulative IPC: 3.99903 (Simulation time: 0 hr 3 min 55 sec) 
Warmup finished CPU 0 instructions: 50000002 cycles: 12503039 cumulative IPC: 3.99903 (Simulation time: 0 hr 3 min 55 sec) 

Warmup complete CPU 0 instructions: 50000002 cycles: 12503039 (Simulation time: 0 hr 3 min 55 sec) 

Heartbeat CPU 0 instructions: 60000004 cycles: 36530376 heartbeat IPC: 0.416193 cumulative IPC: 0.416193 (Simulation time: 0 hr 5 min 23 sec) 
Heartbeat CPU 0 instructions: 70000000 cycles: 58466999 heartbeat IPC: 0.455859 cumulative IPC: 0.435124 (Simulation time: 0 hr 6 min 47 sec) 
Heartbeat CPU 0 instructions: 80000003 cycles: 81129674 heartbeat IPC: 0.441255 cumulative IPC: 0.437149 (Simulation time: 0 hr 8 min 13 sec) 
Heartbeat CPU 0 instructions: 90000000 cycles: 110870672 heartbeat IPC: 0.336237 cumulative IPC: 0.406638 (Simulation time: 0 hr 9 min 52 sec) 
Heartbeat CPU 0 instructions: 100000003 cycles: 141791271 heartbeat IPC: 0.32341 cumulative IPC: 0.386733 (Simulation time: 0 hr 11 min 32 sec) 
Heartbeat CPU 0 instructions: 110000002 cycles: 173665132 heartbeat IPC: 0.313737 cumulative IPC: 0.372296 (Simulation time: 0 hr 13 min 14 sec) 
Heartbeat CPU 0 instructions: 120000001 cycles: 202587133 heartbeat IPC: 0.345758 cumulative IPC: 0.368259 (Simulation time: 0 hr 14 min 52 sec) 
Heartbeat CPU 0 instructions: 130000000 cycles: 218292702 heartbeat IPC: 0.636717 cumulative IPC: 0.388747 (Simulation time: 0 hr 16 min 4 sec) 
Heartbeat CPU 0 instructions: 140000003 cycles: 238623568 heartbeat IPC: 0.491864 cumulative IPC: 0.398018 (Simulation time: 0 hr 17 min 19 sec) 
Heartbeat CPU 0 instructions: 150000002 cycles: 269064146 heartbeat IPC: 0.328509 cumulative IPC: 0.389771 (Simulation time: 0 hr 18 min 46 sec) 
Simulation finished CPU 0 instructions: 100000000 cycles: 256561108 cumulative IPC: 0.389771 (Simulation time: 0 hr 18 min 46 sec) 

Simulation complete CPU 0 instructions: 100000000 cycles: 256561108 (Simulation time: 0 hr 18 min 46 sec) 


ChampSim completed all CPUs

Saving instructions large page distribution to /home/bsc/bsc018186/scratch/itp_asplos25_AE/dump/smt_srv537_ap_srv73_ap_1024i.pdst...
Saving data large page distribution to /home/bsc/bsc018186/scratch/itp_asplos25_AE/dump/smt_srv537_ap_srv73_ap_1024i.pdst...
=== Simulation ===
CPU 0 runs /gpfs/projects/bsc18/MN4/bsc18/romol/ChampSim/traces/qualcomm_srv/smt_srv537_ap_srv73_ap_1024i.champsimtrace.xz

Region of Interest Statistics

CPU 0 cumulative IPC: 0.389771 instructions: 100000000 cycles: 256561108
CPU 0 Branch Prediction Accuracy: 78.0605% MPKI: 42.6412 Average ROB Occupancy at Mispredict: 10.8786
Branch type MPKI
BRANCH_DIRECT_JUMP: 1.08701
BRANCH_INDIRECT: 22.7445
BRANCH_CONDITIONAL: 12.2037
BRANCH_DIRECT_CALL: 2.01297
BRANCH_INDIRECT_CALL: 1.68505
BRANCH_RETURN: 2.90805

Instructions large pages: 0
Instructions small pages: 11665
Large page distribution for instructions: 0%

Data large pages: 0
Data small pages: 9807
Large page distribution for data: 0%

cpu0_L1I TOTAL       ACCESS:   38223121  HIT:   31123607  MISS:    7099514  iACCESS:   38223121  iHIT:   31123607  iMISS:    7099514  dACCESS:          0  dHIT:          0  dMISS:          0  itACCESS:          0  itHIT:          0  itMISS:          0  dtACCESS:          0  dtHIT:          0  dtMISS:          0
cpu0_L1I LOAD         ACCESS:   10600041  HIT:    8650573  MISS:    1949468  iACCESS:   10600041  iHIT:    8650573  iMISS:    1949468  dACCESS:          0  dHIT:          0  dMISS:          0  itACCESS:          0  itHIT:          0  itMISS:          0  dtACCESS:          0  dtHIT:          0  dtMISS:          0
cpu0_L1I RFO          ACCESS:          0  HIT:          0  MISS:          0  iACCESS:          0  iHIT:          0  iMISS:          0  dACCESS:          0  dHIT:          0  dMISS:          0  itACCESS:          0  itHIT:          0  itMISS:          0  dtACCESS:          0  dtHIT:          0  dtMISS:          0
cpu0_L1I PREFETCH     ACCESS:   27623080  HIT:   22473034  MISS:    5150046  iACCESS:   27623080  iHIT:   22473034  iMISS:    5150046  dACCESS:          0  dHIT:          0  dMISS:          0  itACCESS:          0  itHIT:          0  itMISS:          0  dtACCESS:          0  dtHIT:          0  dtMISS:          0
cpu0_L1I WRITE        ACCESS:          0  HIT:          0  MISS:          0  iACCESS:          0  iHIT:          0  iMISS:          0  dACCESS:          0  dHIT:          0  dMISS:          0  itACCESS:          0  itHIT:          0  itMISS:          0  dtACCESS:          0  dtHIT:          0  dtMISS:          0
cpu0_L1I TRANSLATION  ACCESS:          0  HIT:          0  MISS:          0  iACCESS:          0  iHIT:          0  iMISS:          0  dACCESS:          0  dHIT:          0  dMISS:          0  itACCESS:          0  itHIT:          0  itMISS:          0  dtACCESS:          0  dtHIT:          0  dtMISS:          0
cpu0_L1I PREFETCH  REQUESTED:   30070372  ISSUED:   30070369  CROSSED:          0  USEFUL:    1798617  USELESS:     646446
cpu0_L1I AVERAGE iMISS LATENCY: 23.633 cycles
cpu0_L1I AVERAGE dMISS LATENCY: 0 cycles
cpu0_L1I AVERAGE itMISS LATENCY: 0 cycles
cpu0_L1I AVERAGE dtMISS LATENCY: 0 cycles
cpu0_L1I PAGE CROSSINGS (TLB HIT):         0 
cpu0_L1I PAGE CROSSINGS (TLB MISS):         0 
cpu0_L1I AVERAGE MISS LATENCY: 23.633 cycles
cpu0_ITLB TOTAL       ACCESS:   32335823  HIT:   30486685  MISS:    1849138  iACCESS:   32335823  iHIT:   30486685  iMISS:    1849138  dACCESS:          0  dHIT:          0  dMISS:          0  itACCESS:          0  itHIT:          0  itMISS:          0  dtACCESS:          0  dtHIT:          0  dtMISS:          0
cpu0_ITLB LOAD         ACCESS:   32335823  HIT:   30486685  MISS:    1849138  iACCESS:   32335823  iHIT:   30486685  iMISS:    1849138  dACCESS:          0  dHIT:          0  dMISS:          0  itACCESS:          0  itHIT:          0  itMISS:          0  dtACCESS:          0  dtHIT:          0  dtMISS:          0
cpu0_ITLB RFO          ACCESS:          0  HIT:          0  MISS:          0  iACCESS:          0  iHIT:          0  iMISS:          0  dACCESS:          0  dHIT:          0  dMISS:          0  itACCESS:          0  itHIT:          0  itMISS:          0  dtACCESS:          0  dtHIT:          0  dtMISS:          0
cpu0_ITLB PREFETCH     ACCESS:          0  HIT:          0  MISS:          0  iACCESS:          0  iHIT:          0  iMISS:          0  dACCESS:          0  dHIT:          0  dMISS:          0  itACCESS:          0  itHIT:          0  itMISS:          0  dtACCESS:          0  dtHIT:          0  dtMISS:          0
cpu0_ITLB WRITE        ACCESS:          0  HIT:          0  MISS:          0  iACCESS:          0  iHIT:          0  iMISS:          0  dACCESS:          0  dHIT:          0  dMISS:          0  itACCESS:          0  itHIT:          0  itMISS:          0  dtACCESS:          0  dtHIT:          0  dtMISS:          0
cpu0_ITLB TRANSLATION  ACCESS:          0  HIT:          0  MISS:          0  iACCESS:          0  iHIT:          0  iMISS:          0  dACCESS:          0  dHIT:          0  dMISS:          0  itACCESS:          0  itHIT:          0  itMISS:          0  dtACCESS:          0  dtHIT:          0  dtMISS:          0
cpu0_ITLB PREFETCH  REQUESTED:          0  ISSUED:          0  CROSSED:          0  USEFUL:     324827  USELESS:      67610
cpu0_ITLB AVERAGE iMISS LATENCY: 9.87162 cycles
cpu0_ITLB AVERAGE dMISS LATENCY: 0 cycles
cpu0_ITLB AVERAGE itMISS LATENCY: 0 cycles
cpu0_ITLB AVERAGE dtMISS LATENCY: 0 cycles
cpu0_ITLB PAGE CROSSINGS (TLB HIT):         0 
cpu0_ITLB PAGE CROSSINGS (TLB MISS):         0 
cpu0_ITLB AVERAGE MISS LATENCY: 9.87162 cycles
cpu0_DTLB TOTAL       ACCESS:   31244271  HIT:   25969753  MISS:    5274518  iACCESS:          0  iHIT:          0  iMISS:          0  dACCESS:   31244271  dHIT:   25969753  dMISS:    5274518  itACCESS:          0  itHIT:          0  itMISS:          0  dtACCESS:          0  dtHIT:          0  dtMISS:          0
cpu0_DTLB LOAD         ACCESS:   31244271  HIT:   25969753  MISS:    5274518  iACCESS:          0  iHIT:          0  iMISS:          0  dACCESS:   31244271  dHIT:   25969753  dMISS:    5274518  itACCESS:          0  itHIT:          0  itMISS:          0  dtACCESS:          0  dtHIT:          0  dtMISS:          0
cpu0_DTLB RFO          ACCESS:          0  HIT:          0  MISS:          0  iACCESS:          0  iHIT:          0  iMISS:          0  dACCESS:          0  dHIT:          0  dMISS:          0  itACCESS:          0  itHIT:          0  itMISS:          0  dtACCESS:          0  dtHIT:          0  dtMISS:          0
cpu0_DTLB PREFETCH     ACCESS:          0  HIT:          0  MISS:          0  iACCESS:          0  iHIT:          0  iMISS:          0  dACCESS:          0  dHIT:          0  dMISS:          0  itACCESS:          0  itHIT:          0  itMISS:          0  dtACCESS:          0  dtHIT:          0  dtMISS:          0
cpu0_DTLB WRITE        ACCESS:          0  HIT:          0  MISS:          0  iACCESS:          0  iHIT:          0  iMISS:          0  dACCESS:          0  dHIT:          0  dMISS:          0  itACCESS:          0  itHIT:          0  itMISS:          0  dtACCESS:          0  dtHIT:          0  dtMISS:          0
cpu0_DTLB TRANSLATION  ACCESS:          0  HIT:          0  MISS:          0  iACCESS:          0  iHIT:          0  iMISS:          0  dACCESS:          0  dHIT:          0  dMISS:          0  itACCESS:          0  itHIT:          0  itMISS:          0  dtACCESS:          0  dtHIT:          0  dtMISS:          0
cpu0_DTLB PREFETCH  REQUESTED:          0  ISSUED:          0  CROSSED:          0  USEFUL:          0  USELESS:          0
cpu0_DTLB AVERAGE iMISS LATENCY: 0 cycles
cpu0_DTLB AVERAGE dMISS LATENCY: 14.1049 cycles
cpu0_DTLB AVERAGE itMISS LATENCY: 0 cycles
cpu0_DTLB AVERAGE dtMISS LATENCY: 0 cycles
cpu0_DTLB PAGE CROSSINGS (TLB HIT):         0 
cpu0_DTLB PAGE CROSSINGS (TLB MISS):         0 
cpu0_DTLB AVERAGE MISS LATENCY: 14.1049 cycles
cpu0_STLB TOTAL       ACCESS:    3164117  HIT:    2888475  MISS:     275642  iACCESS:     392445  iHIT:     303027  iMISS:      89418  dACCESS:    2771672  dHIT:    2585448  dMISS:     186224  itACCESS:          0  itHIT:          0  itMISS:          0  dtACCESS:          0  dtHIT:          0  dtMISS:          0
cpu0_STLB LOAD         ACCESS:    3164117  HIT:    2888475  MISS:     275642  iACCESS:     392445  iHIT:     303027  iMISS:      89418  dACCESS:    2771672  dHIT:    2585448  dMISS:     186224  itACCESS:          0  itHIT:          0  itMISS:          0  dtACCESS:          0  dtHIT:          0  dtMISS:          0
cpu0_STLB RFO          ACCESS:          0  HIT:          0  MISS:          0  iACCESS:          0  iHIT:          0  iMISS:          0  dACCESS:          0  dHIT:          0  dMISS:          0  itACCESS:          0  itHIT:          0  itMISS:          0  dtACCESS:          0  dtHIT:          0  dtMISS:          0
cpu0_STLB PREFETCH     ACCESS:          0  HIT:          0  MISS:          0  iACCESS:          0  iHIT:          0  iMISS:          0  dACCESS:          0  dHIT:          0  dMISS:          0  itACCESS:          0  itHIT:          0  itMISS:          0  dtACCESS:          0  dtHIT:          0  dtMISS:          0
cpu0_STLB WRITE        ACCESS:          0  HIT:          0  MISS:          0  iACCESS:          0  iHIT:          0  iMISS:          0  dACCESS:          0  dHIT:          0  dMISS:          0  itACCESS:          0  itHIT:          0  itMISS:          0  dtACCESS:          0  dtHIT:          0  dtMISS:          0
cpu0_STLB TRANSLATION  ACCESS:          0  HIT:          0  MISS:          0  iACCESS:          0  iHIT:          0  iMISS:          0  dACCESS:          0  dHIT:          0  dMISS:          0  itACCESS:          0  itHIT:          0  itMISS:          0  dtACCESS:          0  dtHIT:          0  dtMISS:          0
cpu0_STLB PREFETCH  REQUESTED:          0  ISSUED:          0  CROSSED:          0  USEFUL:          0  USELESS:          0
cpu0_STLB AVERAGE iMISS LATENCY: 54.856 cycles
cpu0_STLB AVERAGE dMISS LATENCY: 188.678 cycles
cpu0_STLB AVERAGE itMISS LATENCY: 0 cycles
cpu0_STLB AVERAGE dtMISS LATENCY: 0 cycles
cpu0_STLB PAGE CROSSINGS (TLB HIT):         0 
cpu0_STLB PAGE CROSSINGS (TLB MISS):         0 
cpu0_STLB AVERAGE MISS LATENCY: 243.534 cycles
cpu0_L1D TOTAL       ACCESS:   48963587  HIT:   40782057  MISS:    8181530  iACCESS:          0  iHIT:          0  iMISS:          0  dACCESS:   48511870  dHIT:   40759242  dMISS:    7752628  itACCESS:     108617  itHIT:      10697  itMISS:      97920  dtACCESS:     343100  dtHIT:      12118  dtMISS:     330982
cpu0_L1D LOAD         ACCESS:   23400294  HIT:   19252442  MISS:    4147852  iACCESS:          0  iHIT:          0  iMISS:          0  dACCESS:   23400294  dHIT:   19252442  dMISS:    4147852  itACCESS:          0  itHIT:          0  itMISS:          0  dtACCESS:          0  dtHIT:          0  dtMISS:          0
cpu0_L1D RFO          ACCESS:          0  HIT:          0  MISS:          0  iACCESS:          0  iHIT:          0  iMISS:          0  dACCESS:          0  dHIT:          0  dMISS:          0  itACCESS:          0  itHIT:          0  itMISS:          0  dtACCESS:          0  dtHIT:          0  dtMISS:          0
cpu0_L1D PREFETCH     ACCESS:   15248304  HIT:   12416588  MISS:    2831716  iACCESS:          0  iHIT:          0  iMISS:          0  dACCESS:   15248304  dHIT:   12416588  dMISS:    2831716  itACCESS:          0  itHIT:          0  itMISS:          0  dtACCESS:          0  dtHIT:          0  dtMISS:          0
cpu0_L1D WRITE        ACCESS:    9863272  HIT:    9090212  MISS:     773060  iACCESS:          0  iHIT:          0  iMISS:          0  dACCESS:    9863272  dHIT:    9090212  dMISS:     773060  itACCESS:          0  itHIT:          0  itMISS:          0  dtACCESS:          0  dtHIT:          0  dtMISS:          0
cpu0_L1D TRANSLATION  ACCESS:     451717  HIT:      22815  MISS:     428902  iACCESS:          0  iHIT:          0  iMISS:          0  dACCESS:          0  dHIT:          0  dMISS:          0  itACCESS:     108617  itHIT:      10697  itMISS:      97920  dtACCESS:     343100  dtHIT:      12118  dtMISS:     330982
cpu0_L1D PREFETCH  REQUESTED:   23400294  ISSUED:   19687936  CROSSED:          0  USEFUL:     352803  USELESS:    1081359
cpu0_L1D AVERAGE iMISS LATENCY: 0 cycles
cpu0_L1D AVERAGE dMISS LATENCY: 32.2975 cycles
cpu0_L1D AVERAGE itMISS LATENCY: 1.73307 cycles
cpu0_L1D AVERAGE dtMISS LATENCY: 5.90445 cycles
cpu0_L1D PAGE CROSSINGS (TLB HIT):         0 
cpu0_L1D PAGE CROSSINGS (TLB MISS):         0 
cpu0_L1D AVERAGE MISS LATENCY: 39.935 cycles
cpu0_L2C TOTAL       ACCESS:    9176580  HIT:    5505967  MISS:    3670613  iACCESS:    3116082  iHIT:    1899326  iMISS:    1216756  dACCESS:    5707423  dHIT:    3561591  dMISS:    2145832  itACCESS:      88829  itHIT:      15477  itMISS:      73352  dtACCESS:     264246  dtHIT:      29573  dtMISS:     234673
cpu0_L2C LOAD         ACCESS:    3357374  HIT:    2453594  MISS:     903780  iACCESS:     699550  iHIT:     447066  iMISS:     252484  dACCESS:    2657824  dHIT:    2006528  dMISS:     651296  itACCESS:          0  itHIT:          0  itMISS:          0  dtACCESS:          0  dtHIT:          0  dtMISS:          0
cpu0_L2C RFO          ACCESS:     238838  HIT:     107117  MISS:     131721  iACCESS:          0  iHIT:          0  iMISS:          0  dACCESS:     238838  dHIT:     107117  dMISS:     131721  itACCESS:          0  itHIT:          0  itMISS:          0  dtACCESS:          0  dtHIT:          0  dtMISS:          0
cpu0_L2C PREFETCH     ACCESS:    4888178  HIT:    2575174  MISS:    2313004  iACCESS:    2416532  iHIT:    1452260  iMISS:     964272  dACCESS:    2471646  dHIT:    1122914  dMISS:    1348732  itACCESS:          0  itHIT:          0  itMISS:          0  dtACCESS:          0  dtHIT:          0  dtMISS:          0
cpu0_L2C WRITE        ACCESS:     339115  HIT:     325032  MISS:      14083  iACCESS:          0  iHIT:          0  iMISS:          0  dACCESS:     339115  dHIT:     325032  dMISS:      14083  itACCESS:          0  itHIT:          0  itMISS:          0  dtACCESS:          0  dtHIT:          0  dtMISS:          0
cpu0_L2C TRANSLATION  ACCESS:     353075  HIT:      45050  MISS:     308025  iACCESS:          0  iHIT:          0  iMISS:          0  dACCESS:          0  dHIT:          0  dMISS:          0  itACCESS:      88829  itHIT:      15477  itMISS:      73352  dtACCESS:     264246  dtHIT:      29573  dtMISS:     234673
cpu0_L2C PREFETCH  REQUESTED:    1222643  ISSUED:    1222589  CROSSED:          0  USEFUL:     272952  USELESS:     255259
cpu0_L2C AVERAGE iMISS LATENCY: 38.5957 cycles
cpu0_L2C AVERAGE dMISS LATENCY: 79.126 cycles
cpu0_L2C AVERAGE itMISS LATENCY: 3.62441 cycles
cpu0_L2C AVERAGE dtMISS LATENCY: 12.4449 cycles
cpu0_L2C PAGE CROSSINGS (TLB HIT):         0 
cpu0_L2C PAGE CROSSINGS (TLB MISS):         0 
cpu0_L2C AVERAGE MISS LATENCY: 133.791 cycles
LLC TOTAL       ACCESS:    3684169  HIT:    1241357  MISS:    2442812  iACCESS:    1149441  iHIT:     401921  iMISS:     747520  dACCESS:    2226703  dHIT:     808541  dMISS:    1418162  itACCESS:      73352  itHIT:       6668  itMISS:      66684  dtACCESS:     234673  dtHIT:      24227  dtMISS:     210446
LLC LOAD         ACCESS:     897665  HIT:     321580  MISS:     576085  iACCESS:     251603  iHIT:      94416  iMISS:     157187  dACCESS:     646062  dHIT:     227164  dMISS:     418898  itACCESS:          0  itHIT:          0  itMISS:          0  dtACCESS:          0  dtHIT:          0  dtMISS:          0
LLC RFO          ACCESS:     131716  HIT:      39739  MISS:      91977  iACCESS:          0  iHIT:          0  iMISS:          0  dACCESS:     131716  dHIT:      39739  dMISS:      91977  itACCESS:          0  itHIT:          0  itMISS:          0  dtACCESS:          0  dtHIT:          0  dtMISS:          0
LLC PREFETCH     ACCESS:    2154307  HIT:     664319  MISS:    1489988  iACCESS:     897838  iHIT:     307505  iMISS:     590333  dACCESS:    1256469  dHIT:     356814  dMISS:     899655  itACCESS:          0  itHIT:          0  itMISS:          0  dtACCESS:          0  dtHIT:          0  dtMISS:          0
LLC WRITE        ACCESS:     192456  HIT:     184824  MISS:       7632  iACCESS:          0  iHIT:          0  iMISS:          0  dACCESS:     192456  dHIT:     184824  dMISS:       7632  itACCESS:          0  itHIT:          0  itMISS:          0  dtACCESS:          0  dtHIT:          0  dtMISS:          0
LLC TRANSLATION  ACCESS:     308025  HIT:      30895  MISS:     277130  iACCESS:          0  iHIT:          0  iMISS:          0  dACCESS:          0  dHIT:          0  dMISS:          0  itACCESS:      73352  itHIT:       6668  itMISS:      66684  dtACCESS:     234673  dtHIT:      24227  dtMISS:     210446
LLC PREFETCH  REQUESTED:          0  ISSUED:          0  CROSSED:          0  USEFUL:          0  USELESS:          0
LLC AVERAGE iMISS LATENCY: 48.737 cycles
LLC AVERAGE dMISS LATENCY: 103.399 cycles
LLC AVERAGE itMISS LATENCY: 4.85092 cycles
LLC AVERAGE dtMISS LATENCY: 16.8008 cycles
LLC PAGE CROSSINGS (TLB HIT):         0 
LLC PAGE CROSSINGS (TLB MISS):         0 
LLC AVERAGE MISS LATENCY: 173.788 cycles

PageTableWalker TOTAL       ACCESS:     178369  
PageTableWalker AVERAGE LATENCY: 6.4243 cycles
PageTableWalker TOTAL LATENCY: 1145895 cycles

DRAM Statistics
Channel 0
 RQ ROW_BUFFER_HIT:     498323
  ROW_BUFFER_MISS:    1921432
 AVG DBUS CONGESTED CYCLE:    3.65494
 WQ ROW_BUFFER_HIT:      54606
  ROW_BUFFER_MISS:      53921  FULL:          0

