last_page:0x200000000000000
VMEM_RES_CAP:0x100000
PAGE_SIZE:4096
LOG2_PAGE_SIZE:12
LOG2_PAGE_TABLE_SIZE:9
page_table_levels:5
WARNING: physical memory size is smaller than virtual memory size
FDiP enabled with aggresivity 16

*** ChampSim Multicore Out-of-Order Simulator ***

Warmup Instructions: 50000000
Simulation Instructions: 100000000
Number of CPUs: 1
Small page size: 4096
Large page size: 2097152

CPU 0 Bimodal branch predictor
Basic BTB sets: 1024 ways: 8 indirect buffer size: 4096 RAS size: 64
Instruction page size distrubution: 0
Loading instruction page size distribution from /home/bsc/bsc018186/scratch/itp_asplos25_AE/dump/smt_srv12_ap_srv259_ap_1024i.pdst
Data page size distrubution: 0
Loading data page size distribution from /home/bsc/bsc018186/scratch/itp_asplos25_AE/dump/smt_srv12_ap_srv259_ap_1024i.pdst
cpu0_L2C IP-based stride prefetcher
cpu0_L1D next line prefetcher
cpu0_L1I next line prefetcher
Off-chip DRAM Size: 4 GiB Channels: 1 Width: 64-bit Data Rate: 3200 MT/s
Heartbeat CPU 0 instructions: 10000000 cycles: 2500562 heartbeat IPC: 3.99911 cumulative IPC: 3.99911 (Simulation time: 0 hr 0 min 39 sec) 
Heartbeat CPU 0 instructions: 20000001 cycles: 5000645 heartbeat IPC: 3.99987 cumulative IPC: 3.99949 (Simulation time: 0 hr 1 min 20 sec) 
Heartbeat CPU 0 instructions: 30000001 cycles: 7501472 heartbeat IPC: 3.99868 cumulative IPC: 3.99922 (Simulation time: 0 hr 2 min 3 sec) 
Heartbeat CPU 0 instructions: 40000001 cycles: 10001900 heartbeat IPC: 3.99932 cumulative IPC: 3.99925 (Simulation time: 0 hr 2 min 45 sec) 
Heartbeat CPU 0 instructions: 50000003 cycles: 12502219 heartbeat IPC: 3.9995 cumulative IPC: 3.9993 (Simulation time: 0 hr 3 min 31 sec) 
Warmup finished CPU 0 instructions: 50000003 cycles: 12502220 cumulative IPC: 3.99929 (Simulation time: 0 hr 3 min 31 sec) 

Warmup complete CPU 0 instructions: 50000003 cycles: 12502220 (Simulation time: 0 hr 3 min 31 sec) 

Heartbeat CPU 0 instructions: 60000000 cycles: 39931628 heartbeat IPC: 0.364573 cumulative IPC: 0.364573 (Simulation time: 0 hr 5 min 6 sec) 
Heartbeat CPU 0 instructions: 70000002 cycles: 68035521 heartbeat IPC: 0.355823 cumulative IPC: 0.360145 (Simulation time: 0 hr 6 min 41 sec) 
Heartbeat CPU 0 instructions: 80000001 cycles: 95558146 heartbeat IPC: 0.363338 cumulative IPC: 0.361203 (Simulation time: 0 hr 8 min 16 sec) 
Heartbeat CPU 0 instructions: 90000001 cycles: 120458625 heartbeat IPC: 0.401599 cumulative IPC: 0.37052 (Simulation time: 0 hr 9 min 45 sec) 
Heartbeat CPU 0 instructions: 100000000 cycles: 148488133 heartbeat IPC: 0.356767 cumulative IPC: 0.367686 (Simulation time: 0 hr 11 min 11 sec) 
Heartbeat CPU 0 instructions: 110000000 cycles: 175654344 heartbeat IPC: 0.368105 cumulative IPC: 0.367755 (Simulation time: 0 hr 12 min 43 sec) 
Heartbeat CPU 0 instructions: 120000001 cycles: 202242355 heartbeat IPC: 0.37611 cumulative IPC: 0.368926 (Simulation time: 0 hr 14 min 14 sec) 
Heartbeat CPU 0 instructions: 130000002 cycles: 229175131 heartbeat IPC: 0.371295 cumulative IPC: 0.369221 (Simulation time: 0 hr 15 min 46 sec) 
Heartbeat CPU 0 instructions: 140000000 cycles: 256268422 heartbeat IPC: 0.369095 cumulative IPC: 0.369207 (Simulation time: 0 hr 17 min 18 sec) 
Heartbeat CPU 0 instructions: 150000002 cycles: 283431021 heartbeat IPC: 0.368154 cumulative IPC: 0.369101 (Simulation time: 0 hr 18 min 50 sec) 
Simulation finished CPU 0 instructions: 100000004 cycles: 270928803 cumulative IPC: 0.369101 (Simulation time: 0 hr 18 min 50 sec) 

Simulation complete CPU 0 instructions: 100000004 cycles: 270928803 (Simulation time: 0 hr 18 min 50 sec) 


ChampSim completed all CPUs

Saving instructions large page distribution to /home/bsc/bsc018186/scratch/itp_asplos25_AE/dump/smt_srv12_ap_srv259_ap_1024i.pdst...
Saving data large page distribution to /home/bsc/bsc018186/scratch/itp_asplos25_AE/dump/smt_srv12_ap_srv259_ap_1024i.pdst...
=== Simulation ===
CPU 0 runs /gpfs/projects/bsc18/MN4/bsc18/romol/ChampSim/traces/qualcomm_srv/smt_srv12_ap_srv259_ap_1024i.champsimtrace.xz

Region of Interest Statistics

CPU 0 cumulative IPC: 0.369101 instructions: 100000004 cycles: 270928803
CPU 0 Branch Prediction Accuracy: 75.8292% MPKI: 43.7685 Average ROB Occupancy at Mispredict: 10.7577
Branch type MPKI
BRANCH_DIRECT_JUMP: 1.39258
BRANCH_INDIRECT: 22.9539
BRANCH_CONDITIONAL: 12.2272
BRANCH_DIRECT_CALL: 2.61101
BRANCH_INDIRECT_CALL: 1.11504
BRANCH_RETURN: 3.46884

Instructions large pages: 0
Instructions small pages: 11133
Large page distribution for instructions: 0%

Data large pages: 0
Data small pages: 9495
Large page distribution for data: 0%

cpu0_L1I TOTAL       ACCESS:   39242071  HIT:   30055994  MISS:    9186077  iACCESS:   39242071  iHIT:   30055994  iMISS:    9186077  dACCESS:          0  dHIT:          0  dMISS:          0  itACCESS:          0  itHIT:          0  itMISS:          0  dtACCESS:          0  dtHIT:          0  dtMISS:          0
cpu0_L1I LOAD         ACCESS:   11699196  HIT:    9190527  MISS:    2508669  iACCESS:   11699196  iHIT:    9190527  iMISS:    2508669  dACCESS:          0  dHIT:          0  dMISS:          0  itACCESS:          0  itHIT:          0  itMISS:          0  dtACCESS:          0  dtHIT:          0  dtMISS:          0
cpu0_L1I RFO          ACCESS:          0  HIT:          0  MISS:          0  iACCESS:          0  iHIT:          0  iMISS:          0  dACCESS:          0  dHIT:          0  dMISS:          0  itACCESS:          0  itHIT:          0  itMISS:          0  dtACCESS:          0  dtHIT:          0  dtMISS:          0
cpu0_L1I PREFETCH     ACCESS:   27542875  HIT:   20865467  MISS:    6677408  iACCESS:   27542875  iHIT:   20865467  iMISS:    6677408  dACCESS:          0  dHIT:          0  dMISS:          0  itACCESS:          0  itHIT:          0  itMISS:          0  dtACCESS:          0  dtHIT:          0  dtMISS:          0
cpu0_L1I WRITE        ACCESS:          0  HIT:          0  MISS:          0  iACCESS:          0  iHIT:          0  iMISS:          0  dACCESS:          0  dHIT:          0  dMISS:          0  itACCESS:          0  itHIT:          0  itMISS:          0  dtACCESS:          0  dtHIT:          0  dtMISS:          0
cpu0_L1I TRANSLATION  ACCESS:          0  HIT:          0  MISS:          0  iACCESS:          0  iHIT:          0  iMISS:          0  dACCESS:          0  dHIT:          0  dMISS:          0  itACCESS:          0  itHIT:          0  itMISS:          0  dtACCESS:          0  dtHIT:          0  dtMISS:          0
cpu0_L1I PREFETCH  REQUESTED:   30174271  ISSUED:   30172981  CROSSED:          0  USEFUL:    2206252  USELESS:     764791
cpu0_L1I AVERAGE iMISS LATENCY: 22.6947 cycles
cpu0_L1I AVERAGE dMISS LATENCY: 0 cycles
cpu0_L1I AVERAGE itMISS LATENCY: 0 cycles
cpu0_L1I AVERAGE dtMISS LATENCY: 0 cycles
cpu0_L1I PAGE CROSSINGS (TLB HIT):         0 
cpu0_L1I PAGE CROSSINGS (TLB MISS):         0 
cpu0_L1I AVERAGE MISS LATENCY: 22.6947 cycles
cpu0_ITLB TOTAL       ACCESS:   33001533  HIT:   30757149  MISS:    2244384  iACCESS:   33001533  iHIT:   30757149  iMISS:    2244384  dACCESS:          0  dHIT:          0  dMISS:          0  itACCESS:          0  itHIT:          0  itMISS:          0  dtACCESS:          0  dtHIT:          0  dtMISS:          0
cpu0_ITLB LOAD         ACCESS:   33001533  HIT:   30757149  MISS:    2244384  iACCESS:   33001533  iHIT:   30757149  iMISS:    2244384  dACCESS:          0  dHIT:          0  dMISS:          0  itACCESS:          0  itHIT:          0  itMISS:          0  dtACCESS:          0  dtHIT:          0  dtMISS:          0
cpu0_ITLB RFO          ACCESS:          0  HIT:          0  MISS:          0  iACCESS:          0  iHIT:          0  iMISS:          0  dACCESS:          0  dHIT:          0  dMISS:          0  itACCESS:          0  itHIT:          0  itMISS:          0  dtACCESS:          0  dtHIT:          0  dtMISS:          0
cpu0_ITLB PREFETCH     ACCESS:          0  HIT:          0  MISS:          0  iACCESS:          0  iHIT:          0  iMISS:          0  dACCESS:          0  dHIT:          0  dMISS:          0  itACCESS:          0  itHIT:          0  itMISS:          0  dtACCESS:          0  dtHIT:          0  dtMISS:          0
cpu0_ITLB WRITE        ACCESS:          0  HIT:          0  MISS:          0  iACCESS:          0  iHIT:          0  iMISS:          0  dACCESS:          0  dHIT:          0  dMISS:          0  itACCESS:          0  itHIT:          0  itMISS:          0  dtACCESS:          0  dtHIT:          0  dtMISS:          0
cpu0_ITLB TRANSLATION  ACCESS:          0  HIT:          0  MISS:          0  iACCESS:          0  iHIT:          0  iMISS:          0  dACCESS:          0  dHIT:          0  dMISS:          0  itACCESS:          0  itHIT:          0  itMISS:          0  dtACCESS:          0  dtHIT:          0  dtMISS:          0
cpu0_ITLB PREFETCH  REQUESTED:          0  ISSUED:          0  CROSSED:          0  USEFUL:     389194  USELESS:      81871
cpu0_ITLB AVERAGE iMISS LATENCY: 7.72073 cycles
cpu0_ITLB AVERAGE dMISS LATENCY: 0 cycles
cpu0_ITLB AVERAGE itMISS LATENCY: 0 cycles
cpu0_ITLB AVERAGE dtMISS LATENCY: 0 cycles
cpu0_ITLB PAGE CROSSINGS (TLB HIT):         0 
cpu0_ITLB PAGE CROSSINGS (TLB MISS):         0 
cpu0_ITLB AVERAGE MISS LATENCY: 7.72073 cycles
cpu0_DTLB TOTAL       ACCESS:   28940765  HIT:   25403330  MISS:    3537435  iACCESS:          0  iHIT:          0  iMISS:          0  dACCESS:   28940765  dHIT:   25403330  dMISS:    3537435  itACCESS:          0  itHIT:          0  itMISS:          0  dtACCESS:          0  dtHIT:          0  dtMISS:          0
cpu0_DTLB LOAD         ACCESS:   28940765  HIT:   25403330  MISS:    3537435  iACCESS:          0  iHIT:          0  iMISS:          0  dACCESS:   28940765  dHIT:   25403330  dMISS:    3537435  itACCESS:          0  itHIT:          0  itMISS:          0  dtACCESS:          0  dtHIT:          0  dtMISS:          0
cpu0_DTLB RFO          ACCESS:          0  HIT:          0  MISS:          0  iACCESS:          0  iHIT:          0  iMISS:          0  dACCESS:          0  dHIT:          0  dMISS:          0  itACCESS:          0  itHIT:          0  itMISS:          0  dtACCESS:          0  dtHIT:          0  dtMISS:          0
cpu0_DTLB PREFETCH     ACCESS:          0  HIT:          0  MISS:          0  iACCESS:          0  iHIT:          0  iMISS:          0  dACCESS:          0  dHIT:          0  dMISS:          0  itACCESS:          0  itHIT:          0  itMISS:          0  dtACCESS:          0  dtHIT:          0  dtMISS:          0
cpu0_DTLB WRITE        ACCESS:          0  HIT:          0  MISS:          0  iACCESS:          0  iHIT:          0  iMISS:          0  dACCESS:          0  dHIT:          0  dMISS:          0  itACCESS:          0  itHIT:          0  itMISS:          0  dtACCESS:          0  dtHIT:          0  dtMISS:          0
cpu0_DTLB TRANSLATION  ACCESS:          0  HIT:          0  MISS:          0  iACCESS:          0  iHIT:          0  iMISS:          0  dACCESS:          0  dHIT:          0  dMISS:          0  itACCESS:          0  itHIT:          0  itMISS:          0  dtACCESS:          0  dtHIT:          0  dtMISS:          0
cpu0_DTLB PREFETCH  REQUESTED:          0  ISSUED:          0  CROSSED:          0  USEFUL:          0  USELESS:          0
cpu0_DTLB AVERAGE iMISS LATENCY: 0 cycles
cpu0_DTLB AVERAGE dMISS LATENCY: 17.6578 cycles
cpu0_DTLB AVERAGE itMISS LATENCY: 0 cycles
cpu0_DTLB AVERAGE dtMISS LATENCY: 0 cycles
cpu0_DTLB PAGE CROSSINGS (TLB HIT):         0 
cpu0_DTLB PAGE CROSSINGS (TLB MISS):         0 
cpu0_DTLB AVERAGE MISS LATENCY: 17.6578 cycles
cpu0_STLB TOTAL       ACCESS:    2544875  HIT:    2171133  MISS:     373742  iACCESS:     471074  iHIT:     358481  iMISS:     112593  dACCESS:    2073801  dHIT:    1812652  dMISS:     261149  itACCESS:          0  itHIT:          0  itMISS:          0  dtACCESS:          0  dtHIT:          0  dtMISS:          0
cpu0_STLB LOAD         ACCESS:    2544875  HIT:    2171133  MISS:     373742  iACCESS:     471074  iHIT:     358481  iMISS:     112593  dACCESS:    2073801  dHIT:    1812652  dMISS:     261149  itACCESS:          0  itHIT:          0  itMISS:          0  dtACCESS:          0  dtHIT:          0  dtMISS:          0
cpu0_STLB RFO          ACCESS:          0  HIT:          0  MISS:          0  iACCESS:          0  iHIT:          0  iMISS:          0  dACCESS:          0  dHIT:          0  dMISS:          0  itACCESS:          0  itHIT:          0  itMISS:          0  dtACCESS:          0  dtHIT:          0  dtMISS:          0
cpu0_STLB PREFETCH     ACCESS:          0  HIT:          0  MISS:          0  iACCESS:          0  iHIT:          0  iMISS:          0  dACCESS:          0  dHIT:          0  dMISS:          0  itACCESS:          0  itHIT:          0  itMISS:          0  dtACCESS:          0  dtHIT:          0  dtMISS:          0
cpu0_STLB WRITE        ACCESS:          0  HIT:          0  MISS:          0  iACCESS:          0  iHIT:          0  iMISS:          0  dACCESS:          0  dHIT:          0  dMISS:          0  itACCESS:          0  itHIT:          0  itMISS:          0  dtACCESS:          0  dtHIT:          0  dtMISS:          0
cpu0_STLB TRANSLATION  ACCESS:          0  HIT:          0  MISS:          0  iACCESS:          0  iHIT:          0  iMISS:          0  dACCESS:          0  dHIT:          0  dMISS:          0  itACCESS:          0  itHIT:          0  itMISS:          0  dtACCESS:          0  dtHIT:          0  dtMISS:          0
cpu0_STLB PREFETCH  REQUESTED:          0  ISSUED:          0  CROSSED:          0  USEFUL:          0  USELESS:          0
cpu0_STLB AVERAGE iMISS LATENCY: 36.301 cycles
cpu0_STLB AVERAGE dMISS LATENCY: 122.522 cycles
cpu0_STLB AVERAGE itMISS LATENCY: 0 cycles
cpu0_STLB AVERAGE dtMISS LATENCY: 0 cycles
cpu0_STLB PAGE CROSSINGS (TLB HIT):         0 
cpu0_STLB PAGE CROSSINGS (TLB MISS):         0 
cpu0_STLB AVERAGE MISS LATENCY: 158.823 cycles
cpu0_L1D TOTAL       ACCESS:   45043963  HIT:   39219993  MISS:    5823970  iACCESS:          0  iHIT:          0  iMISS:          0  dACCESS:   44488824  dHIT:   39188396  dMISS:    5300428  itACCESS:     127460  itHIT:      13285  itMISS:     114175  dtACCESS:     427679  dtHIT:      18312  dtMISS:     409367
cpu0_L1D LOAD         ACCESS:   20367448  HIT:   17996315  MISS:    2371133  iACCESS:          0  iHIT:          0  iMISS:          0  dACCESS:   20367448  dHIT:   17996315  dMISS:    2371133  itACCESS:          0  itHIT:          0  itMISS:          0  dtACCESS:          0  dtHIT:          0  dtMISS:          0
cpu0_L1D RFO          ACCESS:          0  HIT:          0  MISS:          0  iACCESS:          0  iHIT:          0  iMISS:          0  dACCESS:          0  dHIT:          0  dMISS:          0  itACCESS:          0  itHIT:          0  itMISS:          0  dtACCESS:          0  dtHIT:          0  dtMISS:          0
cpu0_L1D PREFETCH     ACCESS:   13975975  HIT:   11626646  MISS:    2349329  iACCESS:          0  iHIT:          0  iMISS:          0  dACCESS:   13975975  dHIT:   11626646  dMISS:    2349329  itACCESS:          0  itHIT:          0  itMISS:          0  dtACCESS:          0  dtHIT:          0  dtMISS:          0
cpu0_L1D WRITE        ACCESS:   10145401  HIT:    9565435  MISS:     579966  iACCESS:          0  iHIT:          0  iMISS:          0  dACCESS:   10145401  dHIT:    9565435  dMISS:     579966  itACCESS:          0  itHIT:          0  itMISS:          0  dtACCESS:          0  dtHIT:          0  dtMISS:          0
cpu0_L1D TRANSLATION  ACCESS:     555139  HIT:      31597  MISS:     523542  iACCESS:          0  iHIT:          0  iMISS:          0  dACCESS:          0  dHIT:          0  dMISS:          0  itACCESS:     127460  itHIT:      13285  itMISS:     114175  dtACCESS:     427679  dtHIT:      18312  dtMISS:     409367
cpu0_L1D PREFETCH  REQUESTED:   20367448  ISSUED:   18530243  CROSSED:          0  USEFUL:     358282  USELESS:     925244
cpu0_L1D AVERAGE iMISS LATENCY: 0 cycles
cpu0_L1D AVERAGE dMISS LATENCY: 50.1644 cycles
cpu0_L1D AVERAGE itMISS LATENCY: 2.13139 cycles
cpu0_L1D AVERAGE dtMISS LATENCY: 7.06028 cycles
cpu0_L1D PAGE CROSSINGS (TLB HIT):         0 
cpu0_L1D PAGE CROSSINGS (TLB MISS):         0 
cpu0_L1D AVERAGE MISS LATENCY: 59.3561 cycles
cpu0_L2C TOTAL       ACCESS:    8585072  HIT:    1543117  MISS:    7041955  iACCESS:    3778600  iHIT:     821250  iMISS:    2957350  dACCESS:    4319042  dHIT:     528668  dMISS:    3790374  itACCESS:     113387  itHIT:      42314  itMISS:      71073  dtACCESS:     374043  dtHIT:     150885  dtMISS:     223158
cpu0_L2C LOAD         ACCESS:    2047421  HIT:     209421  MISS:    1838000  iACCESS:     844289  iHIT:     119928  iMISS:     724361  dACCESS:    1203132  dHIT:      89493  dMISS:    1113639  itACCESS:          0  itHIT:          0  itMISS:          0  dtACCESS:          0  dtHIT:          0  dtMISS:          0
cpu0_L2C RFO          ACCESS:     214029  HIT:      25868  MISS:     188161  iACCESS:          0  iHIT:          0  iMISS:          0  dACCESS:     214029  dHIT:      25868  dMISS:     188161  itACCESS:          0  itHIT:          0  itMISS:          0  dtACCESS:          0  dtHIT:          0  dtMISS:          0
cpu0_L2C PREFETCH     ACCESS:    5500473  HIT:    1017783  MISS:    4482690  iACCESS:    2934311  iHIT:     701322  iMISS:    2232989  dACCESS:    2566162  dHIT:     316461  dMISS:    2249701  itACCESS:          0  itHIT:          0  itMISS:          0  dtACCESS:          0  dtHIT:          0  dtMISS:          0
cpu0_L2C WRITE        ACCESS:     335719  HIT:      96846  MISS:     238873  iACCESS:          0  iHIT:          0  iMISS:          0  dACCESS:     335719  dHIT:      96846  dMISS:     238873  itACCESS:          0  itHIT:          0  itMISS:          0  dtACCESS:          0  dtHIT:          0  dtMISS:          0
cpu0_L2C TRANSLATION  ACCESS:     487430  HIT:     193199  MISS:     294231  iACCESS:          0  iHIT:          0  iMISS:          0  dACCESS:          0  dHIT:          0  dMISS:          0  itACCESS:     113387  itHIT:      42314  itMISS:      71073  dtACCESS:     374043  dtHIT:     150885  dtMISS:     223158
cpu0_L2C PREFETCH  REQUESTED:    1540000  ISSUED:    1539997  CROSSED:          0  USEFUL:     420509  USELESS:     480841
cpu0_L2C AVERAGE iMISS LATENCY: 24.8846 cycles
cpu0_L2C AVERAGE dMISS LATENCY: 49.8793 cycles
cpu0_L2C AVERAGE itMISS LATENCY: 1.60728 cycles
cpu0_L2C AVERAGE dtMISS LATENCY: 5.32694 cycles
cpu0_L2C PAGE CROSSINGS (TLB HIT):         0 
cpu0_L2C PAGE CROSSINGS (TLB MISS):         0 
cpu0_L2C AVERAGE MISS LATENCY: 81.6981 cycles
LLC TOTAL       ACCESS:    6870239  HIT:    4267225  MISS:    2603014  iACCESS:    2873116  iHIT:    2104447  iMISS:     768669  dACCESS:    3702892  dHIT:    2096826  dMISS:    1606066  itACCESS:      71073  itHIT:      15286  itMISS:      55787  dtACCESS:     223158  dtHIT:      50666  dtMISS:     172492
LLC LOAD         ACCESS:    1830222  HIT:    1185990  MISS:     644232  iACCESS:     723020  iHIT:     562495  iMISS:     160525  dACCESS:    1107202  dHIT:     623495  dMISS:     483707  itACCESS:          0  itHIT:          0  itMISS:          0  dtACCESS:          0  dtHIT:          0  dtMISS:          0
LLC RFO          ACCESS:     188148  HIT:      94980  MISS:      93168  iACCESS:          0  iHIT:          0  iMISS:          0  dACCESS:     188148  dHIT:      94980  dMISS:      93168  itACCESS:          0  itHIT:          0  itMISS:          0  dtACCESS:          0  dtHIT:          0  dtMISS:          0
LLC PREFETCH     ACCESS:    4289401  HIT:    2658540  MISS:    1630861  iACCESS:    2150096  iHIT:    1541952  iMISS:     608144  dACCESS:    2139305  dHIT:    1116588  dMISS:    1022717  itACCESS:          0  itHIT:          0  itMISS:          0  dtACCESS:          0  dtHIT:          0  dtMISS:          0
LLC WRITE        ACCESS:     268237  HIT:     261763  MISS:       6474  iACCESS:          0  iHIT:          0  iMISS:          0  dACCESS:     268237  dHIT:     261763  dMISS:       6474  itACCESS:          0  itHIT:          0  itMISS:          0  dtACCESS:          0  dtHIT:          0  dtMISS:          0
LLC TRANSLATION  ACCESS:     294231  HIT:      65952  MISS:     228279  iACCESS:          0  iHIT:          0  iMISS:          0  dACCESS:          0  dHIT:          0  dMISS:          0  itACCESS:      71073  itHIT:      15286  itMISS:      55787  dtACCESS:     223158  dtHIT:      50666  dtMISS:     172492
LLC PREFETCH  REQUESTED:          0  ISSUED:          0  CROSSED:          0  USEFUL:          0  USELESS:          0
LLC AVERAGE iMISS LATENCY: 45.9127 cycles
LLC AVERAGE dMISS LATENCY: 110.303 cycles
LLC AVERAGE itMISS LATENCY: 3.80959 cycles
LLC AVERAGE dtMISS LATENCY: 12.722 cycles
LLC PAGE CROSSINGS (TLB HIT):         0 
LLC PAGE CROSSINGS (TLB MISS):         0 
LLC AVERAGE MISS LATENCY: 172.747 cycles

PageTableWalker TOTAL       ACCESS:     182492  
PageTableWalker AVERAGE LATENCY: 5.81575 cycles
PageTableWalker TOTAL LATENCY: 1061327 cycles

DRAM Statistics
Channel 0
 RQ ROW_BUFFER_HIT:     588093
  ROW_BUFFER_MISS:    1988305
 AVG DBUS CONGESTED CYCLE:    3.64964
 WQ ROW_BUFFER_HIT:      66660
  ROW_BUFFER_MISS:      61158  FULL:          0

