last_page:0x200000000000000
VMEM_RES_CAP:0x100000
PAGE_SIZE:4096
LOG2_PAGE_SIZE:12
LOG2_PAGE_TABLE_SIZE:9
page_table_levels:5
WARNING: physical memory size is smaller than virtual memory size
FDiP enabled with aggresivity 16

*** ChampSim Multicore Out-of-Order Simulator ***

Warmup Instructions: 50000000
Simulation Instructions: 100000000
Number of CPUs: 1
Small page size: 4096
Large page size: 2097152

CPU 0 Bimodal branch predictor
Basic BTB sets: 1024 ways: 8 indirect buffer size: 4096 RAS size: 64
Instruction page size distrubution: 0
Loading instruction page size distribution from /home/bsc/bsc018186/scratch/itp_asplos25_AE/dump/smt_srv85_ap_srv526_ap_1024i.pdst
Data page size distrubution: 0
Loading data page size distribution from /home/bsc/bsc018186/scratch/itp_asplos25_AE/dump/smt_srv85_ap_srv526_ap_1024i.pdst
cpu0_L2C IP-based stride prefetcher
cpu0_L1D next line prefetcher
cpu0_L1I next line prefetcher
Off-chip DRAM Size: 4 GiB Channels: 1 Width: 64-bit Data Rate: 3200 MT/s
Heartbeat CPU 0 instructions: 10000003 cycles: 2500536 heartbeat IPC: 3.99915 cumulative IPC: 3.99915 (Simulation time: 0 hr 0 min 43 sec) 
Heartbeat CPU 0 instructions: 20000000 cycles: 5000924 heartbeat IPC: 3.99938 cumulative IPC: 3.99927 (Simulation time: 0 hr 1 min 29 sec) 
Heartbeat CPU 0 instructions: 30000000 cycles: 7583928 heartbeat IPC: 3.87147 cumulative IPC: 3.95574 (Simulation time: 0 hr 2 min 13 sec) 
Heartbeat CPU 0 instructions: 40000001 cycles: 10124975 heartbeat IPC: 3.93539 cumulative IPC: 3.95063 (Simulation time: 0 hr 2 min 58 sec) 
Heartbeat CPU 0 instructions: 50000003 cycles: 12654198 heartbeat IPC: 3.95379 cumulative IPC: 3.95126 (Simulation time: 0 hr 3 min 45 sec) 
Warmup finished CPU 0 instructions: 50000003 cycles: 12654199 cumulative IPC: 3.95126 (Simulation time: 0 hr 3 min 45 sec) 

Warmup complete CPU 0 instructions: 50000003 cycles: 12654199 (Simulation time: 0 hr 3 min 45 sec) 

Heartbeat CPU 0 instructions: 60000003 cycles: 42492876 heartbeat IPC: 0.335136 cumulative IPC: 0.335136 (Simulation time: 0 hr 5 min 20 sec) 
Heartbeat CPU 0 instructions: 70000004 cycles: 73711297 heartbeat IPC: 0.320324 cumulative IPC: 0.327563 (Simulation time: 0 hr 6 min 54 sec) 
Heartbeat CPU 0 instructions: 80000002 cycles: 104217963 heartbeat IPC: 0.327798 cumulative IPC: 0.327641 (Simulation time: 0 hr 8 min 30 sec) 
Heartbeat CPU 0 instructions: 90000002 cycles: 134368587 heartbeat IPC: 0.331669 cumulative IPC: 0.328639 (Simulation time: 0 hr 10 min 2 sec) 
Heartbeat CPU 0 instructions: 100000000 cycles: 165443083 heartbeat IPC: 0.321808 cumulative IPC: 0.327249 (Simulation time: 0 hr 11 min 34 sec) 
Heartbeat CPU 0 instructions: 110000004 cycles: 196818811 heartbeat IPC: 0.318718 cumulative IPC: 0.325796 (Simulation time: 0 hr 13 min 3 sec) 
Heartbeat CPU 0 instructions: 120000000 cycles: 226917429 heartbeat IPC: 0.332242 cumulative IPC: 0.326701 (Simulation time: 0 hr 14 min 31 sec) 
Heartbeat CPU 0 instructions: 130000002 cycles: 257698054 heartbeat IPC: 0.32488 cumulative IPC: 0.326473 (Simulation time: 0 hr 16 min 1 sec) 
Heartbeat CPU 0 instructions: 140000004 cycles: 288229536 heartbeat IPC: 0.327531 cumulative IPC: 0.32659 (Simulation time: 0 hr 17 min 29 sec) 
Heartbeat CPU 0 instructions: 150000000 cycles: 319813213 heartbeat IPC: 0.31662 cumulative IPC: 0.325565 (Simulation time: 0 hr 19 min 0 sec) 
Simulation finished CPU 0 instructions: 100000002 cycles: 307159016 cumulative IPC: 0.325565 (Simulation time: 0 hr 19 min 0 sec) 

Simulation complete CPU 0 instructions: 100000002 cycles: 307159016 (Simulation time: 0 hr 19 min 0 sec) 


ChampSim completed all CPUs

Saving instructions large page distribution to /home/bsc/bsc018186/scratch/itp_asplos25_AE/dump/smt_srv85_ap_srv526_ap_1024i.pdst...
Saving data large page distribution to /home/bsc/bsc018186/scratch/itp_asplos25_AE/dump/smt_srv85_ap_srv526_ap_1024i.pdst...
=== Simulation ===
CPU 0 runs /gpfs/projects/bsc18/MN4/bsc18/romol/ChampSim/traces/qualcomm_srv/smt_srv85_ap_srv526_ap_1024i.champsimtrace.xz

Region of Interest Statistics

CPU 0 cumulative IPC: 0.325565 instructions: 100000002 cycles: 307159016
CPU 0 Branch Prediction Accuracy: 75.3321% MPKI: 44.42 Average ROB Occupancy at Mispredict: 10.9056
Branch type MPKI
BRANCH_DIRECT_JUMP: 1.46417
BRANCH_INDIRECT: 22.9756
BRANCH_CONDITIONAL: 12.7519
BRANCH_DIRECT_CALL: 2.66512
BRANCH_INDIRECT_CALL: 0.98894
BRANCH_RETURN: 3.57432

Instructions large pages: 0
Instructions small pages: 13681
Large page distribution for instructions: 0%

Data large pages: 0
Data small pages: 12256
Large page distribution for data: 0%

cpu0_L1I TOTAL       ACCESS:   39033106  HIT:   30206343  MISS:    8826763  iACCESS:   39033106  iHIT:   30206343  iMISS:    8826763  dACCESS:          0  dHIT:          0  dMISS:          0  itACCESS:          0  itHIT:          0  itMISS:          0  dtACCESS:          0  dtHIT:          0  dtMISS:          0
cpu0_L1I LOAD         ACCESS:   11648322  HIT:    9231402  MISS:    2416920  iACCESS:   11648322  iHIT:    9231402  iMISS:    2416920  dACCESS:          0  dHIT:          0  dMISS:          0  itACCESS:          0  itHIT:          0  itMISS:          0  dtACCESS:          0  dtHIT:          0  dtMISS:          0
cpu0_L1I RFO          ACCESS:          0  HIT:          0  MISS:          0  iACCESS:          0  iHIT:          0  iMISS:          0  dACCESS:          0  dHIT:          0  dMISS:          0  itACCESS:          0  itHIT:          0  itMISS:          0  dtACCESS:          0  dtHIT:          0  dtMISS:          0
cpu0_L1I PREFETCH     ACCESS:   27384784  HIT:   20974941  MISS:    6409843  iACCESS:   27384784  iHIT:   20974941  iMISS:    6409843  dACCESS:          0  dHIT:          0  dMISS:          0  itACCESS:          0  itHIT:          0  itMISS:          0  dtACCESS:          0  dtHIT:          0  dtMISS:          0
cpu0_L1I WRITE        ACCESS:          0  HIT:          0  MISS:          0  iACCESS:          0  iHIT:          0  iMISS:          0  dACCESS:          0  dHIT:          0  dMISS:          0  itACCESS:          0  itHIT:          0  itMISS:          0  dtACCESS:          0  dtHIT:          0  dtMISS:          0
cpu0_L1I TRANSLATION  ACCESS:          0  HIT:          0  MISS:          0  iACCESS:          0  iHIT:          0  iMISS:          0  dACCESS:          0  dHIT:          0  dMISS:          0  itACCESS:          0  itHIT:          0  itMISS:          0  dtACCESS:          0  dtHIT:          0  dtMISS:          0
cpu0_L1I PREFETCH  REQUESTED:   30166286  ISSUED:   30166264  CROSSED:          0  USEFUL:    2218963  USELESS:     779041
cpu0_L1I AVERAGE iMISS LATENCY: 24.7542 cycles
cpu0_L1I AVERAGE dMISS LATENCY: 0 cycles
cpu0_L1I AVERAGE itMISS LATENCY: 0 cycles
cpu0_L1I AVERAGE dtMISS LATENCY: 0 cycles
cpu0_L1I PAGE CROSSINGS (TLB HIT):         0 
cpu0_L1I PAGE CROSSINGS (TLB MISS):         0 
cpu0_L1I AVERAGE MISS LATENCY: 24.7542 cycles
cpu0_ITLB TOTAL       ACCESS:   33081638  HIT:   30786002  MISS:    2295636  iACCESS:   33081638  iHIT:   30786002  iMISS:    2295636  dACCESS:          0  dHIT:          0  dMISS:          0  itACCESS:          0  itHIT:          0  itMISS:          0  dtACCESS:          0  dtHIT:          0  dtMISS:          0
cpu0_ITLB LOAD         ACCESS:   33081638  HIT:   30786002  MISS:    2295636  iACCESS:   33081638  iHIT:   30786002  iMISS:    2295636  dACCESS:          0  dHIT:          0  dMISS:          0  itACCESS:          0  itHIT:          0  itMISS:          0  dtACCESS:          0  dtHIT:          0  dtMISS:          0
cpu0_ITLB RFO          ACCESS:          0  HIT:          0  MISS:          0  iACCESS:          0  iHIT:          0  iMISS:          0  dACCESS:          0  dHIT:          0  dMISS:          0  itACCESS:          0  itHIT:          0  itMISS:          0  dtACCESS:          0  dtHIT:          0  dtMISS:          0
cpu0_ITLB PREFETCH     ACCESS:          0  HIT:          0  MISS:          0  iACCESS:          0  iHIT:          0  iMISS:          0  dACCESS:          0  dHIT:          0  dMISS:          0  itACCESS:          0  itHIT:          0  itMISS:          0  dtACCESS:          0  dtHIT:          0  dtMISS:          0
cpu0_ITLB WRITE        ACCESS:          0  HIT:          0  MISS:          0  iACCESS:          0  iHIT:          0  iMISS:          0  dACCESS:          0  dHIT:          0  dMISS:          0  itACCESS:          0  itHIT:          0  itMISS:          0  dtACCESS:          0  dtHIT:          0  dtMISS:          0
cpu0_ITLB TRANSLATION  ACCESS:          0  HIT:          0  MISS:          0  iACCESS:          0  iHIT:          0  iMISS:          0  dACCESS:          0  dHIT:          0  dMISS:          0  itACCESS:          0  itHIT:          0  itMISS:          0  dtACCESS:          0  dtHIT:          0  dtMISS:          0
cpu0_ITLB PREFETCH  REQUESTED:          0  ISSUED:          0  CROSSED:          0  USEFUL:     398970  USELESS:      85279
cpu0_ITLB AVERAGE iMISS LATENCY: 10.8997 cycles
cpu0_ITLB AVERAGE dMISS LATENCY: 0 cycles
cpu0_ITLB AVERAGE itMISS LATENCY: 0 cycles
cpu0_ITLB AVERAGE dtMISS LATENCY: 0 cycles
cpu0_ITLB PAGE CROSSINGS (TLB HIT):         0 
cpu0_ITLB PAGE CROSSINGS (TLB MISS):         0 
cpu0_ITLB AVERAGE MISS LATENCY: 10.8997 cycles
cpu0_DTLB TOTAL       ACCESS:   28917069  HIT:   25252856  MISS:    3664213  iACCESS:          0  iHIT:          0  iMISS:          0  dACCESS:   28917069  dHIT:   25252856  dMISS:    3664213  itACCESS:          0  itHIT:          0  itMISS:          0  dtACCESS:          0  dtHIT:          0  dtMISS:          0
cpu0_DTLB LOAD         ACCESS:   28917069  HIT:   25252856  MISS:    3664213  iACCESS:          0  iHIT:          0  iMISS:          0  dACCESS:   28917069  dHIT:   25252856  dMISS:    3664213  itACCESS:          0  itHIT:          0  itMISS:          0  dtACCESS:          0  dtHIT:          0  dtMISS:          0
cpu0_DTLB RFO          ACCESS:          0  HIT:          0  MISS:          0  iACCESS:          0  iHIT:          0  iMISS:          0  dACCESS:          0  dHIT:          0  dMISS:          0  itACCESS:          0  itHIT:          0  itMISS:          0  dtACCESS:          0  dtHIT:          0  dtMISS:          0
cpu0_DTLB PREFETCH     ACCESS:          0  HIT:          0  MISS:          0  iACCESS:          0  iHIT:          0  iMISS:          0  dACCESS:          0  dHIT:          0  dMISS:          0  itACCESS:          0  itHIT:          0  itMISS:          0  dtACCESS:          0  dtHIT:          0  dtMISS:          0
cpu0_DTLB WRITE        ACCESS:          0  HIT:          0  MISS:          0  iACCESS:          0  iHIT:          0  iMISS:          0  dACCESS:          0  dHIT:          0  dMISS:          0  itACCESS:          0  itHIT:          0  itMISS:          0  dtACCESS:          0  dtHIT:          0  dtMISS:          0
cpu0_DTLB TRANSLATION  ACCESS:          0  HIT:          0  MISS:          0  iACCESS:          0  iHIT:          0  iMISS:          0  dACCESS:          0  dHIT:          0  dMISS:          0  itACCESS:          0  itHIT:          0  itMISS:          0  dtACCESS:          0  dtHIT:          0  dtMISS:          0
cpu0_DTLB PREFETCH  REQUESTED:          0  ISSUED:          0  CROSSED:          0  USEFUL:          0  USELESS:          0
cpu0_DTLB AVERAGE iMISS LATENCY: 0 cycles
cpu0_DTLB AVERAGE dMISS LATENCY: 25.6157 cycles
cpu0_DTLB AVERAGE itMISS LATENCY: 0 cycles
cpu0_DTLB AVERAGE dtMISS LATENCY: 0 cycles
cpu0_DTLB PAGE CROSSINGS (TLB HIT):         0 
cpu0_DTLB PAGE CROSSINGS (TLB MISS):         0 
cpu0_DTLB AVERAGE MISS LATENCY: 25.6157 cycles
cpu0_STLB TOTAL       ACCESS:    2612564  HIT:    2217540  MISS:     395024  iACCESS:     484253  iHIT:     361539  iMISS:     122714  dACCESS:    2128311  dHIT:    1856001  dMISS:     272310  itACCESS:          0  itHIT:          0  itMISS:          0  dtACCESS:          0  dtHIT:          0  dtMISS:          0
cpu0_STLB LOAD         ACCESS:    2612564  HIT:    2217540  MISS:     395024  iACCESS:     484253  iHIT:     361539  iMISS:     122714  dACCESS:    2128311  dHIT:    1856001  dMISS:     272310  itACCESS:          0  itHIT:          0  itMISS:          0  dtACCESS:          0  dtHIT:          0  dtMISS:          0
cpu0_STLB RFO          ACCESS:          0  HIT:          0  MISS:          0  iACCESS:          0  iHIT:          0  iMISS:          0  dACCESS:          0  dHIT:          0  dMISS:          0  itACCESS:          0  itHIT:          0  itMISS:          0  dtACCESS:          0  dtHIT:          0  dtMISS:          0
cpu0_STLB PREFETCH     ACCESS:          0  HIT:          0  MISS:          0  iACCESS:          0  iHIT:          0  iMISS:          0  dACCESS:          0  dHIT:          0  dMISS:          0  itACCESS:          0  itHIT:          0  itMISS:          0  dtACCESS:          0  dtHIT:          0  dtMISS:          0
cpu0_STLB WRITE        ACCESS:          0  HIT:          0  MISS:          0  iACCESS:          0  iHIT:          0  iMISS:          0  dACCESS:          0  dHIT:          0  dMISS:          0  itACCESS:          0  itHIT:          0  itMISS:          0  dtACCESS:          0  dtHIT:          0  dtMISS:          0
cpu0_STLB TRANSLATION  ACCESS:          0  HIT:          0  MISS:          0  iACCESS:          0  iHIT:          0  iMISS:          0  dACCESS:          0  dHIT:          0  dMISS:          0  itACCESS:          0  itHIT:          0  itMISS:          0  dtACCESS:          0  dtHIT:          0  dtMISS:          0
cpu0_STLB PREFETCH  REQUESTED:          0  ISSUED:          0  CROSSED:          0  USEFUL:          0  USELESS:          0
cpu0_STLB AVERAGE iMISS LATENCY: 53.5219 cycles
cpu0_STLB AVERAGE dMISS LATENCY: 194.225 cycles
cpu0_STLB AVERAGE itMISS LATENCY: 0 cycles
cpu0_STLB AVERAGE dtMISS LATENCY: 0 cycles
cpu0_STLB PAGE CROSSINGS (TLB HIT):         0 
cpu0_STLB PAGE CROSSINGS (TLB MISS):         0 
cpu0_STLB AVERAGE MISS LATENCY: 247.747 cycles
cpu0_L1D TOTAL       ACCESS:   44719358  HIT:   39275646  MISS:    5443712  iACCESS:          0  iHIT:          0  iMISS:          0  dACCESS:   44145600  dHIT:   39239459  dMISS:    4906141  itACCESS:     138057  itHIT:      14581  itMISS:     123476  dtACCESS:     435701  dtHIT:      21606  dtMISS:     414095
cpu0_L1D LOAD         ACCESS:   20095253  HIT:   17909631  MISS:    2185622  iACCESS:          0  iHIT:          0  iMISS:          0  dACCESS:   20095253  dHIT:   17909631  dMISS:    2185622  itACCESS:          0  itHIT:          0  itMISS:          0  dtACCESS:          0  dtHIT:          0  dtMISS:          0
cpu0_L1D RFO          ACCESS:          0  HIT:          0  MISS:          0  iACCESS:          0  iHIT:          0  iMISS:          0  dACCESS:          0  dHIT:          0  dMISS:          0  itACCESS:          0  itHIT:          0  itMISS:          0  dtACCESS:          0  dtHIT:          0  dtMISS:          0
cpu0_L1D PREFETCH     ACCESS:   13824183  HIT:   11691418  MISS:    2132765  iACCESS:          0  iHIT:          0  iMISS:          0  dACCESS:   13824183  dHIT:   11691418  dMISS:    2132765  itACCESS:          0  itHIT:          0  itMISS:          0  dtACCESS:          0  dtHIT:          0  dtMISS:          0
cpu0_L1D WRITE        ACCESS:   10226164  HIT:    9638410  MISS:     587754  iACCESS:          0  iHIT:          0  iMISS:          0  dACCESS:   10226164  dHIT:    9638410  dMISS:     587754  itACCESS:          0  itHIT:          0  itMISS:          0  dtACCESS:          0  dtHIT:          0  dtMISS:          0
cpu0_L1D TRANSLATION  ACCESS:     573758  HIT:      36187  MISS:     537571  iACCESS:          0  iHIT:          0  iMISS:          0  dACCESS:          0  dHIT:          0  dMISS:          0  itACCESS:     138057  itHIT:      14581  itMISS:     123476  dtACCESS:     435701  dtHIT:      21606  dtMISS:     414095
cpu0_L1D PREFETCH  REQUESTED:   20095253  ISSUED:   18470186  CROSSED:          0  USEFUL:     353764  USELESS:     945328
cpu0_L1D AVERAGE iMISS LATENCY: 0 cycles
cpu0_L1D AVERAGE dMISS LATENCY: 52.7041 cycles
cpu0_L1D AVERAGE itMISS LATENCY: 3.67313 cycles
cpu0_L1D AVERAGE dtMISS LATENCY: 13.0536 cycles
cpu0_L1D PAGE CROSSINGS (TLB HIT):         0 
cpu0_L1D PAGE CROSSINGS (TLB MISS):         0 
cpu0_L1D AVERAGE MISS LATENCY: 69.4308 cycles
cpu0_L2C TOTAL       ACCESS:    8669500  HIT:    4145149  MISS:    4524351  iACCESS:    3826246  iHIT:    2276132  iMISS:    1550114  dACCESS:    4331002  dHIT:    1806112  dMISS:    2524890  itACCESS:     122365  itHIT:      21228  itMISS:     101137  dtACCESS:     389887  dtHIT:      41677  dtMISS:     348210
cpu0_L2C LOAD         ACCESS:    2085350  HIT:    1012149  MISS:    1073201  iACCESS:     864357  iHIT:     541360  iMISS:     322997  dACCESS:    1220993  dHIT:     470789  dMISS:     750204  itACCESS:          0  itHIT:          0  itMISS:          0  dtACCESS:          0  dtHIT:          0  dtMISS:          0
cpu0_L2C RFO          ACCESS:     221002  HIT:      81650  MISS:     139352  iACCESS:          0  iHIT:          0  iMISS:          0  dACCESS:     221002  dHIT:      81650  dMISS:     139352  itACCESS:          0  itHIT:          0  itMISS:          0  dtACCESS:          0  dtHIT:          0  dtMISS:          0
cpu0_L2C PREFETCH     ACCESS:    5503549  HIT:    2644782  MISS:    2858767  iACCESS:    2961889  iHIT:    1734772  iMISS:    1227117  dACCESS:    2541660  dHIT:     910010  dMISS:    1631650  itACCESS:          0  itHIT:          0  itMISS:          0  dtACCESS:          0  dtHIT:          0  dtMISS:          0
cpu0_L2C WRITE        ACCESS:     347347  HIT:     343663  MISS:       3684  iACCESS:          0  iHIT:          0  iMISS:          0  dACCESS:     347347  dHIT:     343663  dMISS:       3684  itACCESS:          0  itHIT:          0  itMISS:          0  dtACCESS:          0  dtHIT:          0  dtMISS:          0
cpu0_L2C TRANSLATION  ACCESS:     512252  HIT:      62905  MISS:     449347  iACCESS:          0  iHIT:          0  iMISS:          0  dACCESS:          0  dHIT:          0  dMISS:          0  itACCESS:     122365  itHIT:      21228  itMISS:     101137  dtACCESS:     389887  dtHIT:      41677  dtMISS:     348210
cpu0_L2C PREFETCH  REQUESTED:    1477826  ISSUED:    1477825  CROSSED:          0  USEFUL:     351641  USELESS:     325982
cpu0_L2C AVERAGE iMISS LATENCY: 41.197 cycles
cpu0_L2C AVERAGE dMISS LATENCY: 78.7494 cycles
cpu0_L2C AVERAGE itMISS LATENCY: 4.15296 cycles
cpu0_L2C AVERAGE dtMISS LATENCY: 14.8486 cycles
cpu0_L2C PAGE CROSSINGS (TLB HIT):         0 
cpu0_L2C PAGE CROSSINGS (TLB MISS):         0 
cpu0_L2C AVERAGE MISS LATENCY: 138.948 cycles
LLC TOTAL       ACCESS:    4523976  HIT:    1354654  MISS:    3169322  iACCESS:    1459404  iHIT:     463539  iMISS:     995865  dACCESS:    2615225  dHIT:     847910  dMISS:    1767315  itACCESS:     101137  itHIT:       7382  itMISS:      93755  dtACCESS:     348210  dtHIT:      35823  dtMISS:     312387
LLC LOAD         ACCESS:    1067218  HIT:     338456  MISS:     728762  iACCESS:     321701  iHIT:     109615  iMISS:     212086  dACCESS:     745517  dHIT:     228841  dMISS:     516676  itACCESS:          0  itHIT:          0  itMISS:          0  dtACCESS:          0  dtHIT:          0  dtMISS:          0
LLC RFO          ACCESS:     139345  HIT:      40926  MISS:      98419  iACCESS:          0  iHIT:          0  iMISS:          0  dACCESS:     139345  dHIT:      40926  dMISS:      98419  itACCESS:          0  itHIT:          0  itMISS:          0  dtACCESS:          0  dtHIT:          0  dtMISS:          0
LLC PREFETCH     ACCESS:    2653443  HIT:     728457  MISS:    1924986  iACCESS:    1137703  iHIT:     353924  iMISS:     783779  dACCESS:    1515740  dHIT:     374533  dMISS:    1141207  itACCESS:          0  itHIT:          0  itMISS:          0  dtACCESS:          0  dtHIT:          0  dtMISS:          0
LLC WRITE        ACCESS:     214623  HIT:     203610  MISS:      11013  iACCESS:          0  iHIT:          0  iMISS:          0  dACCESS:     214623  dHIT:     203610  dMISS:      11013  itACCESS:          0  itHIT:          0  itMISS:          0  dtACCESS:          0  dtHIT:          0  dtMISS:          0
LLC TRANSLATION  ACCESS:     449347  HIT:      43205  MISS:     406142  iACCESS:          0  iHIT:          0  iMISS:          0  dACCESS:          0  dHIT:          0  dMISS:          0  itACCESS:     101137  itHIT:       7382  itMISS:      93755  dtACCESS:     348210  dtHIT:      35823  dtMISS:     312387
LLC PREFETCH  REQUESTED:          0  ISSUED:          0  CROSSED:          0  USEFUL:          0  USELESS:          0
LLC AVERAGE iMISS LATENCY: 49.7393 cycles
LLC AVERAGE dMISS LATENCY: 98.1247 cycles
LLC AVERAGE itMISS LATENCY: 5.29557 cycles
LLC AVERAGE dtMISS LATENCY: 19.025 cycles
LLC PAGE CROSSINGS (TLB HIT):         0 
LLC PAGE CROSSINGS (TLB MISS):         0 
LLC AVERAGE MISS LATENCY: 172.185 cycles

PageTableWalker TOTAL       ACCESS:     147024  
PageTableWalker AVERAGE LATENCY: 6.54928 cycles
PageTableWalker TOTAL LATENCY: 962900 cycles

DRAM Statistics
Channel 0
 RQ ROW_BUFFER_HIT:     663106
  ROW_BUFFER_MISS:    2484014
 AVG DBUS CONGESTED CYCLE:    3.64896
 WQ ROW_BUFFER_HIT:      67491
  ROW_BUFFER_MISS:      59655  FULL:          0

