last_page:0x200000000000000
VMEM_RES_CAP:0x100000
PAGE_SIZE:4096
LOG2_PAGE_SIZE:12
LOG2_PAGE_TABLE_SIZE:9
page_table_levels:5
WARNING: physical memory size is smaller than virtual memory size
FDiP enabled with aggresivity 16

*** ChampSim Multicore Out-of-Order Simulator ***

Warmup Instructions: 50000000
Simulation Instructions: 100000000
Number of CPUs: 1
Small page size: 4096
Large page size: 2097152

CPU 0 Bimodal branch predictor
Basic BTB sets: 1024 ways: 8 indirect buffer size: 4096 RAS size: 64
Instruction page size distrubution: 0
Loading instruction page size distribution from /home/bsc/bsc018186/scratch/itp_asplos25_AE/dump/smt_srv85_ap_srv128_ap_1024i.pdst
Data page size distrubution: 0
Loading data page size distribution from /home/bsc/bsc018186/scratch/itp_asplos25_AE/dump/smt_srv85_ap_srv128_ap_1024i.pdst
cpu0_L2C IP-based stride prefetcher
cpu0_L2C is using PTP replacement policy:
	TLB_STRESS_THRESHOLD:0
	PTE_EVICTION_RATIO:0
cpu0_L1D next line prefetcher
cpu0_STLB using iTP with max lru@8
cpu0_STLB using iTP with instr@0 and data@2
Init sat counter with 3 bits (max:50).
cpu0_L1I next line prefetcher
Off-chip DRAM Size: 4 GiB Channels: 1 Width: 64-bit Data Rate: 3200 MT/s
Heartbeat CPU 0 instructions: 10000003 cycles: 2500407 heartbeat IPC: 3.99936 cumulative IPC: 3.99936 (Simulation time: 0 hr 0 min 37 sec) 
Heartbeat CPU 0 instructions: 20000002 cycles: 5078286 heartbeat IPC: 3.87916 cumulative IPC: 3.93834 (Simulation time: 0 hr 1 min 16 sec) 
Heartbeat CPU 0 instructions: 30000003 cycles: 7621790 heartbeat IPC: 3.93159 cumulative IPC: 3.93609 (Simulation time: 0 hr 1 min 57 sec) 
Heartbeat CPU 0 instructions: 40000003 cycles: 10159919 heartbeat IPC: 3.93992 cumulative IPC: 3.93704 (Simulation time: 0 hr 2 min 37 sec) 
Heartbeat CPU 0 instructions: 50000002 cycles: 12660189 heartbeat IPC: 3.99957 cumulative IPC: 3.94939 (Simulation time: 0 hr 3 min 16 sec) 
Warmup finished CPU 0 instructions: 50000002 cycles: 12660190 cumulative IPC: 3.94939 (Simulation time: 0 hr 3 min 16 sec) 

Warmup complete CPU 0 instructions: 50000002 cycles: 12660190 (Simulation time: 0 hr 3 min 16 sec) 

Heartbeat CPU 0 instructions: 60000000 cycles: 42412636 heartbeat IPC: 0.336107 cumulative IPC: 0.336107 (Simulation time: 0 hr 4 min 37 sec) 
Heartbeat CPU 0 instructions: 70000000 cycles: 72192761 heartbeat IPC: 0.335795 cumulative IPC: 0.335951 (Simulation time: 0 hr 5 min 58 sec) 
Heartbeat CPU 0 instructions: 80000002 cycles: 102520480 heartbeat IPC: 0.329732 cumulative IPC: 0.333852 (Simulation time: 0 hr 7 min 20 sec) 
Heartbeat CPU 0 instructions: 90000002 cycles: 132201112 heartbeat IPC: 0.336921 cumulative IPC: 0.334614 (Simulation time: 0 hr 8 min 41 sec) 
Heartbeat CPU 0 instructions: 100000000 cycles: 163033303 heartbeat IPC: 0.324337 cumulative IPC: 0.332507 (Simulation time: 0 hr 10 min 3 sec) 
Heartbeat CPU 0 instructions: 110000000 cycles: 193085352 heartbeat IPC: 0.332757 cumulative IPC: 0.332548 (Simulation time: 0 hr 11 min 25 sec) 
Heartbeat CPU 0 instructions: 120000000 cycles: 223906459 heartbeat IPC: 0.324453 cumulative IPC: 0.331367 (Simulation time: 0 hr 12 min 48 sec) 
Heartbeat CPU 0 instructions: 130000000 cycles: 254042095 heartbeat IPC: 0.331834 cumulative IPC: 0.331426 (Simulation time: 0 hr 14 min 9 sec) 
Heartbeat CPU 0 instructions: 140000004 cycles: 284422703 heartbeat IPC: 0.329158 cumulative IPC: 0.331172 (Simulation time: 0 hr 15 min 31 sec) 
Heartbeat CPU 0 instructions: 150000000 cycles: 315661198 heartbeat IPC: 0.320118 cumulative IPC: 0.330032 (Simulation time: 0 hr 16 min 54 sec) 
Simulation finished CPU 0 instructions: 100000003 cycles: 303001010 cumulative IPC: 0.330032 (Simulation time: 0 hr 16 min 54 sec) 

Simulation complete CPU 0 instructions: 100000003 cycles: 303001010 (Simulation time: 0 hr 16 min 54 sec) 


ChampSim completed all CPUs

Saving instructions large page distribution to /home/bsc/bsc018186/scratch/itp_asplos25_AE/dump/smt_srv85_ap_srv128_ap_1024i.pdst...
Saving data large page distribution to /home/bsc/bsc018186/scratch/itp_asplos25_AE/dump/smt_srv85_ap_srv128_ap_1024i.pdst...
=== Simulation ===
CPU 0 runs /gpfs/projects/bsc18/MN4/bsc18/romol/ChampSim/traces/qualcomm_srv/smt_srv85_ap_srv128_ap_1024i.champsimtrace.xz

Region of Interest Statistics

CPU 0 cumulative IPC: 0.330032 instructions: 100000003 cycles: 303001010
CPU 0 Branch Prediction Accuracy: 75.0492% MPKI: 44.9943 Average ROB Occupancy at Mispredict: 10.7791
Branch type MPKI
BRANCH_DIRECT_JUMP: 1.39321
BRANCH_INDIRECT: 23.3239
BRANCH_CONDITIONAL: 13.0686
BRANCH_DIRECT_CALL: 2.66733
BRANCH_INDIRECT_CALL: 1.0116
BRANCH_RETURN: 3.52962

Instructions large pages: 0
Instructions small pages: 10022
Large page distribution for instructions: 0%

Data large pages: 0
Data small pages: 8595
Large page distribution for data: 0%

cpu0_L1I TOTAL       ACCESS:   39254576  HIT:   30455645  MISS:    8798931  iACCESS:   39254576  iHIT:   30455645  iMISS:    8798931  dACCESS:          0  dHIT:          0  dMISS:          0  itACCESS:          0  itHIT:          0  itMISS:          0  dtACCESS:          0  dtHIT:          0  dtMISS:          0
cpu0_L1I LOAD         ACCESS:   11729380  HIT:    9335986  MISS:    2393394  iACCESS:   11729380  iHIT:    9335986  iMISS:    2393394  dACCESS:          0  dHIT:          0  dMISS:          0  itACCESS:          0  itHIT:          0  itMISS:          0  dtACCESS:          0  dtHIT:          0  dtMISS:          0
cpu0_L1I RFO          ACCESS:          0  HIT:          0  MISS:          0  iACCESS:          0  iHIT:          0  iMISS:          0  dACCESS:          0  dHIT:          0  dMISS:          0  itACCESS:          0  itHIT:          0  itMISS:          0  dtACCESS:          0  dtHIT:          0  dtMISS:          0
cpu0_L1I PREFETCH     ACCESS:   27525196  HIT:   21119659  MISS:    6405537  iACCESS:   27525196  iHIT:   21119659  iMISS:    6405537  dACCESS:          0  dHIT:          0  dMISS:          0  itACCESS:          0  itHIT:          0  itMISS:          0  dtACCESS:          0  dtHIT:          0  dtMISS:          0
cpu0_L1I WRITE        ACCESS:          0  HIT:          0  MISS:          0  iACCESS:          0  iHIT:          0  iMISS:          0  dACCESS:          0  dHIT:          0  dMISS:          0  itACCESS:          0  itHIT:          0  itMISS:          0  dtACCESS:          0  dtHIT:          0  dtMISS:          0
cpu0_L1I TRANSLATION  ACCESS:          0  HIT:          0  MISS:          0  iACCESS:          0  iHIT:          0  iMISS:          0  dACCESS:          0  dHIT:          0  dMISS:          0  itACCESS:          0  itHIT:          0  itMISS:          0  dtACCESS:          0  dtHIT:          0  dtMISS:          0
cpu0_L1I PREFETCH  REQUESTED:   30309367  ISSUED:   30309333  CROSSED:          0  USEFUL:    2224620  USELESS:     773896
cpu0_L1I AVERAGE iMISS LATENCY: 24.6104 cycles
cpu0_L1I AVERAGE dMISS LATENCY: 0 cycles
cpu0_L1I AVERAGE itMISS LATENCY: 0 cycles
cpu0_L1I AVERAGE dtMISS LATENCY: 0 cycles
cpu0_L1I PAGE CROSSINGS (TLB HIT):         0 
cpu0_L1I PAGE CROSSINGS (TLB MISS):         0 
cpu0_L1I AVERAGE MISS LATENCY: 24.6104 cycles
cpu0_ITLB TOTAL       ACCESS:   33254728  HIT:   30998694  MISS:    2256034  iACCESS:   33254728  iHIT:   30998694  iMISS:    2256034  dACCESS:          0  dHIT:          0  dMISS:          0  itACCESS:          0  itHIT:          0  itMISS:          0  dtACCESS:          0  dtHIT:          0  dtMISS:          0
cpu0_ITLB LOAD         ACCESS:   33254728  HIT:   30998694  MISS:    2256034  iACCESS:   33254728  iHIT:   30998694  iMISS:    2256034  dACCESS:          0  dHIT:          0  dMISS:          0  itACCESS:          0  itHIT:          0  itMISS:          0  dtACCESS:          0  dtHIT:          0  dtMISS:          0
cpu0_ITLB RFO          ACCESS:          0  HIT:          0  MISS:          0  iACCESS:          0  iHIT:          0  iMISS:          0  dACCESS:          0  dHIT:          0  dMISS:          0  itACCESS:          0  itHIT:          0  itMISS:          0  dtACCESS:          0  dtHIT:          0  dtMISS:          0
cpu0_ITLB PREFETCH     ACCESS:          0  HIT:          0  MISS:          0  iACCESS:          0  iHIT:          0  iMISS:          0  dACCESS:          0  dHIT:          0  dMISS:          0  itACCESS:          0  itHIT:          0  itMISS:          0  dtACCESS:          0  dtHIT:          0  dtMISS:          0
cpu0_ITLB WRITE        ACCESS:          0  HIT:          0  MISS:          0  iACCESS:          0  iHIT:          0  iMISS:          0  dACCESS:          0  dHIT:          0  dMISS:          0  itACCESS:          0  itHIT:          0  itMISS:          0  dtACCESS:          0  dtHIT:          0  dtMISS:          0
cpu0_ITLB TRANSLATION  ACCESS:          0  HIT:          0  MISS:          0  iACCESS:          0  iHIT:          0  iMISS:          0  dACCESS:          0  dHIT:          0  dMISS:          0  itACCESS:          0  itHIT:          0  itMISS:          0  dtACCESS:          0  dtHIT:          0  dtMISS:          0
cpu0_ITLB PREFETCH  REQUESTED:          0  ISSUED:          0  CROSSED:          0  USEFUL:     393545  USELESS:      81036
cpu0_ITLB AVERAGE iMISS LATENCY: 6.8111 cycles
cpu0_ITLB AVERAGE dMISS LATENCY: 0 cycles
cpu0_ITLB AVERAGE itMISS LATENCY: 0 cycles
cpu0_ITLB AVERAGE dtMISS LATENCY: 0 cycles
cpu0_ITLB PAGE CROSSINGS (TLB HIT):         0 
cpu0_ITLB PAGE CROSSINGS (TLB MISS):         0 
cpu0_ITLB AVERAGE MISS LATENCY: 6.8111 cycles
cpu0_DTLB TOTAL       ACCESS:   28875869  HIT:   25260527  MISS:    3615342  iACCESS:          0  iHIT:          0  iMISS:          0  dACCESS:   28875869  dHIT:   25260527  dMISS:    3615342  itACCESS:          0  itHIT:          0  itMISS:          0  dtACCESS:          0  dtHIT:          0  dtMISS:          0
cpu0_DTLB LOAD         ACCESS:   28875869  HIT:   25260527  MISS:    3615342  iACCESS:          0  iHIT:          0  iMISS:          0  dACCESS:   28875869  dHIT:   25260527  dMISS:    3615342  itACCESS:          0  itHIT:          0  itMISS:          0  dtACCESS:          0  dtHIT:          0  dtMISS:          0
cpu0_DTLB RFO          ACCESS:          0  HIT:          0  MISS:          0  iACCESS:          0  iHIT:          0  iMISS:          0  dACCESS:          0  dHIT:          0  dMISS:          0  itACCESS:          0  itHIT:          0  itMISS:          0  dtACCESS:          0  dtHIT:          0  dtMISS:          0
cpu0_DTLB PREFETCH     ACCESS:          0  HIT:          0  MISS:          0  iACCESS:          0  iHIT:          0  iMISS:          0  dACCESS:          0  dHIT:          0  dMISS:          0  itACCESS:          0  itHIT:          0  itMISS:          0  dtACCESS:          0  dtHIT:          0  dtMISS:          0
cpu0_DTLB WRITE        ACCESS:          0  HIT:          0  MISS:          0  iACCESS:          0  iHIT:          0  iMISS:          0  dACCESS:          0  dHIT:          0  dMISS:          0  itACCESS:          0  itHIT:          0  itMISS:          0  dtACCESS:          0  dtHIT:          0  dtMISS:          0
cpu0_DTLB TRANSLATION  ACCESS:          0  HIT:          0  MISS:          0  iACCESS:          0  iHIT:          0  iMISS:          0  dACCESS:          0  dHIT:          0  dMISS:          0  itACCESS:          0  itHIT:          0  itMISS:          0  dtACCESS:          0  dtHIT:          0  dtMISS:          0
cpu0_DTLB PREFETCH  REQUESTED:          0  ISSUED:          0  CROSSED:          0  USEFUL:          0  USELESS:          0
cpu0_DTLB AVERAGE iMISS LATENCY: 0 cycles
cpu0_DTLB AVERAGE dMISS LATENCY: 27.5398 cycles
cpu0_DTLB AVERAGE itMISS LATENCY: 0 cycles
cpu0_DTLB AVERAGE dtMISS LATENCY: 0 cycles
cpu0_DTLB PAGE CROSSINGS (TLB HIT):         0 
cpu0_DTLB PAGE CROSSINGS (TLB MISS):         0 
cpu0_DTLB AVERAGE MISS LATENCY: 27.5398 cycles
cpu0_STLB TOTAL       ACCESS:    2591745  HIT:    2211048  MISS:     380697  iACCESS:     474588  iHIT:     413491  iMISS:      61097  dACCESS:    2117157  dHIT:    1797557  dMISS:     319600  itACCESS:          0  itHIT:          0  itMISS:          0  dtACCESS:          0  dtHIT:          0  dtMISS:          0
cpu0_STLB LOAD         ACCESS:    2591745  HIT:    2211048  MISS:     380697  iACCESS:     474588  iHIT:     413491  iMISS:      61097  dACCESS:    2117157  dHIT:    1797557  dMISS:     319600  itACCESS:          0  itHIT:          0  itMISS:          0  dtACCESS:          0  dtHIT:          0  dtMISS:          0
cpu0_STLB RFO          ACCESS:          0  HIT:          0  MISS:          0  iACCESS:          0  iHIT:          0  iMISS:          0  dACCESS:          0  dHIT:          0  dMISS:          0  itACCESS:          0  itHIT:          0  itMISS:          0  dtACCESS:          0  dtHIT:          0  dtMISS:          0
cpu0_STLB PREFETCH     ACCESS:          0  HIT:          0  MISS:          0  iACCESS:          0  iHIT:          0  iMISS:          0  dACCESS:          0  dHIT:          0  dMISS:          0  itACCESS:          0  itHIT:          0  itMISS:          0  dtACCESS:          0  dtHIT:          0  dtMISS:          0
cpu0_STLB WRITE        ACCESS:          0  HIT:          0  MISS:          0  iACCESS:          0  iHIT:          0  iMISS:          0  dACCESS:          0  dHIT:          0  dMISS:          0  itACCESS:          0  itHIT:          0  itMISS:          0  dtACCESS:          0  dtHIT:          0  dtMISS:          0
cpu0_STLB TRANSLATION  ACCESS:          0  HIT:          0  MISS:          0  iACCESS:          0  iHIT:          0  iMISS:          0  dACCESS:          0  dHIT:          0  dMISS:          0  itACCESS:          0  itHIT:          0  itMISS:          0  dtACCESS:          0  dtHIT:          0  dtMISS:          0
cpu0_STLB PREFETCH  REQUESTED:          0  ISSUED:          0  CROSSED:          0  USEFUL:          0  USELESS:          0
cpu0_STLB AVERAGE iMISS LATENCY: 30.5501 cycles
cpu0_STLB AVERAGE dMISS LATENCY: 216.631 cycles
cpu0_STLB AVERAGE itMISS LATENCY: 0 cycles
cpu0_STLB AVERAGE dtMISS LATENCY: 0 cycles
cpu0_STLB PAGE CROSSINGS (TLB HIT):         0 
cpu0_STLB PAGE CROSSINGS (TLB MISS):         0 
cpu0_STLB AVERAGE MISS LATENCY: 247.182 cycles
cpu0_L1D TOTAL       ACCESS:   45082743  HIT:   39223491  MISS:    5859252  iACCESS:          0  iHIT:          0  iMISS:          0  dACCESS:   44496153  dHIT:   39194949  dMISS:    5301204  itACCESS:      71675  itHIT:       5271  itMISS:      66404  dtACCESS:     514915  dtHIT:      23271  dtMISS:     491644
cpu0_L1D LOAD         ACCESS:   20278051  HIT:   17910603  MISS:    2367448  iACCESS:          0  iHIT:          0  iMISS:          0  dACCESS:   20278051  dHIT:   17910603  dMISS:    2367448  itACCESS:          0  itHIT:          0  itMISS:          0  dtACCESS:          0  dtHIT:          0  dtMISS:          0
cpu0_L1D RFO          ACCESS:          0  HIT:          0  MISS:          0  iACCESS:          0  iHIT:          0  iMISS:          0  dACCESS:          0  dHIT:          0  dMISS:          0  itACCESS:          0  itHIT:          0  itMISS:          0  dtACCESS:          0  dtHIT:          0  dtMISS:          0
cpu0_L1D PREFETCH     ACCESS:   14046716  HIT:   11705994  MISS:    2340722  iACCESS:          0  iHIT:          0  iMISS:          0  dACCESS:   14046716  dHIT:   11705994  dMISS:    2340722  itACCESS:          0  itHIT:          0  itMISS:          0  dtACCESS:          0  dtHIT:          0  dtMISS:          0
cpu0_L1D WRITE        ACCESS:   10171386  HIT:    9578352  MISS:     593034  iACCESS:          0  iHIT:          0  iMISS:          0  dACCESS:   10171386  dHIT:    9578352  dMISS:     593034  itACCESS:          0  itHIT:          0  itMISS:          0  dtACCESS:          0  dtHIT:          0  dtMISS:          0
cpu0_L1D TRANSLATION  ACCESS:     586590  HIT:      28542  MISS:     558048  iACCESS:          0  iHIT:          0  iMISS:          0  dACCESS:          0  dHIT:          0  dMISS:          0  itACCESS:      71675  itHIT:       5271  itMISS:      66404  dtACCESS:     514915  dtHIT:      23271  dtMISS:     491644
cpu0_L1D PREFETCH  REQUESTED:   20278051  ISSUED:   18506591  CROSSED:          0  USEFUL:     359610  USELESS:     941612
cpu0_L1D AVERAGE iMISS LATENCY: 0 cycles
cpu0_L1D AVERAGE dMISS LATENCY: 49.4854 cycles
cpu0_L1D AVERAGE itMISS LATENCY: 1.87849 cycles
cpu0_L1D AVERAGE dtMISS LATENCY: 13.19 cycles
cpu0_L1D PAGE CROSSINGS (TLB HIT):         0 
cpu0_L1D PAGE CROSSINGS (TLB MISS):         0 
cpu0_L1D AVERAGE MISS LATENCY: 64.5538 cycles
cpu0_L2C TOTAL       ACCESS:    8718308  HIT:    3925200  MISS:    4793108  iACCESS:    3812951  iHIT:    2156111  iMISS:    1656840  dACCESS:    4383023  dHIT:    1688290  dMISS:    2694733  itACCESS:      65699  itHIT:       9599  itMISS:      56100  dtACCESS:     456635  dtHIT:      71200  dtMISS:     385435
cpu0_L2C LOAD         ACCESS:    2074330  HIT:     922643  MISS:    1151687  iACCESS:     851819  iHIT:     494209  iMISS:     357610  dACCESS:    1222511  dHIT:     428434  dMISS:     794077  itACCESS:          0  itHIT:          0  itMISS:          0  dtACCESS:          0  dtHIT:          0  dtMISS:          0
cpu0_L2C RFO          ACCESS:     217693  HIT:      74114  MISS:     143579  iACCESS:          0  iHIT:          0  iMISS:          0  dACCESS:     217693  dHIT:      74114  dMISS:     143579  itACCESS:          0  itHIT:          0  itMISS:          0  dtACCESS:          0  dtHIT:          0  dtMISS:          0
cpu0_L2C PREFETCH     ACCESS:    5557884  HIT:    2538215  MISS:    3019669  iACCESS:    2961132  iHIT:    1661902  iMISS:    1299230  dACCESS:    2596752  dHIT:     876313  dMISS:    1720439  itACCESS:          0  itHIT:          0  itMISS:          0  dtACCESS:          0  dtHIT:          0  dtMISS:          0
cpu0_L2C WRITE        ACCESS:     346067  HIT:     309429  MISS:      36638  iACCESS:          0  iHIT:          0  iMISS:          0  dACCESS:     346067  dHIT:     309429  dMISS:      36638  itACCESS:          0  itHIT:          0  itMISS:          0  dtACCESS:          0  dtHIT:          0  dtMISS:          0
cpu0_L2C TRANSLATION  ACCESS:     522334  HIT:      80799  MISS:     441535  iACCESS:          0  iHIT:          0  iMISS:          0  dACCESS:          0  dHIT:          0  dMISS:          0  itACCESS:      65699  itHIT:       9599  itMISS:      56100  dtACCESS:     456635  dtHIT:      71200  dtMISS:     385435
cpu0_L2C PREFETCH  REQUESTED:    1538919  ISSUED:    1538916  CROSSED:          0  USEFUL:     359940  USELESS:     344428
cpu0_L2C AVERAGE iMISS LATENCY: 38.6011 cycles
cpu0_L2C AVERAGE dMISS LATENCY: 75.2459 cycles
cpu0_L2C AVERAGE itMISS LATENCY: 2.16082 cycles
cpu0_L2C AVERAGE dtMISS LATENCY: 15.1805 cycles
cpu0_L2C PAGE CROSSINGS (TLB HIT):         0 
cpu0_L2C PAGE CROSSINGS (TLB MISS):         0 
cpu0_L2C AVERAGE MISS LATENCY: 131.189 cycles
LLC TOTAL       ACCESS:    4759907  HIT:    1640240  MISS:    3119667  iACCESS:    1566313  iHIT:     599626  iMISS:     966687  dACCESS:    2752059  dHIT:     987088  dMISS:    1764971  itACCESS:      56100  itHIT:       4439  itMISS:      51661  dtACCESS:     385435  dtHIT:      49087  dtMISS:     336348
LLC LOAD         ACCESS:    1143942  HIT:     424598  MISS:     719344  iACCESS:     356398  iHIT:     151418  iMISS:     204980  dACCESS:     787544  dHIT:     273180  dMISS:     514364  itACCESS:          0  itHIT:          0  itMISS:          0  dtACCESS:          0  dtHIT:          0  dtMISS:          0
LLC RFO          ACCESS:     143577  HIT:      49143  MISS:      94434  iACCESS:          0  iHIT:          0  iMISS:          0  dACCESS:     143577  dHIT:      49143  dMISS:      94434  itACCESS:          0  itHIT:          0  itMISS:          0  dtACCESS:          0  dtHIT:          0  dtMISS:          0
LLC PREFETCH     ACCESS:    2805234  HIT:     896224  MISS:    1909010  iACCESS:    1209915  iHIT:     448208  iMISS:     761707  dACCESS:    1595319  dHIT:     448016  dMISS:    1147303  itACCESS:          0  itHIT:          0  itMISS:          0  dtACCESS:          0  dtHIT:          0  dtMISS:          0
LLC WRITE        ACCESS:     225619  HIT:     216749  MISS:       8870  iACCESS:          0  iHIT:          0  iMISS:          0  dACCESS:     225619  dHIT:     216749  dMISS:       8870  itACCESS:          0  itHIT:          0  itMISS:          0  dtACCESS:          0  dtHIT:          0  dtMISS:          0
LLC TRANSLATION  ACCESS:     441535  HIT:      53526  MISS:     388009  iACCESS:          0  iHIT:          0  iMISS:          0  dACCESS:          0  dHIT:          0  dMISS:          0  itACCESS:      56100  itHIT:       4439  itMISS:      51661  dtACCESS:     385435  dtHIT:      49087  dtMISS:     336348
LLC PREFETCH  REQUESTED:          0  ISSUED:          0  CROSSED:          0  USEFUL:          0  USELESS:          0
LLC AVERAGE iMISS LATENCY: 49.4429 cycles
LLC AVERAGE dMISS LATENCY: 100.611 cycles
LLC AVERAGE itMISS LATENCY: 2.96325 cycles
LLC AVERAGE dtMISS LATENCY: 20.8822 cycles
LLC PAGE CROSSINGS (TLB HIT):         0 
LLC PAGE CROSSINGS (TLB MISS):         0 
LLC AVERAGE MISS LATENCY: 173.899 cycles

PageTableWalker TOTAL       ACCESS:     139984  
PageTableWalker AVERAGE LATENCY: 6.58797 cycles
PageTableWalker TOTAL LATENCY: 922210 cycles

DRAM Statistics
Channel 0
 RQ ROW_BUFFER_HIT:     646975
  ROW_BUFFER_MISS:    2445180
 AVG DBUS CONGESTED CYCLE:    3.65391
 WQ ROW_BUFFER_HIT:      68231
  ROW_BUFFER_MISS:      60261  FULL:          0

