last_page:0x200000000000000
VMEM_RES_CAP:0x100000
PAGE_SIZE:4096
LOG2_PAGE_SIZE:12
LOG2_PAGE_TABLE_SIZE:9
page_table_levels:5
WARNING: physical memory size is smaller than virtual memory size
FDiP enabled with aggresivity 16

*** ChampSim Multicore Out-of-Order Simulator ***

Warmup Instructions: 50000000
Simulation Instructions: 100000000
Number of CPUs: 1
Small page size: 4096
Large page size: 2097152

CPU 0 Bimodal branch predictor
Basic BTB sets: 1024 ways: 8 indirect buffer size: 4096 RAS size: 64
Instruction page size distrubution: 0
Loading instruction page size distribution from /home/bsc/bsc018186/scratch/itp_asplos25_AE/dump/smt_srv12_ap_srv73_ap_1024i.pdst
Data page size distrubution: 0
Loading data page size distribution from /home/bsc/bsc018186/scratch/itp_asplos25_AE/dump/smt_srv12_ap_srv73_ap_1024i.pdst
cpu0_L2C IP-based stride prefetcher
cpu0_L2C is using PTP replacement policy:
	TLB_STRESS_THRESHOLD:0
	PTE_EVICTION_RATIO:0
cpu0_L1D next line prefetcher
cpu0_L1I next line prefetcher
Off-chip DRAM Size: 4 GiB Channels: 1 Width: 64-bit Data Rate: 3200 MT/s
Heartbeat CPU 0 instructions: 10000002 cycles: 2500673 heartbeat IPC: 3.99893 cumulative IPC: 3.99893 (Simulation time: 0 hr 0 min 45 sec) 
Heartbeat CPU 0 instructions: 20000001 cycles: 5001250 heartbeat IPC: 3.99908 cumulative IPC: 3.99901 (Simulation time: 0 hr 1 min 30 sec) 
Heartbeat CPU 0 instructions: 30000002 cycles: 7501911 heartbeat IPC: 3.99895 cumulative IPC: 3.99899 (Simulation time: 0 hr 2 min 16 sec) 
Heartbeat CPU 0 instructions: 40000001 cycles: 10002277 heartbeat IPC: 3.99942 cumulative IPC: 3.99909 (Simulation time: 0 hr 3 min 4 sec) 
Heartbeat CPU 0 instructions: 50000003 cycles: 12503308 heartbeat IPC: 3.99836 cumulative IPC: 3.99895 (Simulation time: 0 hr 3 min 52 sec) 
Warmup finished CPU 0 instructions: 50000003 cycles: 12503309 cumulative IPC: 3.99895 (Simulation time: 0 hr 3 min 52 sec) 

Warmup complete CPU 0 instructions: 50000003 cycles: 12503309 (Simulation time: 0 hr 3 min 52 sec) 

Heartbeat CPU 0 instructions: 60000001 cycles: 37967512 heartbeat IPC: 0.392709 cumulative IPC: 0.392709 (Simulation time: 0 hr 5 min 23 sec) 
Heartbeat CPU 0 instructions: 70000003 cycles: 61059264 heartbeat IPC: 0.433056 cumulative IPC: 0.411896 (Simulation time: 0 hr 6 min 47 sec) 
Heartbeat CPU 0 instructions: 80000001 cycles: 85601135 heartbeat IPC: 0.407467 cumulative IPC: 0.410409 (Simulation time: 0 hr 8 min 16 sec) 
Heartbeat CPU 0 instructions: 90000000 cycles: 113692537 heartbeat IPC: 0.355981 cumulative IPC: 0.395299 (Simulation time: 0 hr 9 min 49 sec) 
Heartbeat CPU 0 instructions: 100000000 cycles: 145317702 heartbeat IPC: 0.316204 cumulative IPC: 0.376466 (Simulation time: 0 hr 11 min 31 sec) 
Heartbeat CPU 0 instructions: 110000002 cycles: 177534697 heartbeat IPC: 0.310396 cumulative IPC: 0.363568 (Simulation time: 0 hr 13 min 13 sec) 
Heartbeat CPU 0 instructions: 120000001 cycles: 207265535 heartbeat IPC: 0.336352 cumulative IPC: 0.359413 (Simulation time: 0 hr 14 min 50 sec) 
Heartbeat CPU 0 instructions: 130000004 cycles: 225249087 heartbeat IPC: 0.556064 cumulative IPC: 0.376036 (Simulation time: 0 hr 16 min 6 sec) 
Heartbeat CPU 0 instructions: 140000000 cycles: 246766805 heartbeat IPC: 0.464734 cumulative IPC: 0.384183 (Simulation time: 0 hr 17 min 30 sec) 
Heartbeat CPU 0 instructions: 150000000 cycles: 277746717 heartbeat IPC: 0.32279 cumulative IPC: 0.377013 (Simulation time: 0 hr 19 min 11 sec) 
Simulation finished CPU 0 instructions: 100000001 cycles: 265243410 cumulative IPC: 0.377013 (Simulation time: 0 hr 19 min 11 sec) 

Simulation complete CPU 0 instructions: 100000001 cycles: 265243410 (Simulation time: 0 hr 19 min 11 sec) 


ChampSim completed all CPUs

Saving instructions large page distribution to /home/bsc/bsc018186/scratch/itp_asplos25_AE/dump/smt_srv12_ap_srv73_ap_1024i.pdst...
Saving data large page distribution to /home/bsc/bsc018186/scratch/itp_asplos25_AE/dump/smt_srv12_ap_srv73_ap_1024i.pdst...
=== Simulation ===
CPU 0 runs /gpfs/projects/bsc18/MN4/bsc18/romol/ChampSim/traces/qualcomm_srv/smt_srv12_ap_srv73_ap_1024i.champsimtrace.xz

Region of Interest Statistics

CPU 0 cumulative IPC: 0.377013 instructions: 100000001 cycles: 265243410
CPU 0 Branch Prediction Accuracy: 77.5128% MPKI: 43.838 Average ROB Occupancy at Mispredict: 10.6635
Branch type MPKI
BRANCH_DIRECT_JUMP: 1.16918
BRANCH_INDIRECT: 23.1063
BRANCH_CONDITIONAL: 12.637
BRANCH_DIRECT_CALL: 2.15754
BRANCH_INDIRECT_CALL: 1.79687
BRANCH_RETURN: 2.97121

Instructions large pages: 0
Instructions small pages: 12334
Large page distribution for instructions: 0%

Data large pages: 0
Data small pages: 10484
Large page distribution for data: 0%

cpu0_L1I TOTAL       ACCESS:   38228222  HIT:   31159548  MISS:    7068674  iACCESS:   38228222  iHIT:   31159548  iMISS:    7068674  dACCESS:          0  dHIT:          0  dMISS:          0  itACCESS:          0  itHIT:          0  itMISS:          0  dtACCESS:          0  dtHIT:          0  dtMISS:          0
cpu0_L1I LOAD         ACCESS:   10540509  HIT:    8606356  MISS:    1934153  iACCESS:   10540509  iHIT:    8606356  iMISS:    1934153  dACCESS:          0  dHIT:          0  dMISS:          0  itACCESS:          0  itHIT:          0  itMISS:          0  dtACCESS:          0  dtHIT:          0  dtMISS:          0
cpu0_L1I RFO          ACCESS:          0  HIT:          0  MISS:          0  iACCESS:          0  iHIT:          0  iMISS:          0  dACCESS:          0  dHIT:          0  dMISS:          0  itACCESS:          0  itHIT:          0  itMISS:          0  dtACCESS:          0  dtHIT:          0  dtMISS:          0
cpu0_L1I PREFETCH     ACCESS:   27687713  HIT:   22553192  MISS:    5134521  iACCESS:   27687713  iHIT:   22553192  iMISS:    5134521  dACCESS:          0  dHIT:          0  dMISS:          0  itACCESS:          0  itHIT:          0  itMISS:          0  dtACCESS:          0  dtHIT:          0  dtMISS:          0
cpu0_L1I WRITE        ACCESS:          0  HIT:          0  MISS:          0  iACCESS:          0  iHIT:          0  iMISS:          0  dACCESS:          0  dHIT:          0  dMISS:          0  itACCESS:          0  itHIT:          0  itMISS:          0  dtACCESS:          0  dtHIT:          0  dtMISS:          0
cpu0_L1I TRANSLATION  ACCESS:          0  HIT:          0  MISS:          0  iACCESS:          0  iHIT:          0  iMISS:          0  dACCESS:          0  dHIT:          0  dMISS:          0  itACCESS:          0  itHIT:          0  itMISS:          0  dtACCESS:          0  dtHIT:          0  dtMISS:          0
cpu0_L1I PREFETCH  REQUESTED:   30087199  ISSUED:   30087188  CROSSED:          0  USEFUL:    1796844  USELESS:     651333
cpu0_L1I AVERAGE iMISS LATENCY: 24.9742 cycles
cpu0_L1I AVERAGE dMISS LATENCY: 0 cycles
cpu0_L1I AVERAGE itMISS LATENCY: 0 cycles
cpu0_L1I AVERAGE dtMISS LATENCY: 0 cycles
cpu0_L1I PAGE CROSSINGS (TLB HIT):         0 
cpu0_L1I PAGE CROSSINGS (TLB MISS):         0 
cpu0_L1I AVERAGE MISS LATENCY: 24.9742 cycles
cpu0_ITLB TOTAL       ACCESS:   32416005  HIT:   30569718  MISS:    1846287  iACCESS:   32416005  iHIT:   30569718  iMISS:    1846287  dACCESS:          0  dHIT:          0  dMISS:          0  itACCESS:          0  itHIT:          0  itMISS:          0  dtACCESS:          0  dtHIT:          0  dtMISS:          0
cpu0_ITLB LOAD         ACCESS:   32416005  HIT:   30569718  MISS:    1846287  iACCESS:   32416005  iHIT:   30569718  iMISS:    1846287  dACCESS:          0  dHIT:          0  dMISS:          0  itACCESS:          0  itHIT:          0  itMISS:          0  dtACCESS:          0  dtHIT:          0  dtMISS:          0
cpu0_ITLB RFO          ACCESS:          0  HIT:          0  MISS:          0  iACCESS:          0  iHIT:          0  iMISS:          0  dACCESS:          0  dHIT:          0  dMISS:          0  itACCESS:          0  itHIT:          0  itMISS:          0  dtACCESS:          0  dtHIT:          0  dtMISS:          0
cpu0_ITLB PREFETCH     ACCESS:          0  HIT:          0  MISS:          0  iACCESS:          0  iHIT:          0  iMISS:          0  dACCESS:          0  dHIT:          0  dMISS:          0  itACCESS:          0  itHIT:          0  itMISS:          0  dtACCESS:          0  dtHIT:          0  dtMISS:          0
cpu0_ITLB WRITE        ACCESS:          0  HIT:          0  MISS:          0  iACCESS:          0  iHIT:          0  iMISS:          0  dACCESS:          0  dHIT:          0  dMISS:          0  itACCESS:          0  itHIT:          0  itMISS:          0  dtACCESS:          0  dtHIT:          0  dtMISS:          0
cpu0_ITLB TRANSLATION  ACCESS:          0  HIT:          0  MISS:          0  iACCESS:          0  iHIT:          0  iMISS:          0  dACCESS:          0  dHIT:          0  dMISS:          0  itACCESS:          0  itHIT:          0  itMISS:          0  dtACCESS:          0  dtHIT:          0  dtMISS:          0
cpu0_ITLB PREFETCH  REQUESTED:          0  ISSUED:          0  CROSSED:          0  USEFUL:     329172  USELESS:      68113
cpu0_ITLB AVERAGE iMISS LATENCY: 10.6171 cycles
cpu0_ITLB AVERAGE dMISS LATENCY: 0 cycles
cpu0_ITLB AVERAGE itMISS LATENCY: 0 cycles
cpu0_ITLB AVERAGE dtMISS LATENCY: 0 cycles
cpu0_ITLB PAGE CROSSINGS (TLB HIT):         0 
cpu0_ITLB PAGE CROSSINGS (TLB MISS):         0 
cpu0_ITLB AVERAGE MISS LATENCY: 10.6171 cycles
cpu0_DTLB TOTAL       ACCESS:   31375371  HIT:   26073215  MISS:    5302156  iACCESS:          0  iHIT:          0  iMISS:          0  dACCESS:   31375371  dHIT:   26073215  dMISS:    5302156  itACCESS:          0  itHIT:          0  itMISS:          0  dtACCESS:          0  dtHIT:          0  dtMISS:          0
cpu0_DTLB LOAD         ACCESS:   31375371  HIT:   26073215  MISS:    5302156  iACCESS:          0  iHIT:          0  iMISS:          0  dACCESS:   31375371  dHIT:   26073215  dMISS:    5302156  itACCESS:          0  itHIT:          0  itMISS:          0  dtACCESS:          0  dtHIT:          0  dtMISS:          0
cpu0_DTLB RFO          ACCESS:          0  HIT:          0  MISS:          0  iACCESS:          0  iHIT:          0  iMISS:          0  dACCESS:          0  dHIT:          0  dMISS:          0  itACCESS:          0  itHIT:          0  itMISS:          0  dtACCESS:          0  dtHIT:          0  dtMISS:          0
cpu0_DTLB PREFETCH     ACCESS:          0  HIT:          0  MISS:          0  iACCESS:          0  iHIT:          0  iMISS:          0  dACCESS:          0  dHIT:          0  dMISS:          0  itACCESS:          0  itHIT:          0  itMISS:          0  dtACCESS:          0  dtHIT:          0  dtMISS:          0
cpu0_DTLB WRITE        ACCESS:          0  HIT:          0  MISS:          0  iACCESS:          0  iHIT:          0  iMISS:          0  dACCESS:          0  dHIT:          0  dMISS:          0  itACCESS:          0  itHIT:          0  itMISS:          0  dtACCESS:          0  dtHIT:          0  dtMISS:          0
cpu0_DTLB TRANSLATION  ACCESS:          0  HIT:          0  MISS:          0  iACCESS:          0  iHIT:          0  iMISS:          0  dACCESS:          0  dHIT:          0  dMISS:          0  itACCESS:          0  itHIT:          0  itMISS:          0  dtACCESS:          0  dtHIT:          0  dtMISS:          0
cpu0_DTLB PREFETCH  REQUESTED:          0  ISSUED:          0  CROSSED:          0  USEFUL:          0  USELESS:          0
cpu0_DTLB AVERAGE iMISS LATENCY: 0 cycles
cpu0_DTLB AVERAGE dMISS LATENCY: 14.4696 cycles
cpu0_DTLB AVERAGE itMISS LATENCY: 0 cycles
cpu0_DTLB AVERAGE dtMISS LATENCY: 0 cycles
cpu0_DTLB PAGE CROSSINGS (TLB HIT):         0 
cpu0_DTLB PAGE CROSSINGS (TLB MISS):         0 
cpu0_DTLB AVERAGE MISS LATENCY: 14.4696 cycles
cpu0_STLB TOTAL       ACCESS:    3221242  HIT:    2934523  MISS:     286719  iACCESS:     397292  iHIT:     303695  iMISS:      93597  dACCESS:    2823950  dHIT:    2630828  dMISS:     193122  itACCESS:          0  itHIT:          0  itMISS:          0  dtACCESS:          0  dtHIT:          0  dtMISS:          0
cpu0_STLB LOAD         ACCESS:    3221242  HIT:    2934523  MISS:     286719  iACCESS:     397292  iHIT:     303695  iMISS:      93597  dACCESS:    2823950  dHIT:    2630828  dMISS:     193122  itACCESS:          0  itHIT:          0  itMISS:          0  dtACCESS:          0  dtHIT:          0  dtMISS:          0
cpu0_STLB RFO          ACCESS:          0  HIT:          0  MISS:          0  iACCESS:          0  iHIT:          0  iMISS:          0  dACCESS:          0  dHIT:          0  dMISS:          0  itACCESS:          0  itHIT:          0  itMISS:          0  dtACCESS:          0  dtHIT:          0  dtMISS:          0
cpu0_STLB PREFETCH     ACCESS:          0  HIT:          0  MISS:          0  iACCESS:          0  iHIT:          0  iMISS:          0  dACCESS:          0  dHIT:          0  dMISS:          0  itACCESS:          0  itHIT:          0  itMISS:          0  dtACCESS:          0  dtHIT:          0  dtMISS:          0
cpu0_STLB WRITE        ACCESS:          0  HIT:          0  MISS:          0  iACCESS:          0  iHIT:          0  iMISS:          0  dACCESS:          0  dHIT:          0  dMISS:          0  itACCESS:          0  itHIT:          0  itMISS:          0  dtACCESS:          0  dtHIT:          0  dtMISS:          0
cpu0_STLB TRANSLATION  ACCESS:          0  HIT:          0  MISS:          0  iACCESS:          0  iHIT:          0  iMISS:          0  dACCESS:          0  dHIT:          0  dMISS:          0  itACCESS:          0  itHIT:          0  itMISS:          0  dtACCESS:          0  dtHIT:          0  dtMISS:          0
cpu0_STLB PREFETCH  REQUESTED:          0  ISSUED:          0  CROSSED:          0  USEFUL:          0  USELESS:          0
cpu0_STLB AVERAGE iMISS LATENCY: 57.2949 cycles
cpu0_STLB AVERAGE dMISS LATENCY: 188.025 cycles
cpu0_STLB AVERAGE itMISS LATENCY: 0 cycles
cpu0_STLB AVERAGE dtMISS LATENCY: 0 cycles
cpu0_STLB PAGE CROSSINGS (TLB HIT):         0 
cpu0_STLB PAGE CROSSINGS (TLB MISS):         0 
cpu0_STLB AVERAGE MISS LATENCY: 245.32 cycles
cpu0_L1D TOTAL       ACCESS:   48970324  HIT:   40913467  MISS:    8056857  iACCESS:          0  iHIT:          0  iMISS:          0  dACCESS:   48496706  dHIT:   40890144  dMISS:    7606562  itACCESS:     112696  itHIT:      10232  itMISS:     102464  dtACCESS:     360922  dtHIT:      13091  dtMISS:     347831
cpu0_L1D LOAD         ACCESS:   23440261  HIT:   19393738  MISS:    4046523  iACCESS:          0  iHIT:          0  iMISS:          0  dACCESS:   23440261  dHIT:   19393738  dMISS:    4046523  itACCESS:          0  itHIT:          0  itMISS:          0  dtACCESS:          0  dtHIT:          0  dtMISS:          0
cpu0_L1D RFO          ACCESS:          0  HIT:          0  MISS:          0  iACCESS:          0  iHIT:          0  iMISS:          0  dACCESS:          0  dHIT:          0  dMISS:          0  itACCESS:          0  itHIT:          0  itMISS:          0  dtACCESS:          0  dtHIT:          0  dtMISS:          0
cpu0_L1D PREFETCH     ACCESS:   15187187  HIT:   12418753  MISS:    2768434  iACCESS:          0  iHIT:          0  iMISS:          0  dACCESS:   15187187  dHIT:   12418753  dMISS:    2768434  itACCESS:          0  itHIT:          0  itMISS:          0  dtACCESS:          0  dtHIT:          0  dtMISS:          0
cpu0_L1D WRITE        ACCESS:    9869258  HIT:    9077653  MISS:     791605  iACCESS:          0  iHIT:          0  iMISS:          0  dACCESS:    9869258  dHIT:    9077653  dMISS:     791605  itACCESS:          0  itHIT:          0  itMISS:          0  dtACCESS:          0  dtHIT:          0  dtMISS:          0
cpu0_L1D TRANSLATION  ACCESS:     473618  HIT:      23323  MISS:     450295  iACCESS:          0  iHIT:          0  iMISS:          0  dACCESS:          0  dHIT:          0  dMISS:          0  itACCESS:     112696  itHIT:      10232  itMISS:     102464  dtACCESS:     360922  dtHIT:      13091  dtMISS:     347831
cpu0_L1D PREFETCH  REQUESTED:   23440261  ISSUED:   19822402  CROSSED:          0  USEFUL:     342919  USELESS:    1101811
cpu0_L1D AVERAGE iMISS LATENCY: 0 cycles
cpu0_L1D AVERAGE dMISS LATENCY: 33.2369 cycles
cpu0_L1D AVERAGE itMISS LATENCY: 1.92153 cycles
cpu0_L1D AVERAGE dtMISS LATENCY: 6.20931 cycles
cpu0_L1D PAGE CROSSINGS (TLB HIT):         0 
cpu0_L1D PAGE CROSSINGS (TLB MISS):         0 
cpu0_L1D AVERAGE MISS LATENCY: 41.3678 cycles
cpu0_L2C TOTAL       ACCESS:    9194061  HIT:    5453670  MISS:    3740391  iACCESS:    3114823  iHIT:    1881070  iMISS:    1233753  dACCESS:    5711913  dHIT:    3526835  dMISS:    2185078  itACCESS:      94388  itHIT:      15522  itMISS:      78866  dtACCESS:     272937  dtHIT:      30243  dtMISS:     242694
cpu0_L2C LOAD         ACCESS:    3340728  HIT:    2395400  MISS:     945328  iACCESS:     694534  iHIT:     438154  iMISS:     256380  dACCESS:    2646194  dHIT:    1957246  dMISS:     688948  itACCESS:          0  itHIT:          0  itMISS:          0  dtACCESS:          0  dtHIT:          0  dtMISS:          0
cpu0_L2C RFO          ACCESS:     240249  HIT:     108977  MISS:     131272  iACCESS:          0  iHIT:          0  iMISS:          0  dACCESS:     240249  dHIT:     108977  dMISS:     131272  itACCESS:          0  itHIT:          0  itMISS:          0  dtACCESS:          0  dtHIT:          0  dtMISS:          0
cpu0_L2C PREFETCH     ACCESS:    4916108  HIT:    2581919  MISS:    2334189  iACCESS:    2420289  iHIT:    1442916  iMISS:     977373  dACCESS:    2495819  dHIT:    1139003  dMISS:    1356816  itACCESS:          0  itHIT:          0  itMISS:          0  dtACCESS:          0  dtHIT:          0  dtMISS:          0
cpu0_L2C WRITE        ACCESS:     329651  HIT:     321609  MISS:       8042  iACCESS:          0  iHIT:          0  iMISS:          0  dACCESS:     329651  dHIT:     321609  dMISS:       8042  itACCESS:          0  itHIT:          0  itMISS:          0  dtACCESS:          0  dtHIT:          0  dtMISS:          0
cpu0_L2C TRANSLATION  ACCESS:     367325  HIT:      45765  MISS:     321560  iACCESS:          0  iHIT:          0  iMISS:          0  dACCESS:          0  dHIT:          0  dMISS:          0  itACCESS:      94388  itHIT:      15522  itMISS:      78866  dtACCESS:     272937  dtHIT:      30243  dtMISS:     242694
cpu0_L2C PREFETCH  REQUESTED:    1231496  ISSUED:    1231448  CROSSED:          0  USEFUL:     277922  USELESS:     261191
cpu0_L2C AVERAGE iMISS LATENCY: 40.2986 cycles
cpu0_L2C AVERAGE dMISS LATENCY: 79.5208 cycles
cpu0_L2C AVERAGE itMISS LATENCY: 3.89012 cycles
cpu0_L2C AVERAGE dtMISS LATENCY: 12.6494 cycles
cpu0_L2C PAGE CROSSINGS (TLB HIT):         0 
cpu0_L2C PAGE CROSSINGS (TLB MISS):         0 
cpu0_L2C AVERAGE MISS LATENCY: 136.359 cycles
LLC TOTAL       ACCESS:    3753002  HIT:    1197097  MISS:    2555905  iACCESS:    1165264  iHIT:     358833  iMISS:     806431  dACCESS:    2266178  dHIT:     807215  dMISS:    1458963  itACCESS:      78866  itHIT:       6031  itMISS:      72835  dtACCESS:     242694  dtHIT:      25018  dtMISS:     217676
LLC LOAD         ACCESS:     939703  HIT:     342063  MISS:     597640  iACCESS:     255464  iHIT:      86241  iMISS:     169223  dACCESS:     684239  dHIT:     255822  dMISS:     428417  itACCESS:          0  itHIT:          0  itMISS:          0  dtACCESS:          0  dtHIT:          0  dtMISS:          0
LLC RFO          ACCESS:     131265  HIT:      36574  MISS:      94691  iACCESS:          0  iHIT:          0  iMISS:          0  dACCESS:     131265  dHIT:      36574  dMISS:      94691  itACCESS:          0  itHIT:          0  itMISS:          0  dtACCESS:          0  dtHIT:          0  dtMISS:          0
LLC PREFETCH     ACCESS:    2174696  HIT:     609573  MISS:    1565123  iACCESS:     909800  iHIT:     272592  iMISS:     637208  dACCESS:    1264896  dHIT:     336981  dMISS:     927915  itACCESS:          0  itHIT:          0  itMISS:          0  dtACCESS:          0  dtHIT:          0  dtMISS:          0
LLC WRITE        ACCESS:     185778  HIT:     177838  MISS:       7940  iACCESS:          0  iHIT:          0  iMISS:          0  dACCESS:     185778  dHIT:     177838  dMISS:       7940  itACCESS:          0  itHIT:          0  itMISS:          0  dtACCESS:          0  dtHIT:          0  dtMISS:          0
LLC TRANSLATION  ACCESS:     321560  HIT:      31049  MISS:     290511  iACCESS:          0  iHIT:          0  iMISS:          0  dACCESS:          0  dHIT:          0  dMISS:          0  itACCESS:      78866  itHIT:       6031  itMISS:      72835  dtACCESS:     242694  dtHIT:      25018  dtMISS:     217676
LLC PREFETCH  REQUESTED:          0  ISSUED:          0  CROSSED:          0  USEFUL:          0  USELESS:          0
LLC AVERAGE iMISS LATENCY: 49.9928 cycles
LLC AVERAGE dMISS LATENCY: 101.175 cycles
LLC AVERAGE itMISS LATENCY: 5.08097 cycles
LLC AVERAGE dtMISS LATENCY: 16.6346 cycles
LLC PAGE CROSSINGS (TLB HIT):         0 
LLC PAGE CROSSINGS (TLB MISS):         0 
LLC AVERAGE MISS LATENCY: 172.884 cycles

PageTableWalker TOTAL       ACCESS:     180941  
PageTableWalker AVERAGE LATENCY: 6.42854 cycles
PageTableWalker TOTAL LATENCY: 1163186 cycles

DRAM Statistics
Channel 0
 RQ ROW_BUFFER_HIT:     542962
  ROW_BUFFER_MISS:    1991047
 AVG DBUS CONGESTED CYCLE:    3.65404
 WQ ROW_BUFFER_HIT:      56092
  ROW_BUFFER_MISS:      50894  FULL:          0

