last_page:0x200000000000000
VMEM_RES_CAP:0x100000
PAGE_SIZE:4096
LOG2_PAGE_SIZE:12
LOG2_PAGE_TABLE_SIZE:9
page_table_levels:5
WARNING: physical memory size is smaller than virtual memory size
FDiP enabled with aggresivity 16

*** ChampSim Multicore Out-of-Order Simulator ***

Warmup Instructions: 50000000
Simulation Instructions: 100000000
Number of CPUs: 1
Small page size: 4096
Large page size: 2097152

CPU 0 Bimodal branch predictor
Basic BTB sets: 1024 ways: 8 indirect buffer size: 4096 RAS size: 64
Instruction page size distrubution: 0
Loading instruction page size distribution from /home/bsc/bsc018186/scratch/itp_asplos25_AE/dump/smt_srv85_ap_srv727_ap_1024i.pdst
Data page size distrubution: 0
Loading data page size distribution from /home/bsc/bsc018186/scratch/itp_asplos25_AE/dump/smt_srv85_ap_srv727_ap_1024i.pdst
cpu0_L2C IP-based stride prefetcher
cpu0_L1D next line prefetcher
CHiRPing...
cpu0_L1I next line prefetcher
Off-chip DRAM Size: 4 GiB Channels: 1 Width: 64-bit Data Rate: 3200 MT/s
Heartbeat CPU 0 instructions: 10000003 cycles: 2500633 heartbeat IPC: 3.99899 cumulative IPC: 3.99899 (Simulation time: 0 hr 0 min 41 sec) 
Heartbeat CPU 0 instructions: 20000002 cycles: 5000951 heartbeat IPC: 3.9995 cumulative IPC: 3.99924 (Simulation time: 0 hr 1 min 25 sec) 
Heartbeat CPU 0 instructions: 30000001 cycles: 7501437 heartbeat IPC: 3.99923 cumulative IPC: 3.99924 (Simulation time: 0 hr 2 min 8 sec) 
Heartbeat CPU 0 instructions: 40000000 cycles: 10001854 heartbeat IPC: 3.99934 cumulative IPC: 3.99926 (Simulation time: 0 hr 2 min 52 sec) 
Heartbeat CPU 0 instructions: 50000002 cycles: 12502227 heartbeat IPC: 3.99941 cumulative IPC: 3.99929 (Simulation time: 0 hr 3 min 36 sec) 
Warmup finished CPU 0 instructions: 50000002 cycles: 12502228 cumulative IPC: 3.99929 (Simulation time: 0 hr 3 min 36 sec) 

Warmup complete CPU 0 instructions: 50000002 cycles: 12502228 (Simulation time: 0 hr 3 min 36 sec) 

Heartbeat CPU 0 instructions: 60000004 cycles: 42543916 heartbeat IPC: 0.332871 cumulative IPC: 0.332871 (Simulation time: 0 hr 5 min 7 sec) 
Heartbeat CPU 0 instructions: 70000001 cycles: 73209112 heartbeat IPC: 0.326103 cumulative IPC: 0.329452 (Simulation time: 0 hr 6 min 39 sec) 
Heartbeat CPU 0 instructions: 80000003 cycles: 104034931 heartbeat IPC: 0.324404 cumulative IPC: 0.327752 (Simulation time: 0 hr 8 min 11 sec) 
Heartbeat CPU 0 instructions: 90000002 cycles: 134882993 heartbeat IPC: 0.32417 cumulative IPC: 0.326849 (Simulation time: 0 hr 9 min 44 sec) 
Heartbeat CPU 0 instructions: 100000000 cycles: 165991713 heartbeat IPC: 0.321454 cumulative IPC: 0.325756 (Simulation time: 0 hr 11 min 16 sec) 
Heartbeat CPU 0 instructions: 110000000 cycles: 197695544 heartbeat IPC: 0.31542 cumulative IPC: 0.323986 (Simulation time: 0 hr 12 min 51 sec) 
Heartbeat CPU 0 instructions: 120000002 cycles: 228418878 heartbeat IPC: 0.325486 cumulative IPC: 0.3242 (Simulation time: 0 hr 14 min 23 sec) 
Heartbeat CPU 0 instructions: 130000000 cycles: 259733363 heartbeat IPC: 0.319341 cumulative IPC: 0.323584 (Simulation time: 0 hr 15 min 57 sec) 
Heartbeat CPU 0 instructions: 140000004 cycles: 290938506 heartbeat IPC: 0.320461 cumulative IPC: 0.323234 (Simulation time: 0 hr 17 min 33 sec) 
Heartbeat CPU 0 instructions: 150000004 cycles: 321692692 heartbeat IPC: 0.325159 cumulative IPC: 0.323426 (Simulation time: 0 hr 19 min 5 sec) 
Simulation finished CPU 0 instructions: 100000002 cycles: 309190465 cumulative IPC: 0.323426 (Simulation time: 0 hr 19 min 5 sec) 

Simulation complete CPU 0 instructions: 100000002 cycles: 309190465 (Simulation time: 0 hr 19 min 5 sec) 


ChampSim completed all CPUs

Saving instructions large page distribution to /home/bsc/bsc018186/scratch/itp_asplos25_AE/dump/smt_srv85_ap_srv727_ap_1024i.pdst...
Saving data large page distribution to /home/bsc/bsc018186/scratch/itp_asplos25_AE/dump/smt_srv85_ap_srv727_ap_1024i.pdst...
=== Simulation ===
CPU 0 runs /gpfs/projects/bsc18/MN4/bsc18/romol/ChampSim/traces/qualcomm_srv/smt_srv85_ap_srv727_ap_1024i.champsimtrace.xz

Region of Interest Statistics

CPU 0 cumulative IPC: 0.323426 instructions: 100000002 cycles: 309190465
CPU 0 Branch Prediction Accuracy: 74.8933% MPKI: 45.2026 Average ROB Occupancy at Mispredict: 10.7588
Branch type MPKI
BRANCH_DIRECT_JUMP: 1.40749
BRANCH_INDIRECT: 23.4058
BRANCH_CONDITIONAL: 13.133
BRANCH_DIRECT_CALL: 2.6974
BRANCH_INDIRECT_CALL: 1.0062
BRANCH_RETURN: 3.55269

Instructions large pages: 0
Instructions small pages: 9809
Large page distribution for instructions: 0%

Data large pages: 0
Data small pages: 8446
Large page distribution for data: 0%

cpu0_L1I TOTAL       ACCESS:   39205215  HIT:   30495651  MISS:    8709564  iACCESS:   39205215  iHIT:   30495651  iMISS:    8709564  dACCESS:          0  dHIT:          0  dMISS:          0  itACCESS:          0  itHIT:          0  itMISS:          0  dtACCESS:          0  dtHIT:          0  dtMISS:          0
cpu0_L1I LOAD         ACCESS:   11718269  HIT:    9352620  MISS:    2365649  iACCESS:   11718269  iHIT:    9352620  iMISS:    2365649  dACCESS:          0  dHIT:          0  dMISS:          0  itACCESS:          0  itHIT:          0  itMISS:          0  dtACCESS:          0  dtHIT:          0  dtMISS:          0
cpu0_L1I RFO          ACCESS:          0  HIT:          0  MISS:          0  iACCESS:          0  iHIT:          0  iMISS:          0  dACCESS:          0  dHIT:          0  dMISS:          0  itACCESS:          0  itHIT:          0  itMISS:          0  dtACCESS:          0  dtHIT:          0  dtMISS:          0
cpu0_L1I PREFETCH     ACCESS:   27486946  HIT:   21143031  MISS:    6343915  iACCESS:   27486946  iHIT:   21143031  iMISS:    6343915  dACCESS:          0  dHIT:          0  dMISS:          0  itACCESS:          0  itHIT:          0  itMISS:          0  dtACCESS:          0  dtHIT:          0  dtMISS:          0
cpu0_L1I WRITE        ACCESS:          0  HIT:          0  MISS:          0  iACCESS:          0  iHIT:          0  iMISS:          0  dACCESS:          0  dHIT:          0  dMISS:          0  itACCESS:          0  itHIT:          0  itMISS:          0  dtACCESS:          0  dtHIT:          0  dtMISS:          0
cpu0_L1I TRANSLATION  ACCESS:          0  HIT:          0  MISS:          0  iACCESS:          0  iHIT:          0  iMISS:          0  dACCESS:          0  dHIT:          0  dMISS:          0  itACCESS:          0  itHIT:          0  itMISS:          0  dtACCESS:          0  dtHIT:          0  dtMISS:          0
cpu0_L1I PREFETCH  REQUESTED:   30280120  ISSUED:   30280038  CROSSED:          0  USEFUL:    2212318  USELESS:     768771
cpu0_L1I AVERAGE iMISS LATENCY: 25.0456 cycles
cpu0_L1I AVERAGE dMISS LATENCY: 0 cycles
cpu0_L1I AVERAGE itMISS LATENCY: 0 cycles
cpu0_L1I AVERAGE dtMISS LATENCY: 0 cycles
cpu0_L1I PAGE CROSSINGS (TLB HIT):         0 
cpu0_L1I PAGE CROSSINGS (TLB MISS):         0 
cpu0_L1I AVERAGE MISS LATENCY: 25.0456 cycles
cpu0_ITLB TOTAL       ACCESS:   33222152  HIT:   30976100  MISS:    2246052  iACCESS:   33222152  iHIT:   30976100  iMISS:    2246052  dACCESS:          0  dHIT:          0  dMISS:          0  itACCESS:          0  itHIT:          0  itMISS:          0  dtACCESS:          0  dtHIT:          0  dtMISS:          0
cpu0_ITLB LOAD         ACCESS:   33222152  HIT:   30976100  MISS:    2246052  iACCESS:   33222152  iHIT:   30976100  iMISS:    2246052  dACCESS:          0  dHIT:          0  dMISS:          0  itACCESS:          0  itHIT:          0  itMISS:          0  dtACCESS:          0  dtHIT:          0  dtMISS:          0
cpu0_ITLB RFO          ACCESS:          0  HIT:          0  MISS:          0  iACCESS:          0  iHIT:          0  iMISS:          0  dACCESS:          0  dHIT:          0  dMISS:          0  itACCESS:          0  itHIT:          0  itMISS:          0  dtACCESS:          0  dtHIT:          0  dtMISS:          0
cpu0_ITLB PREFETCH     ACCESS:          0  HIT:          0  MISS:          0  iACCESS:          0  iHIT:          0  iMISS:          0  dACCESS:          0  dHIT:          0  dMISS:          0  itACCESS:          0  itHIT:          0  itMISS:          0  dtACCESS:          0  dtHIT:          0  dtMISS:          0
cpu0_ITLB WRITE        ACCESS:          0  HIT:          0  MISS:          0  iACCESS:          0  iHIT:          0  iMISS:          0  dACCESS:          0  dHIT:          0  dMISS:          0  itACCESS:          0  itHIT:          0  itMISS:          0  dtACCESS:          0  dtHIT:          0  dtMISS:          0
cpu0_ITLB TRANSLATION  ACCESS:          0  HIT:          0  MISS:          0  iACCESS:          0  iHIT:          0  iMISS:          0  dACCESS:          0  dHIT:          0  dMISS:          0  itACCESS:          0  itHIT:          0  itMISS:          0  dtACCESS:          0  dtHIT:          0  dtMISS:          0
cpu0_ITLB PREFETCH  REQUESTED:          0  ISSUED:          0  CROSSED:          0  USEFUL:     391156  USELESS:      80599
cpu0_ITLB AVERAGE iMISS LATENCY: 10.6566 cycles
cpu0_ITLB AVERAGE dMISS LATENCY: 0 cycles
cpu0_ITLB AVERAGE itMISS LATENCY: 0 cycles
cpu0_ITLB AVERAGE dtMISS LATENCY: 0 cycles
cpu0_ITLB PAGE CROSSINGS (TLB HIT):         0 
cpu0_ITLB PAGE CROSSINGS (TLB MISS):         0 
cpu0_ITLB AVERAGE MISS LATENCY: 10.6566 cycles
cpu0_DTLB TOTAL       ACCESS:   28874651  HIT:   25270105  MISS:    3604546  iACCESS:          0  iHIT:          0  iMISS:          0  dACCESS:   28874651  dHIT:   25270105  dMISS:    3604546  itACCESS:          0  itHIT:          0  itMISS:          0  dtACCESS:          0  dtHIT:          0  dtMISS:          0
cpu0_DTLB LOAD         ACCESS:   28874651  HIT:   25270105  MISS:    3604546  iACCESS:          0  iHIT:          0  iMISS:          0  dACCESS:   28874651  dHIT:   25270105  dMISS:    3604546  itACCESS:          0  itHIT:          0  itMISS:          0  dtACCESS:          0  dtHIT:          0  dtMISS:          0
cpu0_DTLB RFO          ACCESS:          0  HIT:          0  MISS:          0  iACCESS:          0  iHIT:          0  iMISS:          0  dACCESS:          0  dHIT:          0  dMISS:          0  itACCESS:          0  itHIT:          0  itMISS:          0  dtACCESS:          0  dtHIT:          0  dtMISS:          0
cpu0_DTLB PREFETCH     ACCESS:          0  HIT:          0  MISS:          0  iACCESS:          0  iHIT:          0  iMISS:          0  dACCESS:          0  dHIT:          0  dMISS:          0  itACCESS:          0  itHIT:          0  itMISS:          0  dtACCESS:          0  dtHIT:          0  dtMISS:          0
cpu0_DTLB WRITE        ACCESS:          0  HIT:          0  MISS:          0  iACCESS:          0  iHIT:          0  iMISS:          0  dACCESS:          0  dHIT:          0  dMISS:          0  itACCESS:          0  itHIT:          0  itMISS:          0  dtACCESS:          0  dtHIT:          0  dtMISS:          0
cpu0_DTLB TRANSLATION  ACCESS:          0  HIT:          0  MISS:          0  iACCESS:          0  iHIT:          0  iMISS:          0  dACCESS:          0  dHIT:          0  dMISS:          0  itACCESS:          0  itHIT:          0  itMISS:          0  dtACCESS:          0  dtHIT:          0  dtMISS:          0
cpu0_DTLB PREFETCH  REQUESTED:          0  ISSUED:          0  CROSSED:          0  USEFUL:          0  USELESS:          0
cpu0_DTLB AVERAGE iMISS LATENCY: 0 cycles
cpu0_DTLB AVERAGE dMISS LATENCY: 25.9911 cycles
cpu0_DTLB AVERAGE itMISS LATENCY: 0 cycles
cpu0_DTLB AVERAGE dtMISS LATENCY: 0 cycles
cpu0_DTLB PAGE CROSSINGS (TLB HIT):         0 
cpu0_DTLB PAGE CROSSINGS (TLB MISS):         0 
cpu0_DTLB AVERAGE MISS LATENCY: 25.9911 cycles
cpu0_STLB TOTAL       ACCESS:    2595794  HIT:    2204325  MISS:     391469  iACCESS:     471759  iHIT:     352690  iMISS:     119069  dACCESS:    2124035  dHIT:    1851635  dMISS:     272400  itACCESS:          0  itHIT:          0  itMISS:          0  dtACCESS:          0  dtHIT:          0  dtMISS:          0
cpu0_STLB LOAD         ACCESS:    2595794  HIT:    2204325  MISS:     391469  iACCESS:     471759  iHIT:     352690  iMISS:     119069  dACCESS:    2124035  dHIT:    1851635  dMISS:     272400  itACCESS:          0  itHIT:          0  itMISS:          0  dtACCESS:          0  dtHIT:          0  dtMISS:          0
cpu0_STLB RFO          ACCESS:          0  HIT:          0  MISS:          0  iACCESS:          0  iHIT:          0  iMISS:          0  dACCESS:          0  dHIT:          0  dMISS:          0  itACCESS:          0  itHIT:          0  itMISS:          0  dtACCESS:          0  dtHIT:          0  dtMISS:          0
cpu0_STLB PREFETCH     ACCESS:          0  HIT:          0  MISS:          0  iACCESS:          0  iHIT:          0  iMISS:          0  dACCESS:          0  dHIT:          0  dMISS:          0  itACCESS:          0  itHIT:          0  itMISS:          0  dtACCESS:          0  dtHIT:          0  dtMISS:          0
cpu0_STLB WRITE        ACCESS:          0  HIT:          0  MISS:          0  iACCESS:          0  iHIT:          0  iMISS:          0  dACCESS:          0  dHIT:          0  dMISS:          0  itACCESS:          0  itHIT:          0  itMISS:          0  dtACCESS:          0  dtHIT:          0  dtMISS:          0
cpu0_STLB TRANSLATION  ACCESS:          0  HIT:          0  MISS:          0  iACCESS:          0  iHIT:          0  iMISS:          0  dACCESS:          0  dHIT:          0  dMISS:          0  itACCESS:          0  itHIT:          0  itMISS:          0  dtACCESS:          0  dtHIT:          0  dtMISS:          0
cpu0_STLB PREFETCH  REQUESTED:          0  ISSUED:          0  CROSSED:          0  USEFUL:          0  USELESS:          0
cpu0_STLB AVERAGE iMISS LATENCY: 51.4869 cycles
cpu0_STLB AVERAGE dMISS LATENCY: 195.627 cycles
cpu0_STLB AVERAGE itMISS LATENCY: 0 cycles
cpu0_STLB AVERAGE dtMISS LATENCY: 0 cycles
cpu0_STLB PAGE CROSSINGS (TLB HIT):         0 
cpu0_STLB PAGE CROSSINGS (TLB MISS):         0 
cpu0_STLB AVERAGE MISS LATENCY: 247.114 cycles
cpu0_L1D TOTAL       ACCESS:   45227377  HIT:   39240735  MISS:    5986642  iACCESS:          0  iHIT:          0  iMISS:          0  dACCESS:   44647430  dHIT:   39207356  dMISS:    5440074  itACCESS:     133097  itHIT:      14650  itMISS:     118447  dtACCESS:     446850  dtHIT:      18729  dtMISS:     428121
cpu0_L1D LOAD         ACCESS:   20380343  HIT:   17937205  MISS:    2443138  iACCESS:          0  iHIT:          0  iMISS:          0  dACCESS:   20380343  dHIT:   17937205  dMISS:    2443138  itACCESS:          0  itHIT:          0  itMISS:          0  dtACCESS:          0  dtHIT:          0  dtMISS:          0
cpu0_L1D RFO          ACCESS:          0  HIT:          0  MISS:          0  iACCESS:          0  iHIT:          0  iMISS:          0  dACCESS:          0  dHIT:          0  dMISS:          0  itACCESS:          0  itHIT:          0  itMISS:          0  dtACCESS:          0  dtHIT:          0  dtMISS:          0
cpu0_L1D PREFETCH     ACCESS:   14114701  HIT:   11708845  MISS:    2405856  iACCESS:          0  iHIT:          0  iMISS:          0  dACCESS:   14114701  dHIT:   11708845  dMISS:    2405856  itACCESS:          0  itHIT:          0  itMISS:          0  dtACCESS:          0  dtHIT:          0  dtMISS:          0
cpu0_L1D WRITE        ACCESS:   10152386  HIT:    9561306  MISS:     591080  iACCESS:          0  iHIT:          0  iMISS:          0  dACCESS:   10152386  dHIT:    9561306  dMISS:     591080  itACCESS:          0  itHIT:          0  itMISS:          0  dtACCESS:          0  dtHIT:          0  dtMISS:          0
cpu0_L1D TRANSLATION  ACCESS:     579947  HIT:      33379  MISS:     546568  iACCESS:          0  iHIT:          0  iMISS:          0  dACCESS:          0  dHIT:          0  dMISS:          0  itACCESS:     133097  itHIT:      14650  itMISS:     118447  dtACCESS:     446850  dtHIT:      18729  dtMISS:     428121
cpu0_L1D PREFETCH  REQUESTED:   20380343  ISSUED:   18516887  CROSSED:          0  USEFUL:     360777  USELESS:     941868
cpu0_L1D AVERAGE iMISS LATENCY: 0 cycles
cpu0_L1D AVERAGE dMISS LATENCY: 49.245 cycles
cpu0_L1D AVERAGE itMISS LATENCY: 3.18279 cycles
cpu0_L1D AVERAGE dtMISS LATENCY: 12.0097 cycles
cpu0_L1D PAGE CROSSINGS (TLB HIT):         0 
cpu0_L1D PAGE CROSSINGS (TLB MISS):         0 
cpu0_L1D AVERAGE MISS LATENCY: 64.4374 cycles
cpu0_L2C TOTAL       ACCESS:    8691260  HIT:    4179993  MISS:    4511267  iACCESS:    3791188  iHIT:    2289641  iMISS:    1501547  dACCESS:    4393764  dHIT:    1828159  dMISS:    2565605  itACCESS:     117863  itHIT:      21647  itMISS:      96216  dtACCESS:     388445  dtHIT:      40546  dtMISS:     347899
cpu0_L2C LOAD         ACCESS:    2074407  HIT:    1005023  MISS:    1069384  iACCESS:     847670  iHIT:     534470  iMISS:     313200  dACCESS:    1226737  dHIT:     470553  dMISS:     756184  itACCESS:          0  itHIT:          0  itMISS:          0  dtACCESS:          0  dtHIT:          0  dtMISS:          0
cpu0_L2C RFO          ACCESS:     216948  HIT:      82871  MISS:     134077  iACCESS:          0  iHIT:          0  iMISS:          0  dACCESS:     216948  dHIT:      82871  dMISS:     134077  itACCESS:          0  itHIT:          0  itMISS:          0  dtACCESS:          0  dtHIT:          0  dtMISS:          0
cpu0_L2C PREFETCH     ACCESS:    5546360  HIT:    2686009  MISS:    2860351  iACCESS:    2943518  iHIT:    1755171  iMISS:    1188347  dACCESS:    2602842  dHIT:     930838  dMISS:    1672004  itACCESS:          0  itHIT:          0  itMISS:          0  dtACCESS:          0  dtHIT:          0  dtMISS:          0
cpu0_L2C WRITE        ACCESS:     347237  HIT:     343897  MISS:       3340  iACCESS:          0  iHIT:          0  iMISS:          0  dACCESS:     347237  dHIT:     343897  dMISS:       3340  itACCESS:          0  itHIT:          0  itMISS:          0  dtACCESS:          0  dtHIT:          0  dtMISS:          0
cpu0_L2C TRANSLATION  ACCESS:     506308  HIT:      62193  MISS:     444115  iACCESS:          0  iHIT:          0  iMISS:          0  dACCESS:          0  dHIT:          0  dMISS:          0  itACCESS:     117863  itHIT:      21647  itMISS:      96216  dtACCESS:     388445  dtHIT:      40546  dtMISS:     347899
cpu0_L2C PREFETCH  REQUESTED:    1543284  ISSUED:    1543280  CROSSED:          0  USEFUL:     359374  USELESS:     330291
cpu0_L2C AVERAGE iMISS LATENCY: 41.3386 cycles
cpu0_L2C AVERAGE dMISS LATENCY: 81.4946 cycles
cpu0_L2C AVERAGE itMISS LATENCY: 3.96644 cycles
cpu0_L2C AVERAGE dtMISS LATENCY: 15.0803 cycles
cpu0_L2C PAGE CROSSINGS (TLB HIT):         0 
cpu0_L2C PAGE CROSSINGS (TLB MISS):         0 
cpu0_L2C AVERAGE MISS LATENCY: 141.88 cycles
LLC TOTAL       ACCESS:    4496735  HIT:    1277103  MISS:    3219632  iACCESS:    1408113  iHIT:     408151  iMISS:     999962  dACCESS:    2644507  dHIT:     828523  dMISS:    1815984  itACCESS:      96216  itHIT:       7089  itMISS:      89127  dtACCESS:     347899  dtHIT:      33340  dtMISS:     314559
LLC LOAD         ACCESS:    1061764  HIT:     318144  MISS:     743620  iACCESS:     311934  iHIT:      97616  iMISS:     214318  dACCESS:     749830  dHIT:     220528  dMISS:     529302  itACCESS:          0  itHIT:          0  itMISS:          0  dtACCESS:          0  dtHIT:          0  dtMISS:          0
LLC RFO          ACCESS:     134075  HIT:      39003  MISS:      95072  iACCESS:          0  iHIT:          0  iMISS:          0  dACCESS:     134075  dHIT:      39003  dMISS:      95072  itACCESS:          0  itHIT:          0  itMISS:          0  dtACCESS:          0  dtHIT:          0  dtMISS:          0
LLC PREFETCH     ACCESS:    2641017  HIT:     674245  MISS:    1966772  iACCESS:    1096179  iHIT:     310535  iMISS:     785644  dACCESS:    1544838  dHIT:     363710  dMISS:    1181128  itACCESS:          0  itHIT:          0  itMISS:          0  dtACCESS:          0  dtHIT:          0  dtMISS:          0
LLC WRITE        ACCESS:     215764  HIT:     205282  MISS:      10482  iACCESS:          0  iHIT:          0  iMISS:          0  dACCESS:     215764  dHIT:     205282  dMISS:      10482  itACCESS:          0  itHIT:          0  itMISS:          0  dtACCESS:          0  dtHIT:          0  dtMISS:          0
LLC TRANSLATION  ACCESS:     444115  HIT:      40429  MISS:     403686  iACCESS:          0  iHIT:          0  iMISS:          0  dACCESS:          0  dHIT:          0  dMISS:          0  itACCESS:      96216  itHIT:       7089  itMISS:      89127  dtACCESS:     347899  dtHIT:      33340  dtMISS:     314559
LLC PREFETCH  REQUESTED:          0  ISSUED:          0  CROSSED:          0  USEFUL:          0  USELESS:          0
LLC AVERAGE iMISS LATENCY: 49.2957 cycles
LLC AVERAGE dMISS LATENCY: 100.306 cycles
LLC AVERAGE itMISS LATENCY: 4.96485 cycles
LLC AVERAGE dtMISS LATENCY: 18.9932 cycles
LLC PAGE CROSSINGS (TLB HIT):         0 
LLC PAGE CROSSINGS (TLB MISS):         0 
LLC AVERAGE MISS LATENCY: 173.559 cycles

PageTableWalker TOTAL       ACCESS:     198529  
PageTableWalker AVERAGE LATENCY: 6.53263 cycles
PageTableWalker TOTAL LATENCY: 1296915 cycles

DRAM Statistics
Channel 0
 RQ ROW_BUFFER_HIT:     662383
  ROW_BUFFER_MISS:    2526345
 AVG DBUS CONGESTED CYCLE:    3.65346
 WQ ROW_BUFFER_HIT:      68701
  ROW_BUFFER_MISS:      60730  FULL:          0

