last_page:0x200000000000000
VMEM_RES_CAP:0x100000
PAGE_SIZE:4096
LOG2_PAGE_SIZE:12
LOG2_PAGE_TABLE_SIZE:9
page_table_levels:5
WARNING: physical memory size is smaller than virtual memory size
FDiP enabled with aggresivity 16

*** ChampSim Multicore Out-of-Order Simulator ***

Warmup Instructions: 50000000
Simulation Instructions: 100000000
Number of CPUs: 1
Small page size: 4096
Large page size: 2097152

CPU 0 Bimodal branch predictor
Basic BTB sets: 1024 ways: 8 indirect buffer size: 4096 RAS size: 64
Instruction page size distrubution: 0
Loading instruction page size distribution from /home/bsc/bsc018186/scratch/itp_asplos25_AE/dump/smt_srv12_ap_srv298_ap_1024i.pdst
Data page size distrubution: 0
Loading data page size distribution from /home/bsc/bsc018186/scratch/itp_asplos25_AE/dump/smt_srv12_ap_srv298_ap_1024i.pdst
cpu0_L2C IP-based stride prefetcher
cpu0_L1D next line prefetcher
cpu0_L1I next line prefetcher
Off-chip DRAM Size: 4 GiB Channels: 1 Width: 64-bit Data Rate: 3200 MT/s
Heartbeat CPU 0 instructions: 10000003 cycles: 2500449 heartbeat IPC: 3.99929 cumulative IPC: 3.99929 (Simulation time: 0 hr 0 min 44 sec) 
Heartbeat CPU 0 instructions: 20000001 cycles: 5000649 heartbeat IPC: 3.99968 cumulative IPC: 3.99949 (Simulation time: 0 hr 1 min 30 sec) 
Heartbeat CPU 0 instructions: 30000001 cycles: 7501397 heartbeat IPC: 3.99881 cumulative IPC: 3.99926 (Simulation time: 0 hr 2 min 17 sec) 
Heartbeat CPU 0 instructions: 40000002 cycles: 10001519 heartbeat IPC: 3.99981 cumulative IPC: 3.9994 (Simulation time: 0 hr 3 min 1 sec) 
Heartbeat CPU 0 instructions: 50000000 cycles: 12501874 heartbeat IPC: 3.99944 cumulative IPC: 3.99941 (Simulation time: 0 hr 3 min 46 sec) 
Warmup finished CPU 0 instructions: 50000000 cycles: 12501875 cumulative IPC: 3.99941 (Simulation time: 0 hr 3 min 46 sec) 

Warmup complete CPU 0 instructions: 50000000 cycles: 12501875 (Simulation time: 0 hr 3 min 46 sec) 

Heartbeat CPU 0 instructions: 60000003 cycles: 39626525 heartbeat IPC: 0.368669 cumulative IPC: 0.368669 (Simulation time: 0 hr 5 min 14 sec) 
Heartbeat CPU 0 instructions: 70000001 cycles: 66375072 heartbeat IPC: 0.373853 cumulative IPC: 0.371243 (Simulation time: 0 hr 6 min 41 sec) 
Heartbeat CPU 0 instructions: 80000001 cycles: 93257011 heartbeat IPC: 0.371997 cumulative IPC: 0.371494 (Simulation time: 0 hr 8 min 6 sec) 
Heartbeat CPU 0 instructions: 90000000 cycles: 117760538 heartbeat IPC: 0.408105 cumulative IPC: 0.380017 (Simulation time: 0 hr 9 min 29 sec) 
Heartbeat CPU 0 instructions: 100000000 cycles: 144176703 heartbeat IPC: 0.378557 cumulative IPC: 0.379724 (Simulation time: 0 hr 10 min 54 sec) 
Heartbeat CPU 0 instructions: 110000003 cycles: 171109921 heartbeat IPC: 0.371289 cumulative IPC: 0.378292 (Simulation time: 0 hr 12 min 20 sec) 
Heartbeat CPU 0 instructions: 120000000 cycles: 197101337 heartbeat IPC: 0.384743 cumulative IPC: 0.3792 (Simulation time: 0 hr 13 min 46 sec) 
Heartbeat CPU 0 instructions: 130000003 cycles: 224956171 heartbeat IPC: 0.359005 cumulative IPC: 0.376552 (Simulation time: 0 hr 15 min 12 sec) 
Heartbeat CPU 0 instructions: 140000000 cycles: 252388233 heartbeat IPC: 0.364537 cumulative IPC: 0.375178 (Simulation time: 0 hr 16 min 40 sec) 
Heartbeat CPU 0 instructions: 150000002 cycles: 280014555 heartbeat IPC: 0.361974 cumulative IPC: 0.373815 (Simulation time: 0 hr 18 min 9 sec) 
Simulation finished CPU 0 instructions: 100000002 cycles: 267512681 cumulative IPC: 0.373815 (Simulation time: 0 hr 18 min 9 sec) 

Simulation complete CPU 0 instructions: 100000002 cycles: 267512681 (Simulation time: 0 hr 18 min 9 sec) 


ChampSim completed all CPUs

Saving instructions large page distribution to /home/bsc/bsc018186/scratch/itp_asplos25_AE/dump/smt_srv12_ap_srv298_ap_1024i.pdst...
Saving data large page distribution to /home/bsc/bsc018186/scratch/itp_asplos25_AE/dump/smt_srv12_ap_srv298_ap_1024i.pdst...
=== Simulation ===
CPU 0 runs /gpfs/projects/bsc18/MN4/bsc18/romol/ChampSim/traces/qualcomm_srv/smt_srv12_ap_srv298_ap_1024i.champsimtrace.xz

Region of Interest Statistics

CPU 0 cumulative IPC: 0.373815 instructions: 100000002 cycles: 267512681
CPU 0 Branch Prediction Accuracy: 75.6528% MPKI: 44.0521 Average ROB Occupancy at Mispredict: 10.7863
Branch type MPKI
BRANCH_DIRECT_JUMP: 1.33331
BRANCH_INDIRECT: 22.7363
BRANCH_CONDITIONAL: 12.9124
BRANCH_DIRECT_CALL: 2.56733
BRANCH_INDIRECT_CALL: 1.0555
BRANCH_RETURN: 3.44725

Instructions large pages: 0
Instructions small pages: 14944
Large page distribution for instructions: 0%

Data large pages: 0
Data small pages: 13231
Large page distribution for data: 0%

cpu0_L1I TOTAL       ACCESS:   39356319  HIT:   30196602  MISS:    9159717  iACCESS:   39356319  iHIT:   30196602  iMISS:    9159717  dACCESS:          0  dHIT:          0  dMISS:          0  itACCESS:          0  itHIT:          0  itMISS:          0  dtACCESS:          0  dtHIT:          0  dtMISS:          0
cpu0_L1I LOAD         ACCESS:   11723247  HIT:    9231784  MISS:    2491463  iACCESS:   11723247  iHIT:    9231784  iMISS:    2491463  dACCESS:          0  dHIT:          0  dMISS:          0  itACCESS:          0  itHIT:          0  itMISS:          0  dtACCESS:          0  dtHIT:          0  dtMISS:          0
cpu0_L1I RFO          ACCESS:          0  HIT:          0  MISS:          0  iACCESS:          0  iHIT:          0  iMISS:          0  dACCESS:          0  dHIT:          0  dMISS:          0  itACCESS:          0  itHIT:          0  itMISS:          0  dtACCESS:          0  dtHIT:          0  dtMISS:          0
cpu0_L1I PREFETCH     ACCESS:   27633072  HIT:   20964818  MISS:    6668254  iACCESS:   27633072  iHIT:   20964818  iMISS:    6668254  dACCESS:          0  dHIT:          0  dMISS:          0  itACCESS:          0  itHIT:          0  itMISS:          0  dtACCESS:          0  dtHIT:          0  dtMISS:          0
cpu0_L1I WRITE        ACCESS:          0  HIT:          0  MISS:          0  iACCESS:          0  iHIT:          0  iMISS:          0  dACCESS:          0  dHIT:          0  dMISS:          0  itACCESS:          0  itHIT:          0  itMISS:          0  dtACCESS:          0  dtHIT:          0  dtMISS:          0
cpu0_L1I TRANSLATION  ACCESS:          0  HIT:          0  MISS:          0  iACCESS:          0  iHIT:          0  iMISS:          0  dACCESS:          0  dHIT:          0  dMISS:          0  itACCESS:          0  itHIT:          0  itMISS:          0  dtACCESS:          0  dtHIT:          0  dtMISS:          0
cpu0_L1I PREFETCH  REQUESTED:   30219145  ISSUED:   30217609  CROSSED:          0  USEFUL:    2193058  USELESS:     756578
cpu0_L1I AVERAGE iMISS LATENCY: 23.47 cycles
cpu0_L1I AVERAGE dMISS LATENCY: 0 cycles
cpu0_L1I AVERAGE itMISS LATENCY: 0 cycles
cpu0_L1I AVERAGE dtMISS LATENCY: 0 cycles
cpu0_L1I PAGE CROSSINGS (TLB HIT):         0 
cpu0_L1I PAGE CROSSINGS (TLB MISS):         0 
cpu0_L1I AVERAGE MISS LATENCY: 23.47 cycles
cpu0_ITLB TOTAL       ACCESS:   33078557  HIT:   30882105  MISS:    2196452  iACCESS:   33078557  iHIT:   30882105  iMISS:    2196452  dACCESS:          0  dHIT:          0  dMISS:          0  itACCESS:          0  itHIT:          0  itMISS:          0  dtACCESS:          0  dtHIT:          0  dtMISS:          0
cpu0_ITLB LOAD         ACCESS:   33078557  HIT:   30882105  MISS:    2196452  iACCESS:   33078557  iHIT:   30882105  iMISS:    2196452  dACCESS:          0  dHIT:          0  dMISS:          0  itACCESS:          0  itHIT:          0  itMISS:          0  dtACCESS:          0  dtHIT:          0  dtMISS:          0
cpu0_ITLB RFO          ACCESS:          0  HIT:          0  MISS:          0  iACCESS:          0  iHIT:          0  iMISS:          0  dACCESS:          0  dHIT:          0  dMISS:          0  itACCESS:          0  itHIT:          0  itMISS:          0  dtACCESS:          0  dtHIT:          0  dtMISS:          0
cpu0_ITLB PREFETCH     ACCESS:          0  HIT:          0  MISS:          0  iACCESS:          0  iHIT:          0  iMISS:          0  dACCESS:          0  dHIT:          0  dMISS:          0  itACCESS:          0  itHIT:          0  itMISS:          0  dtACCESS:          0  dtHIT:          0  dtMISS:          0
cpu0_ITLB WRITE        ACCESS:          0  HIT:          0  MISS:          0  iACCESS:          0  iHIT:          0  iMISS:          0  dACCESS:          0  dHIT:          0  dMISS:          0  itACCESS:          0  itHIT:          0  itMISS:          0  dtACCESS:          0  dtHIT:          0  dtMISS:          0
cpu0_ITLB TRANSLATION  ACCESS:          0  HIT:          0  MISS:          0  iACCESS:          0  iHIT:          0  iMISS:          0  dACCESS:          0  dHIT:          0  dMISS:          0  itACCESS:          0  itHIT:          0  itMISS:          0  dtACCESS:          0  dtHIT:          0  dtMISS:          0
cpu0_ITLB PREFETCH  REQUESTED:          0  ISSUED:          0  CROSSED:          0  USEFUL:     386870  USELESS:      77758
cpu0_ITLB AVERAGE iMISS LATENCY: 7.61067 cycles
cpu0_ITLB AVERAGE dMISS LATENCY: 0 cycles
cpu0_ITLB AVERAGE itMISS LATENCY: 0 cycles
cpu0_ITLB AVERAGE dtMISS LATENCY: 0 cycles
cpu0_ITLB PAGE CROSSINGS (TLB HIT):         0 
cpu0_ITLB PAGE CROSSINGS (TLB MISS):         0 
cpu0_ITLB AVERAGE MISS LATENCY: 7.61067 cycles
cpu0_DTLB TOTAL       ACCESS:   28922375  HIT:   25326164  MISS:    3596211  iACCESS:          0  iHIT:          0  iMISS:          0  dACCESS:   28922375  dHIT:   25326164  dMISS:    3596211  itACCESS:          0  itHIT:          0  itMISS:          0  dtACCESS:          0  dtHIT:          0  dtMISS:          0
cpu0_DTLB LOAD         ACCESS:   28922375  HIT:   25326164  MISS:    3596211  iACCESS:          0  iHIT:          0  iMISS:          0  dACCESS:   28922375  dHIT:   25326164  dMISS:    3596211  itACCESS:          0  itHIT:          0  itMISS:          0  dtACCESS:          0  dtHIT:          0  dtMISS:          0
cpu0_DTLB RFO          ACCESS:          0  HIT:          0  MISS:          0  iACCESS:          0  iHIT:          0  iMISS:          0  dACCESS:          0  dHIT:          0  dMISS:          0  itACCESS:          0  itHIT:          0  itMISS:          0  dtACCESS:          0  dtHIT:          0  dtMISS:          0
cpu0_DTLB PREFETCH     ACCESS:          0  HIT:          0  MISS:          0  iACCESS:          0  iHIT:          0  iMISS:          0  dACCESS:          0  dHIT:          0  dMISS:          0  itACCESS:          0  itHIT:          0  itMISS:          0  dtACCESS:          0  dtHIT:          0  dtMISS:          0
cpu0_DTLB WRITE        ACCESS:          0  HIT:          0  MISS:          0  iACCESS:          0  iHIT:          0  iMISS:          0  dACCESS:          0  dHIT:          0  dMISS:          0  itACCESS:          0  itHIT:          0  itMISS:          0  dtACCESS:          0  dtHIT:          0  dtMISS:          0
cpu0_DTLB TRANSLATION  ACCESS:          0  HIT:          0  MISS:          0  iACCESS:          0  iHIT:          0  iMISS:          0  dACCESS:          0  dHIT:          0  dMISS:          0  itACCESS:          0  itHIT:          0  itMISS:          0  dtACCESS:          0  dtHIT:          0  dtMISS:          0
cpu0_DTLB PREFETCH  REQUESTED:          0  ISSUED:          0  CROSSED:          0  USEFUL:          0  USELESS:          0
cpu0_DTLB AVERAGE iMISS LATENCY: 0 cycles
cpu0_DTLB AVERAGE dMISS LATENCY: 16.4208 cycles
cpu0_DTLB AVERAGE itMISS LATENCY: 0 cycles
cpu0_DTLB AVERAGE dtMISS LATENCY: 0 cycles
cpu0_DTLB PAGE CROSSINGS (TLB HIT):         0 
cpu0_DTLB PAGE CROSSINGS (TLB MISS):         0 
cpu0_DTLB AVERAGE MISS LATENCY: 16.4208 cycles
cpu0_STLB TOTAL       ACCESS:    2560067  HIT:    2205568  MISS:     354499  iACCESS:     464641  iHIT:     356014  iMISS:     108627  dACCESS:    2095426  dHIT:    1849554  dMISS:     245872  itACCESS:          0  itHIT:          0  itMISS:          0  dtACCESS:          0  dtHIT:          0  dtMISS:          0
cpu0_STLB LOAD         ACCESS:    2560067  HIT:    2205568  MISS:     354499  iACCESS:     464641  iHIT:     356014  iMISS:     108627  dACCESS:    2095426  dHIT:    1849554  dMISS:     245872  itACCESS:          0  itHIT:          0  itMISS:          0  dtACCESS:          0  dtHIT:          0  dtMISS:          0
cpu0_STLB RFO          ACCESS:          0  HIT:          0  MISS:          0  iACCESS:          0  iHIT:          0  iMISS:          0  dACCESS:          0  dHIT:          0  dMISS:          0  itACCESS:          0  itHIT:          0  itMISS:          0  dtACCESS:          0  dtHIT:          0  dtMISS:          0
cpu0_STLB PREFETCH     ACCESS:          0  HIT:          0  MISS:          0  iACCESS:          0  iHIT:          0  iMISS:          0  dACCESS:          0  dHIT:          0  dMISS:          0  itACCESS:          0  itHIT:          0  itMISS:          0  dtACCESS:          0  dtHIT:          0  dtMISS:          0
cpu0_STLB WRITE        ACCESS:          0  HIT:          0  MISS:          0  iACCESS:          0  iHIT:          0  iMISS:          0  dACCESS:          0  dHIT:          0  dMISS:          0  itACCESS:          0  itHIT:          0  itMISS:          0  dtACCESS:          0  dtHIT:          0  dtMISS:          0
cpu0_STLB TRANSLATION  ACCESS:          0  HIT:          0  MISS:          0  iACCESS:          0  iHIT:          0  iMISS:          0  dACCESS:          0  dHIT:          0  dMISS:          0  itACCESS:          0  itHIT:          0  itMISS:          0  dtACCESS:          0  dtHIT:          0  dtMISS:          0
cpu0_STLB PREFETCH  REQUESTED:          0  ISSUED:          0  CROSSED:          0  USEFUL:          0  USELESS:          0
cpu0_STLB AVERAGE iMISS LATENCY: 36.6974 cycles
cpu0_STLB AVERAGE dMISS LATENCY: 119.104 cycles
cpu0_STLB AVERAGE itMISS LATENCY: 0 cycles
cpu0_STLB AVERAGE dtMISS LATENCY: 0 cycles
cpu0_STLB PAGE CROSSINGS (TLB HIT):         0 
cpu0_STLB PAGE CROSSINGS (TLB MISS):         0 
cpu0_STLB AVERAGE MISS LATENCY: 155.801 cycles
cpu0_L1D TOTAL       ACCESS:   44564587  HIT:   39212522  MISS:    5352065  iACCESS:          0  iHIT:          0  iMISS:          0  dACCESS:   44035540  dHIT:   39178387  dMISS:    4857153  itACCESS:     122258  itHIT:      15041  itMISS:     107217  dtACCESS:     406789  dtHIT:      19094  dtMISS:     387695
cpu0_L1D LOAD         ACCESS:   20112734  HIT:   17949355  MISS:    2163379  iACCESS:          0  iHIT:          0  iMISS:          0  dACCESS:   20112734  dHIT:   17949355  dMISS:    2163379  itACCESS:          0  itHIT:          0  itMISS:          0  dtACCESS:          0  dtHIT:          0  dtMISS:          0
cpu0_L1D RFO          ACCESS:          0  HIT:          0  MISS:          0  iACCESS:          0  iHIT:          0  iMISS:          0  dACCESS:          0  dHIT:          0  dMISS:          0  itACCESS:          0  itHIT:          0  itMISS:          0  dtACCESS:          0  dtHIT:          0  dtMISS:          0
cpu0_L1D PREFETCH     ACCESS:   13736811  HIT:   11601109  MISS:    2135702  iACCESS:          0  iHIT:          0  iMISS:          0  dACCESS:   13736811  dHIT:   11601109  dMISS:    2135702  itACCESS:          0  itHIT:          0  itMISS:          0  dtACCESS:          0  dtHIT:          0  dtMISS:          0
cpu0_L1D WRITE        ACCESS:   10185995  HIT:    9627923  MISS:     558072  iACCESS:          0  iHIT:          0  iMISS:          0  dACCESS:   10185995  dHIT:    9627923  dMISS:     558072  itACCESS:          0  itHIT:          0  itMISS:          0  dtACCESS:          0  dtHIT:          0  dtMISS:          0
cpu0_L1D TRANSLATION  ACCESS:     529047  HIT:      34135  MISS:     494912  iACCESS:          0  iHIT:          0  iMISS:          0  dACCESS:          0  dHIT:          0  dMISS:          0  itACCESS:     122258  itHIT:      15041  itMISS:     107217  dtACCESS:     406789  dtHIT:      19094  dtMISS:     387695
cpu0_L1D PREFETCH  REQUESTED:   20112734  ISSUED:   18432114  CROSSED:          0  USEFUL:     361018  USELESS:     924691
cpu0_L1D AVERAGE iMISS LATENCY: 0 cycles
cpu0_L1D AVERAGE dMISS LATENCY: 50.9794 cycles
cpu0_L1D AVERAGE itMISS LATENCY: 2.22504 cycles
cpu0_L1D AVERAGE dtMISS LATENCY: 6.89702 cycles
cpu0_L1D PAGE CROSSINGS (TLB HIT):         0 
cpu0_L1D PAGE CROSSINGS (TLB MISS):         0 
cpu0_L1D AVERAGE MISS LATENCY: 60.1015 cycles
cpu0_L2C TOTAL       ACCESS:    8506019  HIT:    1553739  MISS:    6952280  iACCESS:    3748916  iHIT:     810771  iMISS:    2938145  dACCESS:    4295473  dHIT:     554603  dMISS:    3740870  itACCESS:     106605  itHIT:      37417  itMISS:      69188  dtACCESS:     355025  dtHIT:     150948  dtMISS:     204077
cpu0_L2C LOAD         ACCESS:    2032279  HIT:     220982  MISS:    1811297  iACCESS:     836035  iHIT:     119563  iMISS:     716472  dACCESS:    1196244  dHIT:     101419  dMISS:    1094825  itACCESS:          0  itHIT:          0  itMISS:          0  dtACCESS:          0  dtHIT:          0  dtMISS:          0
cpu0_L2C RFO          ACCESS:     208433  HIT:      30064  MISS:     178369  iACCESS:          0  iHIT:          0  iMISS:          0  dACCESS:     208433  dHIT:      30064  dMISS:     178369  itACCESS:          0  itHIT:          0  itMISS:          0  dtACCESS:          0  dtHIT:          0  dtMISS:          0
cpu0_L2C PREFETCH     ACCESS:    5459965  HIT:    1009980  MISS:    4449985  iACCESS:    2912881  iHIT:     691208  iMISS:    2221673  dACCESS:    2547084  dHIT:     318772  dMISS:    2228312  itACCESS:          0  itHIT:          0  itMISS:          0  dtACCESS:          0  dtHIT:          0  dtMISS:          0
cpu0_L2C WRITE        ACCESS:     343712  HIT:     104348  MISS:     239364  iACCESS:          0  iHIT:          0  iMISS:          0  dACCESS:     343712  dHIT:     104348  dMISS:     239364  itACCESS:          0  itHIT:          0  itMISS:          0  dtACCESS:          0  dtHIT:          0  dtMISS:          0
cpu0_L2C TRANSLATION  ACCESS:     461630  HIT:     188365  MISS:     273265  iACCESS:          0  iHIT:          0  iMISS:          0  dACCESS:          0  dHIT:          0  dMISS:          0  itACCESS:     106605  itHIT:      37417  itMISS:      69188  dtACCESS:     355025  dtHIT:     150948  dtMISS:     204077
cpu0_L2C PREFETCH  REQUESTED:    1500526  ISSUED:    1500526  CROSSED:          0  USEFUL:     409061  USELESS:     483684
cpu0_L2C AVERAGE iMISS LATENCY: 26.2519 cycles
cpu0_L2C AVERAGE dMISS LATENCY: 48.5061 cycles
cpu0_L2C AVERAGE itMISS LATENCY: 1.56457 cycles
cpu0_L2C AVERAGE dtMISS LATENCY: 4.81841 cycles
cpu0_L2C PAGE CROSSINGS (TLB HIT):         0 
cpu0_L2C PAGE CROSSINGS (TLB MISS):         0 
cpu0_L2C AVERAGE MISS LATENCY: 81.141 cycles
LLC TOTAL       ACCESS:    6767754  HIT:    4195117  MISS:    2572637  iACCESS:    2846077  iHIT:    2031860  iMISS:     814217  dACCESS:    3648412  dHIT:    2098078  dMISS:    1550334  itACCESS:      69188  itHIT:      15999  itMISS:      53189  dtACCESS:     204077  dtHIT:      49180  dtMISS:     154897
LLC LOAD         ACCESS:    1805864  HIT:    1191067  MISS:     614797  iACCESS:     715034  iHIT:     545662  iMISS:     169372  dACCESS:    1090830  dHIT:     645405  dMISS:     445425  itACCESS:          0  itHIT:          0  itMISS:          0  dtACCESS:          0  dtHIT:          0  dtMISS:          0
LLC RFO          ACCESS:     178364  HIT:      93993  MISS:      84371  iACCESS:          0  iHIT:          0  iMISS:          0  dACCESS:     178364  dHIT:      93993  dMISS:      84371  itACCESS:          0  itHIT:          0  itMISS:          0  dtACCESS:          0  dtHIT:          0  dtMISS:          0
LLC PREFETCH     ACCESS:    4243349  HIT:    2585151  MISS:    1658198  iACCESS:    2131043  iHIT:    1486198  iMISS:     644845  dACCESS:    2112306  dHIT:    1098953  dMISS:    1013353  itACCESS:          0  itHIT:          0  itMISS:          0  dtACCESS:          0  dtHIT:          0  dtMISS:          0
LLC WRITE        ACCESS:     266912  HIT:     259727  MISS:       7185  iACCESS:          0  iHIT:          0  iMISS:          0  dACCESS:     266912  dHIT:     259727  dMISS:       7185  itACCESS:          0  itHIT:          0  itMISS:          0  dtACCESS:          0  dtHIT:          0  dtMISS:          0
LLC TRANSLATION  ACCESS:     273265  HIT:      65179  MISS:     208086  iACCESS:          0  iHIT:          0  iMISS:          0  dACCESS:          0  dHIT:          0  dMISS:          0  itACCESS:      69188  itHIT:      15999  itMISS:      53189  dtACCESS:     204077  dtHIT:      49180  dtMISS:     154897
LLC PREFETCH  REQUESTED:          0  ISSUED:          0  CROSSED:          0  USEFUL:          0  USELESS:          0
LLC AVERAGE iMISS LATENCY: 49.4653 cycles
LLC AVERAGE dMISS LATENCY: 106.141 cycles
LLC AVERAGE itMISS LATENCY: 3.69828 cycles
LLC AVERAGE dtMISS LATENCY: 11.4594 cycles
LLC PAGE CROSSINGS (TLB HIT):         0 
LLC PAGE CROSSINGS (TLB MISS):         0 
LLC AVERAGE MISS LATENCY: 170.764 cycles

PageTableWalker TOTAL       ACCESS:     174058  
PageTableWalker AVERAGE LATENCY: 5.90163 cycles
PageTableWalker TOTAL LATENCY: 1027225 cycles

DRAM Statistics
Channel 0
 RQ ROW_BUFFER_HIT:     592315
  ROW_BUFFER_MISS:    1963025
 AVG DBUS CONGESTED CYCLE:    3.65285
 WQ ROW_BUFFER_HIT:      62214
  ROW_BUFFER_MISS:      57012  FULL:          0

