last_page:0x200000000000000
VMEM_RES_CAP:0x100000
PAGE_SIZE:4096
LOG2_PAGE_SIZE:12
LOG2_PAGE_TABLE_SIZE:9
page_table_levels:5
WARNING: physical memory size is smaller than virtual memory size
FDiP enabled with aggresivity 16

*** ChampSim Multicore Out-of-Order Simulator ***

Warmup Instructions: 50000000
Simulation Instructions: 100000000
Number of CPUs: 1
Small page size: 4096
Large page size: 2097152

CPU 0 Bimodal branch predictor
Basic BTB sets: 1024 ways: 8 indirect buffer size: 4096 RAS size: 64
Instruction page size distrubution: 0
Loading instruction page size distribution from /home/bsc/bsc018186/scratch/itp_asplos25_AE/dump/smt_srv12_ap_srv697_ap_1024i.pdst
Data page size distrubution: 0
Loading data page size distribution from /home/bsc/bsc018186/scratch/itp_asplos25_AE/dump/smt_srv12_ap_srv697_ap_1024i.pdst
cpu0_L2C IP-based stride prefetcher
cpu0_L1D next line prefetcher
cpu0_L1I next line prefetcher
Off-chip DRAM Size: 4 GiB Channels: 1 Width: 64-bit Data Rate: 3200 MT/s
Heartbeat CPU 0 instructions: 10000001 cycles: 2500435 heartbeat IPC: 3.99931 cumulative IPC: 3.99931 (Simulation time: 0 hr 0 min 41 sec) 
Heartbeat CPU 0 instructions: 20000002 cycles: 5000548 heartbeat IPC: 3.99982 cumulative IPC: 3.99957 (Simulation time: 0 hr 1 min 29 sec) 
Heartbeat CPU 0 instructions: 30000002 cycles: 7501012 heartbeat IPC: 3.99926 cumulative IPC: 3.99947 (Simulation time: 0 hr 2 min 18 sec) 
Heartbeat CPU 0 instructions: 40000001 cycles: 10001331 heartbeat IPC: 3.99949 cumulative IPC: 3.99947 (Simulation time: 0 hr 3 min 7 sec) 
Heartbeat CPU 0 instructions: 50000003 cycles: 12501907 heartbeat IPC: 3.99908 cumulative IPC: 3.9994 (Simulation time: 0 hr 3 min 57 sec) 
Warmup finished CPU 0 instructions: 50000003 cycles: 12501908 cumulative IPC: 3.99939 (Simulation time: 0 hr 3 min 57 sec) 

Warmup complete CPU 0 instructions: 50000003 cycles: 12501908 (Simulation time: 0 hr 3 min 57 sec) 

Heartbeat CPU 0 instructions: 60000003 cycles: 43327309 heartbeat IPC: 0.324408 cumulative IPC: 0.324408 (Simulation time: 0 hr 5 min 39 sec) 
Heartbeat CPU 0 instructions: 70000002 cycles: 72131293 heartbeat IPC: 0.347175 cumulative IPC: 0.335406 (Simulation time: 0 hr 7 min 19 sec) 
Heartbeat CPU 0 instructions: 80000001 cycles: 102415666 heartbeat IPC: 0.330204 cumulative IPC: 0.333654 (Simulation time: 0 hr 8 min 57 sec) 
Heartbeat CPU 0 instructions: 90000000 cycles: 128579287 heartbeat IPC: 0.382211 cumulative IPC: 0.344598 (Simulation time: 0 hr 10 min 27 sec) 
Heartbeat CPU 0 instructions: 100000000 cycles: 157501403 heartbeat IPC: 0.345757 cumulative IPC: 0.344829 (Simulation time: 0 hr 12 min 5 sec) 
Heartbeat CPU 0 instructions: 110000002 cycles: 186671109 heartbeat IPC: 0.342822 cumulative IPC: 0.344493 (Simulation time: 0 hr 13 min 44 sec) 
Heartbeat CPU 0 instructions: 120000001 cycles: 215560513 heartbeat IPC: 0.346148 cumulative IPC: 0.344729 (Simulation time: 0 hr 15 min 23 sec) 
Heartbeat CPU 0 instructions: 130000004 cycles: 245386997 heartbeat IPC: 0.335273 cumulative IPC: 0.343518 (Simulation time: 0 hr 17 min 3 sec) 
Heartbeat CPU 0 instructions: 140000000 cycles: 274309614 heartbeat IPC: 0.345751 cumulative IPC: 0.343764 (Simulation time: 0 hr 18 min 44 sec) 
Heartbeat CPU 0 instructions: 150000002 cycles: 304340627 heartbeat IPC: 0.33299 cumulative IPC: 0.342656 (Simulation time: 0 hr 20 min 25 sec) 
Simulation finished CPU 0 instructions: 100000004 cycles: 291838721 cumulative IPC: 0.342656 (Simulation time: 0 hr 20 min 25 sec) 

Simulation complete CPU 0 instructions: 100000004 cycles: 291838721 (Simulation time: 0 hr 20 min 25 sec) 


ChampSim completed all CPUs

Saving instructions large page distribution to /home/bsc/bsc018186/scratch/itp_asplos25_AE/dump/smt_srv12_ap_srv697_ap_1024i.pdst...
Saving data large page distribution to /home/bsc/bsc018186/scratch/itp_asplos25_AE/dump/smt_srv12_ap_srv697_ap_1024i.pdst...
=== Simulation ===
CPU 0 runs /gpfs/projects/bsc18/MN4/bsc18/romol/ChampSim/traces/qualcomm_srv/smt_srv12_ap_srv697_ap_1024i.champsimtrace.xz

Region of Interest Statistics

CPU 0 cumulative IPC: 0.342656 instructions: 100000004 cycles: 291838721
CPU 0 Branch Prediction Accuracy: 75.5756% MPKI: 44.1382 Average ROB Occupancy at Mispredict: 11.2015
Branch type MPKI
BRANCH_DIRECT_JUMP: 1.35221
BRANCH_INDIRECT: 22.6826
BRANCH_CONDITIONAL: 13.0083
BRANCH_DIRECT_CALL: 2.59577
BRANCH_INDIRECT_CALL: 1.04259
BRANCH_RETURN: 3.45672

Instructions large pages: 0
Instructions small pages: 14672
Large page distribution for instructions: 0%

Data large pages: 0
Data small pages: 12955
Large page distribution for data: 0%

cpu0_L1I TOTAL       ACCESS:   38994418  HIT:   30401313  MISS:    8593105  iACCESS:   38994418  iHIT:   30401313  iMISS:    8593105  dACCESS:          0  dHIT:          0  dMISS:          0  itACCESS:          0  itHIT:          0  itMISS:          0  dtACCESS:          0  dtHIT:          0  dtMISS:          0
cpu0_L1I LOAD         ACCESS:   11651988  HIT:    9312551  MISS:    2339437  iACCESS:   11651988  iHIT:    9312551  iMISS:    2339437  dACCESS:          0  dHIT:          0  dMISS:          0  itACCESS:          0  itHIT:          0  itMISS:          0  dtACCESS:          0  dtHIT:          0  dtMISS:          0
cpu0_L1I RFO          ACCESS:          0  HIT:          0  MISS:          0  iACCESS:          0  iHIT:          0  iMISS:          0  dACCESS:          0  dHIT:          0  dMISS:          0  itACCESS:          0  itHIT:          0  itMISS:          0  dtACCESS:          0  dtHIT:          0  dtMISS:          0
cpu0_L1I PREFETCH     ACCESS:   27342430  HIT:   21088762  MISS:    6253668  iACCESS:   27342430  iHIT:   21088762  iMISS:    6253668  dACCESS:          0  dHIT:          0  dMISS:          0  itACCESS:          0  itHIT:          0  itMISS:          0  dtACCESS:          0  dtHIT:          0  dtMISS:          0
cpu0_L1I WRITE        ACCESS:          0  HIT:          0  MISS:          0  iACCESS:          0  iHIT:          0  iMISS:          0  dACCESS:          0  dHIT:          0  dMISS:          0  itACCESS:          0  itHIT:          0  itMISS:          0  dtACCESS:          0  dtHIT:          0  dtMISS:          0
cpu0_L1I TRANSLATION  ACCESS:          0  HIT:          0  MISS:          0  iACCESS:          0  iHIT:          0  iMISS:          0  dACCESS:          0  dHIT:          0  dMISS:          0  itACCESS:          0  itHIT:          0  itMISS:          0  dtACCESS:          0  dtHIT:          0  dtMISS:          0
cpu0_L1I PREFETCH  REQUESTED:   30154538  ISSUED:   30154515  CROSSED:          0  USEFUL:    2185888  USELESS:     754269
cpu0_L1I AVERAGE iMISS LATENCY: 23.9647 cycles
cpu0_L1I AVERAGE dMISS LATENCY: 0 cycles
cpu0_L1I AVERAGE itMISS LATENCY: 0 cycles
cpu0_L1I AVERAGE dtMISS LATENCY: 0 cycles
cpu0_L1I PAGE CROSSINGS (TLB HIT):         0 
cpu0_L1I PAGE CROSSINGS (TLB MISS):         0 
cpu0_L1I AVERAGE MISS LATENCY: 23.9647 cycles
cpu0_ITLB TOTAL       ACCESS:   32986648  HIT:   30795915  MISS:    2190733  iACCESS:   32986648  iHIT:   30795915  iMISS:    2190733  dACCESS:          0  dHIT:          0  dMISS:          0  itACCESS:          0  itHIT:          0  itMISS:          0  dtACCESS:          0  dtHIT:          0  dtMISS:          0
cpu0_ITLB LOAD         ACCESS:   32986648  HIT:   30795915  MISS:    2190733  iACCESS:   32986648  iHIT:   30795915  iMISS:    2190733  dACCESS:          0  dHIT:          0  dMISS:          0  itACCESS:          0  itHIT:          0  itMISS:          0  dtACCESS:          0  dtHIT:          0  dtMISS:          0
cpu0_ITLB RFO          ACCESS:          0  HIT:          0  MISS:          0  iACCESS:          0  iHIT:          0  iMISS:          0  dACCESS:          0  dHIT:          0  dMISS:          0  itACCESS:          0  itHIT:          0  itMISS:          0  dtACCESS:          0  dtHIT:          0  dtMISS:          0
cpu0_ITLB PREFETCH     ACCESS:          0  HIT:          0  MISS:          0  iACCESS:          0  iHIT:          0  iMISS:          0  dACCESS:          0  dHIT:          0  dMISS:          0  itACCESS:          0  itHIT:          0  itMISS:          0  dtACCESS:          0  dtHIT:          0  dtMISS:          0
cpu0_ITLB WRITE        ACCESS:          0  HIT:          0  MISS:          0  iACCESS:          0  iHIT:          0  iMISS:          0  dACCESS:          0  dHIT:          0  dMISS:          0  itACCESS:          0  itHIT:          0  itMISS:          0  dtACCESS:          0  dtHIT:          0  dtMISS:          0
cpu0_ITLB TRANSLATION  ACCESS:          0  HIT:          0  MISS:          0  iACCESS:          0  iHIT:          0  iMISS:          0  dACCESS:          0  dHIT:          0  dMISS:          0  itACCESS:          0  itHIT:          0  itMISS:          0  dtACCESS:          0  dtHIT:          0  dtMISS:          0
cpu0_ITLB PREFETCH  REQUESTED:          0  ISSUED:          0  CROSSED:          0  USEFUL:     385399  USELESS:      77459
cpu0_ITLB AVERAGE iMISS LATENCY: 10.1699 cycles
cpu0_ITLB AVERAGE dMISS LATENCY: 0 cycles
cpu0_ITLB AVERAGE itMISS LATENCY: 0 cycles
cpu0_ITLB AVERAGE dtMISS LATENCY: 0 cycles
cpu0_ITLB PAGE CROSSINGS (TLB HIT):         0 
cpu0_ITLB PAGE CROSSINGS (TLB MISS):         0 
cpu0_ITLB AVERAGE MISS LATENCY: 10.1699 cycles
cpu0_DTLB TOTAL       ACCESS:   28863912  HIT:   25252095  MISS:    3611817  iACCESS:          0  iHIT:          0  iMISS:          0  dACCESS:   28863912  dHIT:   25252095  dMISS:    3611817  itACCESS:          0  itHIT:          0  itMISS:          0  dtACCESS:          0  dtHIT:          0  dtMISS:          0
cpu0_DTLB LOAD         ACCESS:   28863912  HIT:   25252095  MISS:    3611817  iACCESS:          0  iHIT:          0  iMISS:          0  dACCESS:   28863912  dHIT:   25252095  dMISS:    3611817  itACCESS:          0  itHIT:          0  itMISS:          0  dtACCESS:          0  dtHIT:          0  dtMISS:          0
cpu0_DTLB RFO          ACCESS:          0  HIT:          0  MISS:          0  iACCESS:          0  iHIT:          0  iMISS:          0  dACCESS:          0  dHIT:          0  dMISS:          0  itACCESS:          0  itHIT:          0  itMISS:          0  dtACCESS:          0  dtHIT:          0  dtMISS:          0
cpu0_DTLB PREFETCH     ACCESS:          0  HIT:          0  MISS:          0  iACCESS:          0  iHIT:          0  iMISS:          0  dACCESS:          0  dHIT:          0  dMISS:          0  itACCESS:          0  itHIT:          0  itMISS:          0  dtACCESS:          0  dtHIT:          0  dtMISS:          0
cpu0_DTLB WRITE        ACCESS:          0  HIT:          0  MISS:          0  iACCESS:          0  iHIT:          0  iMISS:          0  dACCESS:          0  dHIT:          0  dMISS:          0  itACCESS:          0  itHIT:          0  itMISS:          0  dtACCESS:          0  dtHIT:          0  dtMISS:          0
cpu0_DTLB TRANSLATION  ACCESS:          0  HIT:          0  MISS:          0  iACCESS:          0  iHIT:          0  iMISS:          0  dACCESS:          0  dHIT:          0  dMISS:          0  itACCESS:          0  itHIT:          0  itMISS:          0  dtACCESS:          0  dtHIT:          0  dtMISS:          0
cpu0_DTLB PREFETCH  REQUESTED:          0  ISSUED:          0  CROSSED:          0  USEFUL:          0  USELESS:          0
cpu0_DTLB AVERAGE iMISS LATENCY: 0 cycles
cpu0_DTLB AVERAGE dMISS LATENCY: 24.2233 cycles
cpu0_DTLB AVERAGE itMISS LATENCY: 0 cycles
cpu0_DTLB AVERAGE dtMISS LATENCY: 0 cycles
cpu0_DTLB PAGE CROSSINGS (TLB HIT):         0 
cpu0_DTLB PAGE CROSSINGS (TLB MISS):         0 
cpu0_DTLB AVERAGE MISS LATENCY: 24.2233 cycles
cpu0_STLB TOTAL       ACCESS:    2566178  HIT:    2209014  MISS:     357164  iACCESS:     462866  iHIT:     353395  iMISS:     109471  dACCESS:    2103312  dHIT:    1855619  dMISS:     247693  itACCESS:          0  itHIT:          0  itMISS:          0  dtACCESS:          0  dtHIT:          0  dtMISS:          0
cpu0_STLB LOAD         ACCESS:    2566178  HIT:    2209014  MISS:     357164  iACCESS:     462866  iHIT:     353395  iMISS:     109471  dACCESS:    2103312  dHIT:    1855619  dMISS:     247693  itACCESS:          0  itHIT:          0  itMISS:          0  dtACCESS:          0  dtHIT:          0  dtMISS:          0
cpu0_STLB RFO          ACCESS:          0  HIT:          0  MISS:          0  iACCESS:          0  iHIT:          0  iMISS:          0  dACCESS:          0  dHIT:          0  dMISS:          0  itACCESS:          0  itHIT:          0  itMISS:          0  dtACCESS:          0  dtHIT:          0  dtMISS:          0
cpu0_STLB PREFETCH     ACCESS:          0  HIT:          0  MISS:          0  iACCESS:          0  iHIT:          0  iMISS:          0  dACCESS:          0  dHIT:          0  dMISS:          0  itACCESS:          0  itHIT:          0  itMISS:          0  dtACCESS:          0  dtHIT:          0  dtMISS:          0
cpu0_STLB WRITE        ACCESS:          0  HIT:          0  MISS:          0  iACCESS:          0  iHIT:          0  iMISS:          0  dACCESS:          0  dHIT:          0  dMISS:          0  itACCESS:          0  itHIT:          0  itMISS:          0  dtACCESS:          0  dtHIT:          0  dtMISS:          0
cpu0_STLB TRANSLATION  ACCESS:          0  HIT:          0  MISS:          0  iACCESS:          0  iHIT:          0  iMISS:          0  dACCESS:          0  dHIT:          0  dMISS:          0  itACCESS:          0  itHIT:          0  itMISS:          0  dtACCESS:          0  dtHIT:          0  dtMISS:          0
cpu0_STLB PREFETCH  REQUESTED:          0  ISSUED:          0  CROSSED:          0  USEFUL:          0  USELESS:          0
cpu0_STLB AVERAGE iMISS LATENCY: 52.022 cycles
cpu0_STLB AVERAGE dMISS LATENCY: 197.582 cycles
cpu0_STLB AVERAGE itMISS LATENCY: 0 cycles
cpu0_STLB AVERAGE dtMISS LATENCY: 0 cycles
cpu0_STLB PAGE CROSSINGS (TLB HIT):         0 
cpu0_STLB PAGE CROSSINGS (TLB MISS):         0 
cpu0_STLB AVERAGE MISS LATENCY: 249.604 cycles
cpu0_L1D TOTAL       ACCESS:   44396140  HIT:   39179227  MISS:    5216913  iACCESS:          0  iHIT:          0  iMISS:          0  dACCESS:   43865873  dHIT:   39144962  dMISS:    4720911  itACCESS:     123133  itHIT:      15111  itMISS:     108022  dtACCESS:     407134  dtHIT:      19154  dtMISS:     387980
cpu0_L1D LOAD         ACCESS:   20054488  HIT:   17949259  MISS:    2105229  iACCESS:          0  iHIT:          0  iMISS:          0  dACCESS:   20054488  dHIT:   17949259  dMISS:    2105229  itACCESS:          0  itHIT:          0  itMISS:          0  dtACCESS:          0  dtHIT:          0  dtMISS:          0
cpu0_L1D RFO          ACCESS:          0  HIT:          0  MISS:          0  iACCESS:          0  iHIT:          0  iMISS:          0  dACCESS:          0  dHIT:          0  dMISS:          0  itACCESS:          0  itHIT:          0  itMISS:          0  dtACCESS:          0  dtHIT:          0  dtMISS:          0
cpu0_L1D PREFETCH     ACCESS:   13654066  HIT:   11587834  MISS:    2066232  iACCESS:          0  iHIT:          0  iMISS:          0  dACCESS:   13654066  dHIT:   11587834  dMISS:    2066232  itACCESS:          0  itHIT:          0  itMISS:          0  dtACCESS:          0  dtHIT:          0  dtMISS:          0
cpu0_L1D WRITE        ACCESS:   10157319  HIT:    9607869  MISS:     549450  iACCESS:          0  iHIT:          0  iMISS:          0  dACCESS:   10157319  dHIT:    9607869  dMISS:     549450  itACCESS:          0  itHIT:          0  itMISS:          0  dtACCESS:          0  dtHIT:          0  dtMISS:          0
cpu0_L1D TRANSLATION  ACCESS:     530267  HIT:      34265  MISS:     496002  iACCESS:          0  iHIT:          0  iMISS:          0  dACCESS:          0  dHIT:          0  dMISS:          0  itACCESS:     123133  itHIT:      15111  itMISS:     108022  dtACCESS:     407134  dtHIT:      19154  dtMISS:     387980
cpu0_L1D PREFETCH  REQUESTED:   20054488  ISSUED:   18388261  CROSSED:          0  USEFUL:     359336  USELESS:     923696
cpu0_L1D AVERAGE iMISS LATENCY: 0 cycles
cpu0_L1D AVERAGE dMISS LATENCY: 51.762 cycles
cpu0_L1D AVERAGE itMISS LATENCY: 3.35035 cycles
cpu0_L1D AVERAGE dtMISS LATENCY: 12.4902 cycles
cpu0_L1D PAGE CROSSINGS (TLB HIT):         0 
cpu0_L1D PAGE CROSSINGS (TLB MISS):         0 
cpu0_L1D AVERAGE MISS LATENCY: 67.6024 cycles
cpu0_L2C TOTAL       ACCESS:    8484835  HIT:    4162681  MISS:    4322154  iACCESS:    3737105  iHIT:    2273220  iMISS:    1463885  dACCESS:    4282634  dHIT:    1833652  dMISS:    2448982  itACCESS:     107374  itHIT:      18740  itMISS:      88634  dtACCESS:     357722  dtHIT:      37069  dtMISS:     320653
cpu0_L2C LOAD         ACCESS:    2025443  HIT:    1006937  MISS:    1018506  iACCESS:     835372  iHIT:     531290  iMISS:     304082  dACCESS:    1190071  dHIT:     475647  dMISS:     714424  itACCESS:          0  itHIT:          0  itMISS:          0  dtACCESS:          0  dtHIT:          0  dtMISS:          0
cpu0_L2C RFO          ACCESS:     207969  HIT:      80537  MISS:     127432  iACCESS:          0  iHIT:          0  iMISS:          0  dACCESS:     207969  dHIT:      80537  dMISS:     127432  itACCESS:          0  itHIT:          0  itMISS:          0  dtACCESS:          0  dtHIT:          0  dtMISS:          0
cpu0_L2C PREFETCH     ACCESS:    5445899  HIT:    2683205  MISS:    2762694  iACCESS:    2901733  iHIT:    1741930  iMISS:    1159803  dACCESS:    2544166  dHIT:     941275  dMISS:    1602891  itACCESS:          0  itHIT:          0  itMISS:          0  dtACCESS:          0  dtHIT:          0  dtMISS:          0
cpu0_L2C WRITE        ACCESS:     340428  HIT:     336193  MISS:       4235  iACCESS:          0  iHIT:          0  iMISS:          0  dACCESS:     340428  dHIT:     336193  dMISS:       4235  itACCESS:          0  itHIT:          0  itMISS:          0  dtACCESS:          0  dtHIT:          0  dtMISS:          0
cpu0_L2C TRANSLATION  ACCESS:     465096  HIT:      55809  MISS:     409287  iACCESS:          0  iHIT:          0  iMISS:          0  dACCESS:          0  dHIT:          0  dMISS:          0  itACCESS:     107374  itHIT:      18740  itMISS:      88634  dtACCESS:     357722  dtHIT:      37069  dtMISS:     320653
cpu0_L2C PREFETCH  REQUESTED:    1501008  ISSUED:    1501006  CROSSED:          0  USEFUL:     357760  USELESS:     320826
cpu0_L2C AVERAGE iMISS LATENCY: 40.2654 cycles
cpu0_L2C AVERAGE dMISS LATENCY: 78.0061 cycles
cpu0_L2C AVERAGE itMISS LATENCY: 3.79913 cycles
cpu0_L2C AVERAGE dtMISS LATENCY: 14.252 cycles
cpu0_L2C PAGE CROSSINGS (TLB HIT):         0 
cpu0_L2C PAGE CROSSINGS (TLB MISS):         0 
cpu0_L2C AVERAGE MISS LATENCY: 136.323 cycles
LLC TOTAL       ACCESS:    4321681  HIT:    1357532  MISS:    2964149  iACCESS:    1373943  iHIT:     443735  iMISS:     930208  dACCESS:    2538451  dHIT:     872828  dMISS:    1665623  itACCESS:      88634  itHIT:       6434  itMISS:      82200  dtACCESS:     320653  dtHIT:      34535  dtMISS:     286118
LLC LOAD         ACCESS:    1014019  HIT:     339243  MISS:     674776  iACCESS:     302882  iHIT:     106027  iMISS:     196855  dACCESS:     711137  dHIT:     233216  dMISS:     477921  itACCESS:          0  itHIT:          0  itMISS:          0  dtACCESS:          0  dtHIT:          0  dtMISS:          0
LLC RFO          ACCESS:     127427  HIT:      40037  MISS:      87390  iACCESS:          0  iHIT:          0  iMISS:          0  dACCESS:     127427  dHIT:      40037  dMISS:      87390  itACCESS:          0  itHIT:          0  itMISS:          0  dtACCESS:          0  dtHIT:          0  dtMISS:          0
LLC PREFETCH     ACCESS:    2562156  HIT:     739323  MISS:    1822833  iACCESS:    1071061  iHIT:     337708  iMISS:     733353  dACCESS:    1491095  dHIT:     401615  dMISS:    1089480  itACCESS:          0  itHIT:          0  itMISS:          0  dtACCESS:          0  dtHIT:          0  dtMISS:          0
LLC WRITE        ACCESS:     208792  HIT:     197960  MISS:      10832  iACCESS:          0  iHIT:          0  iMISS:          0  dACCESS:     208792  dHIT:     197960  dMISS:      10832  itACCESS:          0  itHIT:          0  itMISS:          0  dtACCESS:          0  dtHIT:          0  dtMISS:          0
LLC TRANSLATION  ACCESS:     409287  HIT:      40969  MISS:     368318  iACCESS:          0  iHIT:          0  iMISS:          0  dACCESS:          0  dHIT:          0  dMISS:          0  itACCESS:      88634  itHIT:       6434  itMISS:      82200  dtACCESS:     320653  dtHIT:      34535  dtMISS:     286118
LLC PREFETCH  REQUESTED:          0  ISSUED:          0  CROSSED:          0  USEFUL:          0  USELESS:          0
LLC AVERAGE iMISS LATENCY: 49.5814 cycles
LLC AVERAGE dMISS LATENCY: 98.8744 cycles
LLC AVERAGE itMISS LATENCY: 4.94674 cycles
LLC AVERAGE dtMISS LATENCY: 18.6434 cycles
LLC PAGE CROSSINGS (TLB HIT):         0 
LLC PAGE CROSSINGS (TLB MISS):         0 
LLC AVERAGE MISS LATENCY: 172.046 cycles

PageTableWalker TOTAL       ACCESS:     174562  
PageTableWalker AVERAGE LATENCY: 6.56363 cycles
PageTableWalker TOTAL LATENCY: 1145760 cycles

DRAM Statistics
Channel 0
 RQ ROW_BUFFER_HIT:     625667
  ROW_BUFFER_MISS:    2318028
 AVG DBUS CONGESTED CYCLE:    3.64638
 WQ ROW_BUFFER_HIT:      62941
  ROW_BUFFER_MISS:      54447  FULL:          0

