last_page:0x200000000000000
VMEM_RES_CAP:0x100000
PAGE_SIZE:4096
LOG2_PAGE_SIZE:12
LOG2_PAGE_TABLE_SIZE:9
page_table_levels:5
WARNING: physical memory size is smaller than virtual memory size
FDiP enabled with aggresivity 16

*** ChampSim Multicore Out-of-Order Simulator ***

Warmup Instructions: 50000000
Simulation Instructions: 100000000
Number of CPUs: 1
Small page size: 4096
Large page size: 2097152

CPU 0 Bimodal branch predictor
Basic BTB sets: 1024 ways: 8 indirect buffer size: 4096 RAS size: 64
Instruction page size distrubution: 0
Loading instruction page size distribution from /home/bsc/bsc018186/scratch/itp_asplos25_AE/dump/smt_srv537_ap_srv526_ap_1024i.pdst
Data page size distrubution: 0
Loading data page size distribution from /home/bsc/bsc018186/scratch/itp_asplos25_AE/dump/smt_srv537_ap_srv526_ap_1024i.pdst
cpu0_L2C IP-based stride prefetcher
cpu0_L2C is using PTP replacement policy:
	TLB_STRESS_THRESHOLD:0
	PTE_EVICTION_RATIO:0
cpu0_L1D next line prefetcher
CHiRPing...
cpu0_L1I next line prefetcher
Off-chip DRAM Size: 4 GiB Channels: 1 Width: 64-bit Data Rate: 3200 MT/s
Heartbeat CPU 0 instructions: 10000003 cycles: 2500697 heartbeat IPC: 3.99889 cumulative IPC: 3.99889 (Simulation time: 0 hr 0 min 36 sec) 
Heartbeat CPU 0 instructions: 20000000 cycles: 5001072 heartbeat IPC: 3.9994 cumulative IPC: 3.99915 (Simulation time: 0 hr 1 min 14 sec) 
Heartbeat CPU 0 instructions: 30000003 cycles: 7584023 heartbeat IPC: 3.87155 cumulative IPC: 3.95569 (Simulation time: 0 hr 1 min 53 sec) 
Heartbeat CPU 0 instructions: 40000001 cycles: 10127944 heartbeat IPC: 3.93094 cumulative IPC: 3.94947 (Simulation time: 0 hr 2 min 33 sec) 
Heartbeat CPU 0 instructions: 50000003 cycles: 12653951 heartbeat IPC: 3.95882 cumulative IPC: 3.95134 (Simulation time: 0 hr 3 min 13 sec) 
Warmup finished CPU 0 instructions: 50000003 cycles: 12653952 cumulative IPC: 3.95134 (Simulation time: 0 hr 3 min 13 sec) 

Warmup complete CPU 0 instructions: 50000003 cycles: 12653952 (Simulation time: 0 hr 3 min 13 sec) 

Heartbeat CPU 0 instructions: 60000003 cycles: 41384260 heartbeat IPC: 0.348065 cumulative IPC: 0.348065 (Simulation time: 0 hr 4 min 33 sec) 
Heartbeat CPU 0 instructions: 70000004 cycles: 71730049 heartbeat IPC: 0.329536 cumulative IPC: 0.338547 (Simulation time: 0 hr 5 min 55 sec) 
Heartbeat CPU 0 instructions: 80000003 cycles: 101118685 heartbeat IPC: 0.340268 cumulative IPC: 0.339119 (Simulation time: 0 hr 7 min 16 sec) 
Heartbeat CPU 0 instructions: 90000000 cycles: 129680720 heartbeat IPC: 0.350116 cumulative IPC: 0.341803 (Simulation time: 0 hr 8 min 35 sec) 
Heartbeat CPU 0 instructions: 100000003 cycles: 159065572 heartbeat IPC: 0.340312 cumulative IPC: 0.341503 (Simulation time: 0 hr 9 min 56 sec) 
Heartbeat CPU 0 instructions: 110000000 cycles: 189993361 heartbeat IPC: 0.323334 cumulative IPC: 0.338335 (Simulation time: 0 hr 11 min 19 sec) 
Heartbeat CPU 0 instructions: 120000000 cycles: 218880738 heartbeat IPC: 0.346172 cumulative IPC: 0.339433 (Simulation time: 0 hr 12 min 40 sec) 
Heartbeat CPU 0 instructions: 130000002 cycles: 247457644 heartbeat IPC: 0.349933 cumulative IPC: 0.340711 (Simulation time: 0 hr 14 min 0 sec) 
Heartbeat CPU 0 instructions: 140000003 cycles: 277179368 heartbeat IPC: 0.336455 cumulative IPC: 0.340232 (Simulation time: 0 hr 15 min 21 sec) 
Heartbeat CPU 0 instructions: 150000002 cycles: 307995630 heartbeat IPC: 0.324504 cumulative IPC: 0.338591 (Simulation time: 0 hr 16 min 45 sec) 
Simulation finished CPU 0 instructions: 100000004 cycles: 295341680 cumulative IPC: 0.338591 (Simulation time: 0 hr 16 min 45 sec) 

Simulation complete CPU 0 instructions: 100000004 cycles: 295341680 (Simulation time: 0 hr 16 min 45 sec) 


ChampSim completed all CPUs

Saving instructions large page distribution to /home/bsc/bsc018186/scratch/itp_asplos25_AE/dump/smt_srv537_ap_srv526_ap_1024i.pdst...
Saving data large page distribution to /home/bsc/bsc018186/scratch/itp_asplos25_AE/dump/smt_srv537_ap_srv526_ap_1024i.pdst...
=== Simulation ===
CPU 0 runs /gpfs/projects/bsc18/MN4/bsc18/romol/ChampSim/traces/qualcomm_srv/smt_srv537_ap_srv526_ap_1024i.champsimtrace.xz

Region of Interest Statistics

CPU 0 cumulative IPC: 0.338591 instructions: 100000004 cycles: 295341680
CPU 0 Branch Prediction Accuracy: 75.7102% MPKI: 43.8363 Average ROB Occupancy at Mispredict: 10.8648
Branch type MPKI
BRANCH_DIRECT_JUMP: 1.42956
BRANCH_INDIRECT: 22.5855
BRANCH_CONDITIONAL: 12.6334
BRANCH_DIRECT_CALL: 2.6387
BRANCH_INDIRECT_CALL: 0.99801
BRANCH_RETURN: 3.55119

Instructions large pages: 0
Instructions small pages: 13979
Large page distribution for instructions: 0%

Data large pages: 0
Data small pages: 12573
Large page distribution for data: 0%

cpu0_L1I TOTAL       ACCESS:   38901006  HIT:   30156055  MISS:    8744951  iACCESS:   38901006  iHIT:   30156055  iMISS:    8744951  dACCESS:          0  dHIT:          0  dMISS:          0  itACCESS:          0  itHIT:          0  itMISS:          0  dtACCESS:          0  dtHIT:          0  dtMISS:          0
cpu0_L1I LOAD         ACCESS:   11591046  HIT:    9193040  MISS:    2398006  iACCESS:   11591046  iHIT:    9193040  iMISS:    2398006  dACCESS:          0  dHIT:          0  dMISS:          0  itACCESS:          0  itHIT:          0  itMISS:          0  dtACCESS:          0  dtHIT:          0  dtMISS:          0
cpu0_L1I RFO          ACCESS:          0  HIT:          0  MISS:          0  iACCESS:          0  iHIT:          0  iMISS:          0  dACCESS:          0  dHIT:          0  dMISS:          0  itACCESS:          0  itHIT:          0  itMISS:          0  dtACCESS:          0  dtHIT:          0  dtMISS:          0
cpu0_L1I PREFETCH     ACCESS:   27309960  HIT:   20963015  MISS:    6346945  iACCESS:   27309960  iHIT:   20963015  iMISS:    6346945  dACCESS:          0  dHIT:          0  dMISS:          0  itACCESS:          0  itHIT:          0  itMISS:          0  dtACCESS:          0  dtHIT:          0  dtMISS:          0
cpu0_L1I WRITE        ACCESS:          0  HIT:          0  MISS:          0  iACCESS:          0  iHIT:          0  iMISS:          0  dACCESS:          0  dHIT:          0  dMISS:          0  itACCESS:          0  itHIT:          0  itMISS:          0  dtACCESS:          0  dtHIT:          0  dtMISS:          0
cpu0_L1I TRANSLATION  ACCESS:          0  HIT:          0  MISS:          0  iACCESS:          0  iHIT:          0  iMISS:          0  dACCESS:          0  dHIT:          0  dMISS:          0  itACCESS:          0  itHIT:          0  itMISS:          0  dtACCESS:          0  dtHIT:          0  dtMISS:          0
cpu0_L1I PREFETCH  REQUESTED:   30086116  ISSUED:   30085675  CROSSED:          0  USEFUL:    2201289  USELESS:     768506
cpu0_L1I AVERAGE iMISS LATENCY: 23.9719 cycles
cpu0_L1I AVERAGE dMISS LATENCY: 0 cycles
cpu0_L1I AVERAGE itMISS LATENCY: 0 cycles
cpu0_L1I AVERAGE dtMISS LATENCY: 0 cycles
cpu0_L1I PAGE CROSSINGS (TLB HIT):         0 
cpu0_L1I PAGE CROSSINGS (TLB MISS):         0 
cpu0_L1I AVERAGE MISS LATENCY: 23.9719 cycles
cpu0_ITLB TOTAL       ACCESS:   32962721  HIT:   30686507  MISS:    2276214  iACCESS:   32962721  iHIT:   30686507  iMISS:    2276214  dACCESS:          0  dHIT:          0  dMISS:          0  itACCESS:          0  itHIT:          0  itMISS:          0  dtACCESS:          0  dtHIT:          0  dtMISS:          0
cpu0_ITLB LOAD         ACCESS:   32962721  HIT:   30686507  MISS:    2276214  iACCESS:   32962721  iHIT:   30686507  iMISS:    2276214  dACCESS:          0  dHIT:          0  dMISS:          0  itACCESS:          0  itHIT:          0  itMISS:          0  dtACCESS:          0  dtHIT:          0  dtMISS:          0
cpu0_ITLB RFO          ACCESS:          0  HIT:          0  MISS:          0  iACCESS:          0  iHIT:          0  iMISS:          0  dACCESS:          0  dHIT:          0  dMISS:          0  itACCESS:          0  itHIT:          0  itMISS:          0  dtACCESS:          0  dtHIT:          0  dtMISS:          0
cpu0_ITLB PREFETCH     ACCESS:          0  HIT:          0  MISS:          0  iACCESS:          0  iHIT:          0  iMISS:          0  dACCESS:          0  dHIT:          0  dMISS:          0  itACCESS:          0  itHIT:          0  itMISS:          0  dtACCESS:          0  dtHIT:          0  dtMISS:          0
cpu0_ITLB WRITE        ACCESS:          0  HIT:          0  MISS:          0  iACCESS:          0  iHIT:          0  iMISS:          0  dACCESS:          0  dHIT:          0  dMISS:          0  itACCESS:          0  itHIT:          0  itMISS:          0  dtACCESS:          0  dtHIT:          0  dtMISS:          0
cpu0_ITLB TRANSLATION  ACCESS:          0  HIT:          0  MISS:          0  iACCESS:          0  iHIT:          0  iMISS:          0  dACCESS:          0  dHIT:          0  dMISS:          0  itACCESS:          0  itHIT:          0  itMISS:          0  dtACCESS:          0  dtHIT:          0  dtMISS:          0
cpu0_ITLB PREFETCH  REQUESTED:          0  ISSUED:          0  CROSSED:          0  USEFUL:     394816  USELESS:      84077
cpu0_ITLB AVERAGE iMISS LATENCY: 10.3344 cycles
cpu0_ITLB AVERAGE dMISS LATENCY: 0 cycles
cpu0_ITLB AVERAGE itMISS LATENCY: 0 cycles
cpu0_ITLB AVERAGE dtMISS LATENCY: 0 cycles
cpu0_ITLB PAGE CROSSINGS (TLB HIT):         0 
cpu0_ITLB PAGE CROSSINGS (TLB MISS):         0 
cpu0_ITLB AVERAGE MISS LATENCY: 10.3344 cycles
cpu0_DTLB TOTAL       ACCESS:   28882882  HIT:   25440316  MISS:    3442566  iACCESS:          0  iHIT:          0  iMISS:          0  dACCESS:   28882882  dHIT:   25440316  dMISS:    3442566  itACCESS:          0  itHIT:          0  itMISS:          0  dtACCESS:          0  dtHIT:          0  dtMISS:          0
cpu0_DTLB LOAD         ACCESS:   28882882  HIT:   25440316  MISS:    3442566  iACCESS:          0  iHIT:          0  iMISS:          0  dACCESS:   28882882  dHIT:   25440316  dMISS:    3442566  itACCESS:          0  itHIT:          0  itMISS:          0  dtACCESS:          0  dtHIT:          0  dtMISS:          0
cpu0_DTLB RFO          ACCESS:          0  HIT:          0  MISS:          0  iACCESS:          0  iHIT:          0  iMISS:          0  dACCESS:          0  dHIT:          0  dMISS:          0  itACCESS:          0  itHIT:          0  itMISS:          0  dtACCESS:          0  dtHIT:          0  dtMISS:          0
cpu0_DTLB PREFETCH     ACCESS:          0  HIT:          0  MISS:          0  iACCESS:          0  iHIT:          0  iMISS:          0  dACCESS:          0  dHIT:          0  dMISS:          0  itACCESS:          0  itHIT:          0  itMISS:          0  dtACCESS:          0  dtHIT:          0  dtMISS:          0
cpu0_DTLB WRITE        ACCESS:          0  HIT:          0  MISS:          0  iACCESS:          0  iHIT:          0  iMISS:          0  dACCESS:          0  dHIT:          0  dMISS:          0  itACCESS:          0  itHIT:          0  itMISS:          0  dtACCESS:          0  dtHIT:          0  dtMISS:          0
cpu0_DTLB TRANSLATION  ACCESS:          0  HIT:          0  MISS:          0  iACCESS:          0  iHIT:          0  iMISS:          0  dACCESS:          0  dHIT:          0  dMISS:          0  itACCESS:          0  itHIT:          0  itMISS:          0  dtACCESS:          0  dtHIT:          0  dtMISS:          0
cpu0_DTLB PREFETCH  REQUESTED:          0  ISSUED:          0  CROSSED:          0  USEFUL:          0  USELESS:          0
cpu0_DTLB AVERAGE iMISS LATENCY: 0 cycles
cpu0_DTLB AVERAGE dMISS LATENCY: 25.2047 cycles
cpu0_DTLB AVERAGE itMISS LATENCY: 0 cycles
cpu0_DTLB AVERAGE dtMISS LATENCY: 0 cycles
cpu0_DTLB PAGE CROSSINGS (TLB HIT):         0 
cpu0_DTLB PAGE CROSSINGS (TLB MISS):         0 
cpu0_DTLB AVERAGE MISS LATENCY: 25.2047 cycles
cpu0_STLB TOTAL       ACCESS:    2434273  HIT:    2063847  MISS:     370426  iACCESS:     478900  iHIT:     359269  iMISS:     119631  dACCESS:    1955373  dHIT:    1704578  dMISS:     250795  itACCESS:          0  itHIT:          0  itMISS:          0  dtACCESS:          0  dtHIT:          0  dtMISS:          0
cpu0_STLB LOAD         ACCESS:    2434273  HIT:    2063847  MISS:     370426  iACCESS:     478900  iHIT:     359269  iMISS:     119631  dACCESS:    1955373  dHIT:    1704578  dMISS:     250795  itACCESS:          0  itHIT:          0  itMISS:          0  dtACCESS:          0  dtHIT:          0  dtMISS:          0
cpu0_STLB RFO          ACCESS:          0  HIT:          0  MISS:          0  iACCESS:          0  iHIT:          0  iMISS:          0  dACCESS:          0  dHIT:          0  dMISS:          0  itACCESS:          0  itHIT:          0  itMISS:          0  dtACCESS:          0  dtHIT:          0  dtMISS:          0
cpu0_STLB PREFETCH     ACCESS:          0  HIT:          0  MISS:          0  iACCESS:          0  iHIT:          0  iMISS:          0  dACCESS:          0  dHIT:          0  dMISS:          0  itACCESS:          0  itHIT:          0  itMISS:          0  dtACCESS:          0  dtHIT:          0  dtMISS:          0
cpu0_STLB WRITE        ACCESS:          0  HIT:          0  MISS:          0  iACCESS:          0  iHIT:          0  iMISS:          0  dACCESS:          0  dHIT:          0  dMISS:          0  itACCESS:          0  itHIT:          0  itMISS:          0  dtACCESS:          0  dtHIT:          0  dtMISS:          0
cpu0_STLB TRANSLATION  ACCESS:          0  HIT:          0  MISS:          0  iACCESS:          0  iHIT:          0  iMISS:          0  dACCESS:          0  dHIT:          0  dMISS:          0  itACCESS:          0  itHIT:          0  itMISS:          0  dtACCESS:          0  dtHIT:          0  dtMISS:          0
cpu0_STLB PREFETCH  REQUESTED:          0  ISSUED:          0  CROSSED:          0  USEFUL:          0  USELESS:          0
cpu0_STLB AVERAGE iMISS LATENCY: 53.1525 cycles
cpu0_STLB AVERAGE dMISS LATENCY: 191.797 cycles
cpu0_STLB AVERAGE itMISS LATENCY: 0 cycles
cpu0_STLB AVERAGE dtMISS LATENCY: 0 cycles
cpu0_STLB PAGE CROSSINGS (TLB HIT):         0 
cpu0_STLB PAGE CROSSINGS (TLB MISS):         0 
cpu0_STLB AVERAGE MISS LATENCY: 244.949 cycles
cpu0_L1D TOTAL       ACCESS:   44666904  HIT:   39254101  MISS:    5412803  iACCESS:          0  iHIT:          0  iMISS:          0  dACCESS:   44118691  dHIT:   39219307  dMISS:    4899384  itACCESS:     132481  itHIT:      15463  itMISS:     117018  dtACCESS:     415732  dtHIT:      19331  dtMISS:     396401
cpu0_L1D LOAD         ACCESS:   20076964  HIT:   17898122  MISS:    2178842  iACCESS:          0  iHIT:          0  iMISS:          0  dACCESS:   20076964  dHIT:   17898122  dMISS:    2178842  itACCESS:          0  itHIT:          0  itMISS:          0  dtACCESS:          0  dtHIT:          0  dtMISS:          0
cpu0_L1D RFO          ACCESS:          0  HIT:          0  MISS:          0  iACCESS:          0  iHIT:          0  iMISS:          0  dACCESS:          0  dHIT:          0  dMISS:          0  itACCESS:          0  itHIT:          0  itMISS:          0  dtACCESS:          0  dtHIT:          0  dtMISS:          0
cpu0_L1D PREFETCH     ACCESS:   13788180  HIT:   11637109  MISS:    2151071  iACCESS:          0  iHIT:          0  iMISS:          0  dACCESS:   13788180  dHIT:   11637109  dMISS:    2151071  itACCESS:          0  itHIT:          0  itMISS:          0  dtACCESS:          0  dtHIT:          0  dtMISS:          0
cpu0_L1D WRITE        ACCESS:   10253547  HIT:    9684076  MISS:     569471  iACCESS:          0  iHIT:          0  iMISS:          0  dACCESS:   10253547  dHIT:    9684076  dMISS:     569471  itACCESS:          0  itHIT:          0  itMISS:          0  dtACCESS:          0  dtHIT:          0  dtMISS:          0
cpu0_L1D TRANSLATION  ACCESS:     548213  HIT:      34794  MISS:     513419  iACCESS:          0  iHIT:          0  iMISS:          0  dACCESS:          0  dHIT:          0  dMISS:          0  itACCESS:     132481  itHIT:      15463  itMISS:     117018  dtACCESS:     415732  dtHIT:      19331  dtMISS:     396401
cpu0_L1D PREFETCH  REQUESTED:   20076964  ISSUED:   18356799  CROSSED:          0  USEFUL:     365630  USELESS:     915726
cpu0_L1D AVERAGE iMISS LATENCY: 0 cycles
cpu0_L1D AVERAGE dMISS LATENCY: 50.9717 cycles
cpu0_L1D AVERAGE itMISS LATENCY: 3.43198 cycles
cpu0_L1D AVERAGE dtMISS LATENCY: 12.1043 cycles
cpu0_L1D PAGE CROSSINGS (TLB HIT):         0 
cpu0_L1D PAGE CROSSINGS (TLB MISS):         0 
cpu0_L1D AVERAGE MISS LATENCY: 66.508 cycles
cpu0_L2C TOTAL       ACCESS:    8549622  HIT:    4055800  MISS:    4493822  iACCESS:    3790070  iHIT:    2246070  iMISS:    1544000  dACCESS:    4280531  dHIT:    1748880  dMISS:    2531651  itACCESS:     116937  itHIT:      20673  itMISS:      96264  dtACCESS:     362084  dtHIT:      40177  dtMISS:     321907
cpu0_L2C LOAD         ACCESS:    2058415  HIT:     983281  MISS:    1075134  iACCESS:     856123  iHIT:     528626  iMISS:     327497  dACCESS:    1202292  dHIT:     454655  dMISS:     747637  itACCESS:          0  itHIT:          0  itMISS:          0  dtACCESS:          0  dtHIT:          0  dtMISS:          0
cpu0_L2C RFO          ACCESS:     218896  HIT:      78202  MISS:     140694  iACCESS:          0  iHIT:          0  iMISS:          0  dACCESS:     218896  dHIT:      78202  dMISS:     140694  itACCESS:          0  itHIT:          0  itMISS:          0  dtACCESS:          0  dtHIT:          0  dtMISS:          0
cpu0_L2C PREFETCH     ACCESS:    5445619  HIT:    2602115  MISS:    2843504  iACCESS:    2933947  iHIT:    1717444  iMISS:    1216503  dACCESS:    2511672  dHIT:     884671  dMISS:    1627001  itACCESS:          0  itHIT:          0  itMISS:          0  dtACCESS:          0  dtHIT:          0  dtMISS:          0
cpu0_L2C WRITE        ACCESS:     347671  HIT:     331352  MISS:      16319  iACCESS:          0  iHIT:          0  iMISS:          0  dACCESS:     347671  dHIT:     331352  dMISS:      16319  itACCESS:          0  itHIT:          0  itMISS:          0  dtACCESS:          0  dtHIT:          0  dtMISS:          0
cpu0_L2C TRANSLATION  ACCESS:     479021  HIT:      60850  MISS:     418171  iACCESS:          0  iHIT:          0  iMISS:          0  dACCESS:          0  dHIT:          0  dMISS:          0  itACCESS:     116937  itHIT:      20673  itMISS:      96264  dtACCESS:     362084  dtHIT:      40177  dtMISS:     321907
cpu0_L2C PREFETCH  REQUESTED:    1463221  ISSUED:    1463221  CROSSED:          0  USEFUL:     346559  USELESS:     323302
cpu0_L2C AVERAGE iMISS LATENCY: 39.5064 cycles
cpu0_L2C AVERAGE dMISS LATENCY: 76.1085 cycles
cpu0_L2C AVERAGE itMISS LATENCY: 3.87747 cycles
cpu0_L2C AVERAGE dtMISS LATENCY: 13.7782 cycles
cpu0_L2C PAGE CROSSINGS (TLB HIT):         0 
cpu0_L2C PAGE CROSSINGS (TLB MISS):         0 
cpu0_L2C AVERAGE MISS LATENCY: 133.271 cycles
LLC TOTAL       ACCESS:    4484053  HIT:    1465293  MISS:    3018760  iACCESS:    1454283  iHIT:     505438  iMISS:     948845  dACCESS:    2611599  dHIT:     916796  dMISS:    1694803  itACCESS:      96264  itHIT:       9280  itMISS:      86984  dtACCESS:     321907  dtHIT:      33779  dtMISS:     288128
LLC LOAD         ACCESS:    1069824  HIT:     373752  MISS:     696072  iACCESS:     326338  iHIT:     122901  iMISS:     203437  dACCESS:     743486  dHIT:     250851  dMISS:     492635  itACCESS:          0  itHIT:          0  itMISS:          0  dtACCESS:          0  dtHIT:          0  dtMISS:          0
LLC RFO          ACCESS:     140691  HIT:      45039  MISS:      95652  iACCESS:          0  iHIT:          0  iMISS:          0  dACCESS:     140691  dHIT:      45039  dMISS:      95652  itACCESS:          0  itHIT:          0  itMISS:          0  dtACCESS:          0  dtHIT:          0  dtMISS:          0
LLC PREFETCH     ACCESS:    2639370  HIT:     797304  MISS:    1842066  iACCESS:    1127945  iHIT:     382537  iMISS:     745408  dACCESS:    1511425  dHIT:     414767  dMISS:    1096658  itACCESS:          0  itHIT:          0  itMISS:          0  dtACCESS:          0  dtHIT:          0  dtMISS:          0
LLC WRITE        ACCESS:     215997  HIT:     206139  MISS:       9858  iACCESS:          0  iHIT:          0  iMISS:          0  dACCESS:     215997  dHIT:     206139  dMISS:       9858  itACCESS:          0  itHIT:          0  itMISS:          0  dtACCESS:          0  dtHIT:          0  dtMISS:          0
LLC TRANSLATION  ACCESS:     418171  HIT:      43059  MISS:     375112  iACCESS:          0  iHIT:          0  iMISS:          0  dACCESS:          0  dHIT:          0  dMISS:          0  itACCESS:      96264  itHIT:       9280  itMISS:      86984  dtACCESS:     321907  dtHIT:      33779  dtMISS:     288128
LLC PREFETCH  REQUESTED:          0  ISSUED:          0  CROSSED:          0  USEFUL:          0  USELESS:          0
LLC AVERAGE iMISS LATENCY: 49.336 cycles
LLC AVERAGE dMISS LATENCY: 98.3008 cycles
LLC AVERAGE itMISS LATENCY: 5.14021 cycles
LLC AVERAGE dtMISS LATENCY: 18.4027 cycles
LLC PAGE CROSSINGS (TLB HIT):         0 
LLC PAGE CROSSINGS (TLB MISS):         0 
LLC AVERAGE MISS LATENCY: 171.18 cycles

PageTableWalker TOTAL       ACCESS:     133652  
PageTableWalker AVERAGE LATENCY: 6.41781 cycles
PageTableWalker TOTAL LATENCY: 857753 cycles

DRAM Statistics
Channel 0
 RQ ROW_BUFFER_HIT:     653401
  ROW_BUFFER_MISS:    2345254
 AVG DBUS CONGESTED CYCLE:    3.64963
 WQ ROW_BUFFER_HIT:      64122
  ROW_BUFFER_MISS:      57770  FULL:          0

