last_page:0x200000000000000
VMEM_RES_CAP:0x100000
PAGE_SIZE:4096
LOG2_PAGE_SIZE:12
LOG2_PAGE_TABLE_SIZE:9
page_table_levels:5
WARNING: physical memory size is smaller than virtual memory size
FDiP enabled with aggresivity 16

*** ChampSim Multicore Out-of-Order Simulator ***

Warmup Instructions: 50000000
Simulation Instructions: 100000000
Number of CPUs: 1
Small page size: 4096
Large page size: 2097152

CPU 0 Bimodal branch predictor
Basic BTB sets: 1024 ways: 8 indirect buffer size: 4096 RAS size: 64
Instruction page size distrubution: 0
Loading instruction page size distribution from /home/bsc/bsc018186/scratch/itp_asplos25_AE/dump/smt_srv537_ap_srv73_ap_1024i.pdst
Data page size distrubution: 0
Loading data page size distribution from /home/bsc/bsc018186/scratch/itp_asplos25_AE/dump/smt_srv537_ap_srv73_ap_1024i.pdst
cpu0_L2C IP-based stride prefetcher
cpu0_L1D next line prefetcher
cpu0_STLB using iTP with max lru@8
cpu0_STLB using iTP with instr@0 and data@2
Init sat counter with 3 bits (max:50).
cpu0_L1I next line prefetcher
Off-chip DRAM Size: 4 GiB Channels: 1 Width: 64-bit Data Rate: 3200 MT/s
Heartbeat CPU 0 instructions: 10000002 cycles: 2500575 heartbeat IPC: 3.99909 cumulative IPC: 3.99909 (Simulation time: 0 hr 0 min 36 sec) 
Heartbeat CPU 0 instructions: 20000001 cycles: 5000859 heartbeat IPC: 3.99955 cumulative IPC: 3.99932 (Simulation time: 0 hr 1 min 15 sec) 
Heartbeat CPU 0 instructions: 30000003 cycles: 7500991 heartbeat IPC: 3.99979 cumulative IPC: 3.99948 (Simulation time: 0 hr 1 min 53 sec) 
Heartbeat CPU 0 instructions: 40000003 cycles: 10001228 heartbeat IPC: 3.99963 cumulative IPC: 3.99951 (Simulation time: 0 hr 2 min 32 sec) 
Heartbeat CPU 0 instructions: 50000003 cycles: 12502291 heartbeat IPC: 3.9983 cumulative IPC: 3.99927 (Simulation time: 0 hr 3 min 12 sec) 
Warmup finished CPU 0 instructions: 50000003 cycles: 12502292 cumulative IPC: 3.99927 (Simulation time: 0 hr 3 min 12 sec) 

Warmup complete CPU 0 instructions: 50000003 cycles: 12502292 (Simulation time: 0 hr 3 min 12 sec) 

Heartbeat CPU 0 instructions: 60000004 cycles: 35841436 heartbeat IPC: 0.428465 cumulative IPC: 0.428465 (Simulation time: 0 hr 4 min 25 sec) 
Heartbeat CPU 0 instructions: 70000000 cycles: 56977556 heartbeat IPC: 0.473124 cumulative IPC: 0.449689 (Simulation time: 0 hr 5 min 34 sec) 
Heartbeat CPU 0 instructions: 80000003 cycles: 78474174 heartbeat IPC: 0.46519 cumulative IPC: 0.45474 (Simulation time: 0 hr 6 min 44 sec) 
Heartbeat CPU 0 instructions: 90000000 cycles: 106162572 heartbeat IPC: 0.361162 cumulative IPC: 0.427076 (Simulation time: 0 hr 8 min 2 sec) 
Heartbeat CPU 0 instructions: 100000003 cycles: 135123917 heartbeat IPC: 0.345288 cumulative IPC: 0.407759 (Simulation time: 0 hr 9 min 24 sec) 
Heartbeat CPU 0 instructions: 110000002 cycles: 164599202 heartbeat IPC: 0.339268 cumulative IPC: 0.394486 (Simulation time: 0 hr 10 min 47 sec) 
Heartbeat CPU 0 instructions: 120000001 cycles: 191732505 heartbeat IPC: 0.368551 cumulative IPC: 0.39056 (Simulation time: 0 hr 12 min 6 sec) 
Heartbeat CPU 0 instructions: 130000000 cycles: 207947562 heartbeat IPC: 0.616711 cumulative IPC: 0.409322 (Simulation time: 0 hr 13 min 16 sec) 
Heartbeat CPU 0 instructions: 140000003 cycles: 227839833 heartbeat IPC: 0.502708 cumulative IPC: 0.417949 (Simulation time: 0 hr 14 min 28 sec) 
Heartbeat CPU 0 instructions: 150000002 cycles: 256178826 heartbeat IPC: 0.352871 cumulative IPC: 0.410381 (Simulation time: 0 hr 15 min 50 sec) 
Simulation finished CPU 0 instructions: 100000004 cycles: 243676536 cumulative IPC: 0.410381 (Simulation time: 0 hr 15 min 50 sec) 

Simulation complete CPU 0 instructions: 100000004 cycles: 243676536 (Simulation time: 0 hr 15 min 50 sec) 


ChampSim completed all CPUs

Saving instructions large page distribution to /home/bsc/bsc018186/scratch/itp_asplos25_AE/dump/smt_srv537_ap_srv73_ap_1024i.pdst...
Saving data large page distribution to /home/bsc/bsc018186/scratch/itp_asplos25_AE/dump/smt_srv537_ap_srv73_ap_1024i.pdst...
=== Simulation ===
CPU 0 runs /gpfs/projects/bsc18/MN4/bsc18/romol/ChampSim/traces/qualcomm_srv/smt_srv537_ap_srv73_ap_1024i.champsimtrace.xz

Region of Interest Statistics

CPU 0 cumulative IPC: 0.410381 instructions: 100000004 cycles: 243676536
CPU 0 Branch Prediction Accuracy: 78.0605% MPKI: 42.6412 Average ROB Occupancy at Mispredict: 11.1357
Branch type MPKI
BRANCH_DIRECT_JUMP: 1.087
BRANCH_INDIRECT: 22.7445
BRANCH_CONDITIONAL: 12.2037
BRANCH_DIRECT_CALL: 2.01296
BRANCH_INDIRECT_CALL: 1.68504
BRANCH_RETURN: 2.90804

Instructions large pages: 0
Instructions small pages: 11665
Large page distribution for instructions: 0%

Data large pages: 0
Data small pages: 9807
Large page distribution for data: 0%

cpu0_L1I TOTAL       ACCESS:   38536336  HIT:   31016576  MISS:    7519760  iACCESS:   38536336  iHIT:   31016576  iMISS:    7519760  dACCESS:          0  dHIT:          0  dMISS:          0  itACCESS:          0  itHIT:          0  itMISS:          0  dtACCESS:          0  dtHIT:          0  dtMISS:          0
cpu0_L1I LOAD         ACCESS:   10680727  HIT:    8623745  MISS:    2056982  iACCESS:   10680727  iHIT:    8623745  iMISS:    2056982  dACCESS:          0  dHIT:          0  dMISS:          0  itACCESS:          0  itHIT:          0  itMISS:          0  dtACCESS:          0  dtHIT:          0  dtMISS:          0
cpu0_L1I RFO          ACCESS:          0  HIT:          0  MISS:          0  iACCESS:          0  iHIT:          0  iMISS:          0  dACCESS:          0  dHIT:          0  dMISS:          0  itACCESS:          0  itHIT:          0  itMISS:          0  dtACCESS:          0  dtHIT:          0  dtMISS:          0
cpu0_L1I PREFETCH     ACCESS:   27855609  HIT:   22392831  MISS:    5462778  iACCESS:   27855609  iHIT:   22392831  iMISS:    5462778  dACCESS:          0  dHIT:          0  dMISS:          0  itACCESS:          0  itHIT:          0  itMISS:          0  dtACCESS:          0  dtHIT:          0  dtMISS:          0
cpu0_L1I WRITE        ACCESS:          0  HIT:          0  MISS:          0  iACCESS:          0  iHIT:          0  iMISS:          0  dACCESS:          0  dHIT:          0  dMISS:          0  itACCESS:          0  itHIT:          0  itMISS:          0  dtACCESS:          0  dtHIT:          0  dtMISS:          0
cpu0_L1I TRANSLATION  ACCESS:          0  HIT:          0  MISS:          0  iACCESS:          0  iHIT:          0  iMISS:          0  dACCESS:          0  dHIT:          0  dMISS:          0  itACCESS:          0  itHIT:          0  itMISS:          0  dtACCESS:          0  dtHIT:          0  dtMISS:          0
cpu0_L1I PREFETCH  REQUESTED:   30143405  ISSUED:   30142648  CROSSED:          0  USEFUL:    1802181  USELESS:     645216
cpu0_L1I AVERAGE iMISS LATENCY: 23.8073 cycles
cpu0_L1I AVERAGE dMISS LATENCY: 0 cycles
cpu0_L1I AVERAGE itMISS LATENCY: 0 cycles
cpu0_L1I AVERAGE dtMISS LATENCY: 0 cycles
cpu0_L1I PAGE CROSSINGS (TLB HIT):         0 
cpu0_L1I PAGE CROSSINGS (TLB MISS):         0 
cpu0_L1I AVERAGE MISS LATENCY: 23.8073 cycles
cpu0_ITLB TOTAL       ACCESS:   32409862  HIT:   30567908  MISS:    1841954  iACCESS:   32409862  iHIT:   30567908  iMISS:    1841954  dACCESS:          0  dHIT:          0  dMISS:          0  itACCESS:          0  itHIT:          0  itMISS:          0  dtACCESS:          0  dtHIT:          0  dtMISS:          0
cpu0_ITLB LOAD         ACCESS:   32409862  HIT:   30567908  MISS:    1841954  iACCESS:   32409862  iHIT:   30567908  iMISS:    1841954  dACCESS:          0  dHIT:          0  dMISS:          0  itACCESS:          0  itHIT:          0  itMISS:          0  dtACCESS:          0  dtHIT:          0  dtMISS:          0
cpu0_ITLB RFO          ACCESS:          0  HIT:          0  MISS:          0  iACCESS:          0  iHIT:          0  iMISS:          0  dACCESS:          0  dHIT:          0  dMISS:          0  itACCESS:          0  itHIT:          0  itMISS:          0  dtACCESS:          0  dtHIT:          0  dtMISS:          0
cpu0_ITLB PREFETCH     ACCESS:          0  HIT:          0  MISS:          0  iACCESS:          0  iHIT:          0  iMISS:          0  dACCESS:          0  dHIT:          0  dMISS:          0  itACCESS:          0  itHIT:          0  itMISS:          0  dtACCESS:          0  dtHIT:          0  dtMISS:          0
cpu0_ITLB WRITE        ACCESS:          0  HIT:          0  MISS:          0  iACCESS:          0  iHIT:          0  iMISS:          0  dACCESS:          0  dHIT:          0  dMISS:          0  itACCESS:          0  itHIT:          0  itMISS:          0  dtACCESS:          0  dtHIT:          0  dtMISS:          0
cpu0_ITLB TRANSLATION  ACCESS:          0  HIT:          0  MISS:          0  iACCESS:          0  iHIT:          0  iMISS:          0  dACCESS:          0  dHIT:          0  dMISS:          0  itACCESS:          0  itHIT:          0  itMISS:          0  dtACCESS:          0  dtHIT:          0  dtMISS:          0
cpu0_ITLB PREFETCH  REQUESTED:          0  ISSUED:          0  CROSSED:          0  USEFUL:     325091  USELESS:      67320
cpu0_ITLB AVERAGE iMISS LATENCY: 5.95081 cycles
cpu0_ITLB AVERAGE dMISS LATENCY: 0 cycles
cpu0_ITLB AVERAGE itMISS LATENCY: 0 cycles
cpu0_ITLB AVERAGE dtMISS LATENCY: 0 cycles
cpu0_ITLB PAGE CROSSINGS (TLB HIT):         0 
cpu0_ITLB PAGE CROSSINGS (TLB MISS):         0 
cpu0_ITLB AVERAGE MISS LATENCY: 5.95081 cycles
cpu0_DTLB TOTAL       ACCESS:   31261303  HIT:   26059609  MISS:    5201694  iACCESS:          0  iHIT:          0  iMISS:          0  dACCESS:   31261303  dHIT:   26059609  dMISS:    5201694  itACCESS:          0  itHIT:          0  itMISS:          0  dtACCESS:          0  dtHIT:          0  dtMISS:          0
cpu0_DTLB LOAD         ACCESS:   31261303  HIT:   26059609  MISS:    5201694  iACCESS:          0  iHIT:          0  iMISS:          0  dACCESS:   31261303  dHIT:   26059609  dMISS:    5201694  itACCESS:          0  itHIT:          0  itMISS:          0  dtACCESS:          0  dtHIT:          0  dtMISS:          0
cpu0_DTLB RFO          ACCESS:          0  HIT:          0  MISS:          0  iACCESS:          0  iHIT:          0  iMISS:          0  dACCESS:          0  dHIT:          0  dMISS:          0  itACCESS:          0  itHIT:          0  itMISS:          0  dtACCESS:          0  dtHIT:          0  dtMISS:          0
cpu0_DTLB PREFETCH     ACCESS:          0  HIT:          0  MISS:          0  iACCESS:          0  iHIT:          0  iMISS:          0  dACCESS:          0  dHIT:          0  dMISS:          0  itACCESS:          0  itHIT:          0  itMISS:          0  dtACCESS:          0  dtHIT:          0  dtMISS:          0
cpu0_DTLB WRITE        ACCESS:          0  HIT:          0  MISS:          0  iACCESS:          0  iHIT:          0  iMISS:          0  dACCESS:          0  dHIT:          0  dMISS:          0  itACCESS:          0  itHIT:          0  itMISS:          0  dtACCESS:          0  dtHIT:          0  dtMISS:          0
cpu0_DTLB TRANSLATION  ACCESS:          0  HIT:          0  MISS:          0  iACCESS:          0  iHIT:          0  iMISS:          0  dACCESS:          0  dHIT:          0  dMISS:          0  itACCESS:          0  itHIT:          0  itMISS:          0  dtACCESS:          0  dtHIT:          0  dtMISS:          0
cpu0_DTLB PREFETCH  REQUESTED:          0  ISSUED:          0  CROSSED:          0  USEFUL:          0  USELESS:          0
cpu0_DTLB AVERAGE iMISS LATENCY: 0 cycles
cpu0_DTLB AVERAGE dMISS LATENCY: 11.6632 cycles
cpu0_DTLB AVERAGE itMISS LATENCY: 0 cycles
cpu0_DTLB AVERAGE dtMISS LATENCY: 0 cycles
cpu0_DTLB PAGE CROSSINGS (TLB HIT):         0 
cpu0_DTLB PAGE CROSSINGS (TLB MISS):         0 
cpu0_DTLB AVERAGE MISS LATENCY: 11.6632 cycles
cpu0_STLB TOTAL       ACCESS:    3164329  HIT:    2890782  MISS:     273547  iACCESS:     392420  iHIT:     341825  iMISS:      50595  dACCESS:    2771909  dHIT:    2548957  dMISS:     222952  itACCESS:          0  itHIT:          0  itMISS:          0  dtACCESS:          0  dtHIT:          0  dtMISS:          0
cpu0_STLB LOAD         ACCESS:    3164329  HIT:    2890782  MISS:     273547  iACCESS:     392420  iHIT:     341825  iMISS:      50595  dACCESS:    2771909  dHIT:    2548957  dMISS:     222952  itACCESS:          0  itHIT:          0  itMISS:          0  dtACCESS:          0  dtHIT:          0  dtMISS:          0
cpu0_STLB RFO          ACCESS:          0  HIT:          0  MISS:          0  iACCESS:          0  iHIT:          0  iMISS:          0  dACCESS:          0  dHIT:          0  dMISS:          0  itACCESS:          0  itHIT:          0  itMISS:          0  dtACCESS:          0  dtHIT:          0  dtMISS:          0
cpu0_STLB PREFETCH     ACCESS:          0  HIT:          0  MISS:          0  iACCESS:          0  iHIT:          0  iMISS:          0  dACCESS:          0  dHIT:          0  dMISS:          0  itACCESS:          0  itHIT:          0  itMISS:          0  dtACCESS:          0  dtHIT:          0  dtMISS:          0
cpu0_STLB WRITE        ACCESS:          0  HIT:          0  MISS:          0  iACCESS:          0  iHIT:          0  iMISS:          0  dACCESS:          0  dHIT:          0  dMISS:          0  itACCESS:          0  itHIT:          0  itMISS:          0  dtACCESS:          0  dtHIT:          0  dtMISS:          0
cpu0_STLB TRANSLATION  ACCESS:          0  HIT:          0  MISS:          0  iACCESS:          0  iHIT:          0  iMISS:          0  dACCESS:          0  dHIT:          0  dMISS:          0  itACCESS:          0  itHIT:          0  itMISS:          0  dtACCESS:          0  dtHIT:          0  dtMISS:          0
cpu0_STLB PREFETCH  REQUESTED:          0  ISSUED:          0  CROSSED:          0  USEFUL:          0  USELESS:          0
cpu0_STLB AVERAGE iMISS LATENCY: 28.7827 cycles
cpu0_STLB AVERAGE dMISS LATENCY: 139.834 cycles
cpu0_STLB AVERAGE itMISS LATENCY: 0 cycles
cpu0_STLB AVERAGE dtMISS LATENCY: 0 cycles
cpu0_STLB PAGE CROSSINGS (TLB HIT):         0 
cpu0_STLB PAGE CROSSINGS (TLB MISS):         0 
cpu0_STLB AVERAGE MISS LATENCY: 168.617 cycles
cpu0_L1D TOTAL       ACCESS:   50167483  HIT:   40771588  MISS:    9395895  iACCESS:          0  iHIT:          0  iMISS:          0  dACCESS:   49705901  dHIT:   40751921  dMISS:    8953980  itACCESS:      63740  itHIT:       4618  itMISS:      59122  dtACCESS:     397842  dtHIT:      15049  dtMISS:     382793
cpu0_L1D LOAD         ACCESS:   24006860  HIT:   19262751  MISS:    4744109  iACCESS:          0  iHIT:          0  iMISS:          0  dACCESS:   24006860  dHIT:   19262751  dMISS:    4744109  itACCESS:          0  itHIT:          0  itMISS:          0  dtACCESS:          0  dtHIT:          0  dtMISS:          0
cpu0_L1D RFO          ACCESS:          0  HIT:          0  MISS:          0  iACCESS:          0  iHIT:          0  iMISS:          0  dACCESS:          0  dHIT:          0  dMISS:          0  itACCESS:          0  itHIT:          0  itMISS:          0  dtACCESS:          0  dtHIT:          0  dtMISS:          0
cpu0_L1D PREFETCH     ACCESS:   15828155  HIT:   12413548  MISS:    3414607  iACCESS:          0  iHIT:          0  iMISS:          0  dACCESS:   15828155  dHIT:   12413548  dMISS:    3414607  itACCESS:          0  itHIT:          0  itMISS:          0  dtACCESS:          0  dtHIT:          0  dtMISS:          0
cpu0_L1D WRITE        ACCESS:    9870886  HIT:    9075622  MISS:     795264  iACCESS:          0  iHIT:          0  iMISS:          0  dACCESS:    9870886  dHIT:    9075622  dMISS:     795264  itACCESS:          0  itHIT:          0  itMISS:          0  dtACCESS:          0  dtHIT:          0  dtMISS:          0
cpu0_L1D TRANSLATION  ACCESS:     461582  HIT:      19667  MISS:     441915  iACCESS:          0  iHIT:          0  iMISS:          0  dACCESS:          0  dHIT:          0  dMISS:          0  itACCESS:      63740  itHIT:       4618  itMISS:      59122  dtACCESS:     397842  dtHIT:      15049  dtMISS:     382793
cpu0_L1D PREFETCH  REQUESTED:   24006860  ISSUED:   19698603  CROSSED:          0  USEFUL:     353697  USELESS:    1016986
cpu0_L1D AVERAGE iMISS LATENCY: 0 cycles
cpu0_L1D AVERAGE dMISS LATENCY: 30.3286 cycles
cpu0_L1D AVERAGE itMISS LATENCY: 0.77357 cycles
cpu0_L1D AVERAGE dtMISS LATENCY: 3.63276 cycles
cpu0_L1D PAGE CROSSINGS (TLB HIT):         0 
cpu0_L1D PAGE CROSSINGS (TLB MISS):         0 
cpu0_L1D AVERAGE MISS LATENCY: 34.7349 cycles
cpu0_L2C TOTAL       ACCESS:    9101725  HIT:    1961236  MISS:    7140489  iACCESS:    3114913  iHIT:     682001  iMISS:    2432912  dACCESS:    5614798  dHIT:    1142568  dMISS:    4472230  itACCESS:      54224  itHIT:      12265  itMISS:      41959  dtACCESS:     317790  dtHIT:     124402  dtMISS:     193388
cpu0_L2C LOAD         ACCESS:    3325831  HIT:     745258  MISS:    2580573  iACCESS:     694826  iHIT:     105848  iMISS:     588978  dACCESS:    2631005  dHIT:     639410  dMISS:    1991595  itACCESS:          0  itHIT:          0  itMISS:          0  dtACCESS:          0  dtHIT:          0  dtMISS:          0
cpu0_L2C RFO          ACCESS:     238903  HIT:      32192  MISS:     206711  iACCESS:          0  iHIT:          0  iMISS:          0  dACCESS:     238903  dHIT:      32192  dMISS:     206711  itACCESS:          0  itHIT:          0  itMISS:          0  dtACCESS:          0  dtHIT:          0  dtMISS:          0
cpu0_L2C PREFETCH     ACCESS:    4826209  HIT:     935577  MISS:    3890632  iACCESS:    2420087  iHIT:     576153  iMISS:    1843934  dACCESS:    2406122  dHIT:     359424  dMISS:    2046698  itACCESS:          0  itHIT:          0  itMISS:          0  dtACCESS:          0  dtHIT:          0  dtMISS:          0
cpu0_L2C WRITE        ACCESS:     338768  HIT:     111542  MISS:     227226  iACCESS:          0  iHIT:          0  iMISS:          0  dACCESS:     338768  dHIT:     111542  dMISS:     227226  itACCESS:          0  itHIT:          0  itMISS:          0  dtACCESS:          0  dtHIT:          0  dtMISS:          0
cpu0_L2C TRANSLATION  ACCESS:     372014  HIT:     136667  MISS:     235347  iACCESS:          0  iHIT:          0  iMISS:          0  dACCESS:          0  dHIT:          0  dMISS:          0  itACCESS:      54224  itHIT:      12265  itMISS:      41959  dtACCESS:     317790  dtHIT:     124402  dtMISS:     193388
cpu0_L2C PREFETCH  REQUESTED:    1220552  ISSUED:    1220552  CROSSED:          0  USEFUL:     319500  USELESS:     394063
cpu0_L2C AVERAGE iMISS LATENCY: 21.3327 cycles
cpu0_L2C AVERAGE dMISS LATENCY: 44.1731 cycles
cpu0_L2C AVERAGE itMISS LATENCY: 0.943462 cycles
cpu0_L2C AVERAGE dtMISS LATENCY: 4.35055 cycles
cpu0_L2C PAGE CROSSINGS (TLB HIT):         0 
cpu0_L2C PAGE CROSSINGS (TLB MISS):         0 
cpu0_L2C AVERAGE MISS LATENCY: 70.7998 cycles
LLC TOTAL       ACCESS:    6992923  HIT:    4807373  MISS:    2185550  iACCESS:    2364669  iHIT:    1693312  iMISS:     671357  dACCESS:    4392907  dHIT:    3055002  dMISS:    1337905  itACCESS:      41959  itHIT:       8607  itMISS:      33352  dtACCESS:     193388  dtHIT:      50452  dtMISS:     142936
LLC LOAD         ACCESS:    2574155  HIT:    2042288  MISS:     531867  iACCESS:     587986  iHIT:     448730  iMISS:     139256  dACCESS:    1986169  dHIT:    1593558  dMISS:     392611  itACCESS:          0  itHIT:          0  itMISS:          0  dtACCESS:          0  dtHIT:          0  dtMISS:          0
LLC RFO          ACCESS:     206698  HIT:     114887  MISS:      91811  iACCESS:          0  iHIT:          0  iMISS:          0  dACCESS:     206698  dHIT:     114887  dMISS:      91811  itACCESS:          0  itHIT:          0  itMISS:          0  dtACCESS:          0  dtHIT:          0  dtMISS:          0
LLC PREFETCH     ACCESS:    3717740  HIT:    2339544  MISS:    1378196  iACCESS:    1776683  iHIT:    1244582  iMISS:     532101  dACCESS:    1941057  dHIT:    1094962  dMISS:     846095  itACCESS:          0  itHIT:          0  itMISS:          0  dtACCESS:          0  dtHIT:          0  dtMISS:          0
LLC WRITE        ACCESS:     258983  HIT:     251595  MISS:       7388  iACCESS:          0  iHIT:          0  iMISS:          0  dACCESS:     258983  dHIT:     251595  dMISS:       7388  itACCESS:          0  itHIT:          0  itMISS:          0  dtACCESS:          0  dtHIT:          0  dtMISS:          0
LLC TRANSLATION  ACCESS:     235347  HIT:      59059  MISS:     176288  iACCESS:          0  iHIT:          0  iMISS:          0  dACCESS:          0  dHIT:          0  dMISS:          0  itACCESS:      41959  itHIT:       8607  itMISS:      33352  dtACCESS:     193388  dtHIT:      50452  dtMISS:     142936
LLC PREFETCH  REQUESTED:          0  ISSUED:          0  CROSSED:          0  USEFUL:          0  USELESS:          0
LLC AVERAGE iMISS LATENCY: 48.6924 cycles
LLC AVERAGE dMISS LATENCY: 108.234 cycles
LLC AVERAGE itMISS LATENCY: 2.70377 cycles
LLC AVERAGE dtMISS LATENCY: 12.4728 cycles
LLC PAGE CROSSINGS (TLB HIT):         0 
LLC PAGE CROSSINGS (TLB MISS):         0 
LLC AVERAGE MISS LATENCY: 172.103 cycles

PageTableWalker TOTAL       ACCESS:     177263  
PageTableWalker AVERAGE LATENCY: 6.29398 cycles
PageTableWalker TOTAL LATENCY: 1115689 cycles

DRAM Statistics
Channel 0
 RQ ROW_BUFFER_HIT:     479357
  ROW_BUFFER_MISS:    1684947
 AVG DBUS CONGESTED CYCLE:    3.66062
 WQ ROW_BUFFER_HIT:      54848
  ROW_BUFFER_MISS:      58659  FULL:          0

