last_page:0x200000000000000
VMEM_RES_CAP:0x100000
PAGE_SIZE:4096
LOG2_PAGE_SIZE:12
LOG2_PAGE_TABLE_SIZE:9
page_table_levels:5
WARNING: physical memory size is smaller than virtual memory size
FDiP enabled with aggresivity 16

*** ChampSim Multicore Out-of-Order Simulator ***

Warmup Instructions: 50000000
Simulation Instructions: 100000000
Number of CPUs: 1
Small page size: 4096
Large page size: 2097152

CPU 0 Bimodal branch predictor
Basic BTB sets: 1024 ways: 8 indirect buffer size: 4096 RAS size: 64
Instruction page size distrubution: 0
Loading instruction page size distribution from /home/bsc/bsc018186/scratch/itp_asplos25_AE/dump/smt_srv12_ap_srv346_ap_1024i.pdst
Data page size distrubution: 0
Loading data page size distribution from /home/bsc/bsc018186/scratch/itp_asplos25_AE/dump/smt_srv12_ap_srv346_ap_1024i.pdst
cpu0_L2C IP-based stride prefetcher
cpu0_L1D next line prefetcher
cpu0_L1I next line prefetcher
Off-chip DRAM Size: 4 GiB Channels: 1 Width: 64-bit Data Rate: 3200 MT/s
Heartbeat CPU 0 instructions: 10000001 cycles: 2500604 heartbeat IPC: 3.99904 cumulative IPC: 3.99904 (Simulation time: 0 hr 0 min 40 sec) 
Heartbeat CPU 0 instructions: 20000001 cycles: 5000906 heartbeat IPC: 3.99952 cumulative IPC: 3.99928 (Simulation time: 0 hr 1 min 26 sec) 
Heartbeat CPU 0 instructions: 30000002 cycles: 7501655 heartbeat IPC: 3.99881 cumulative IPC: 3.99912 (Simulation time: 0 hr 2 min 14 sec) 
Heartbeat CPU 0 instructions: 40000002 cycles: 10001887 heartbeat IPC: 3.99963 cumulative IPC: 3.99925 (Simulation time: 0 hr 3 min 1 sec) 
Heartbeat CPU 0 instructions: 50000002 cycles: 12502190 heartbeat IPC: 3.99952 cumulative IPC: 3.9993 (Simulation time: 0 hr 3 min 49 sec) 
Warmup finished CPU 0 instructions: 50000002 cycles: 12502191 cumulative IPC: 3.9993 (Simulation time: 0 hr 3 min 49 sec) 

Warmup complete CPU 0 instructions: 50000002 cycles: 12502191 (Simulation time: 0 hr 3 min 49 sec) 

Heartbeat CPU 0 instructions: 60000000 cycles: 40260630 heartbeat IPC: 0.360251 cumulative IPC: 0.360251 (Simulation time: 0 hr 5 min 19 sec) 
Heartbeat CPU 0 instructions: 70000003 cycles: 67745762 heartbeat IPC: 0.363834 cumulative IPC: 0.362034 (Simulation time: 0 hr 6 min 54 sec) 
Heartbeat CPU 0 instructions: 80000001 cycles: 95989155 heartbeat IPC: 0.354066 cumulative IPC: 0.359338 (Simulation time: 0 hr 8 min 27 sec) 
Heartbeat CPU 0 instructions: 90000000 cycles: 119948557 heartbeat IPC: 0.417373 cumulative IPC: 0.372279 (Simulation time: 0 hr 9 min 46 sec) 
Heartbeat CPU 0 instructions: 100000000 cycles: 146965063 heartbeat IPC: 0.370145 cumulative IPC: 0.37185 (Simulation time: 0 hr 11 min 14 sec) 
Heartbeat CPU 0 instructions: 110000001 cycles: 174358413 heartbeat IPC: 0.365053 cumulative IPC: 0.3707 (Simulation time: 0 hr 12 min 50 sec) 
Heartbeat CPU 0 instructions: 120000000 cycles: 200828507 heartbeat IPC: 0.377785 cumulative IPC: 0.371696 (Simulation time: 0 hr 14 min 23 sec) 
Heartbeat CPU 0 instructions: 130000002 cycles: 228037211 heartbeat IPC: 0.36753 cumulative IPC: 0.37117 (Simulation time: 0 hr 15 min 58 sec) 
Heartbeat CPU 0 instructions: 140000000 cycles: 255359869 heartbeat IPC: 0.365997 cumulative IPC: 0.370588 (Simulation time: 0 hr 17 min 33 sec) 
Heartbeat CPU 0 instructions: 150000002 cycles: 282672409 heartbeat IPC: 0.366133 cumulative IPC: 0.370138 (Simulation time: 0 hr 18 min 58 sec) 
Simulation finished CPU 0 instructions: 100000000 cycles: 270170219 cumulative IPC: 0.370138 (Simulation time: 0 hr 18 min 58 sec) 

Simulation complete CPU 0 instructions: 100000000 cycles: 270170219 (Simulation time: 0 hr 18 min 58 sec) 


ChampSim completed all CPUs

Saving instructions large page distribution to /home/bsc/bsc018186/scratch/itp_asplos25_AE/dump/smt_srv12_ap_srv346_ap_1024i.pdst...
Saving data large page distribution to /home/bsc/bsc018186/scratch/itp_asplos25_AE/dump/smt_srv12_ap_srv346_ap_1024i.pdst...
=== Simulation ===
CPU 0 runs /gpfs/projects/bsc18/MN4/bsc18/romol/ChampSim/traces/qualcomm_srv/smt_srv12_ap_srv346_ap_1024i.champsimtrace.xz

Region of Interest Statistics

CPU 0 cumulative IPC: 0.370138 instructions: 100000000 cycles: 270170219
CPU 0 Branch Prediction Accuracy: 75.5397% MPKI: 44.1957 Average ROB Occupancy at Mispredict: 10.7628
Branch type MPKI
BRANCH_DIRECT_JUMP: 1.35541
BRANCH_INDIRECT: 22.7018
BRANCH_CONDITIONAL: 13.0378
BRANCH_DIRECT_CALL: 2.60333
BRANCH_INDIRECT_CALL: 1.04026
BRANCH_RETURN: 3.45712

Instructions large pages: 0
Instructions small pages: 14619
Large page distribution for instructions: 0%

Data large pages: 0
Data small pages: 12879
Large page distribution for data: 0%

cpu0_L1I TOTAL       ACCESS:   39401881  HIT:   30276290  MISS:    9125591  iACCESS:   39401881  iHIT:   30276290  iMISS:    9125591  dACCESS:          0  dHIT:          0  dMISS:          0  itACCESS:          0  itHIT:          0  itMISS:          0  dtACCESS:          0  dtHIT:          0  dtMISS:          0
cpu0_L1I LOAD         ACCESS:   11758892  HIT:    9281325  MISS:    2477567  iACCESS:   11758892  iHIT:    9281325  iMISS:    2477567  dACCESS:          0  dHIT:          0  dMISS:          0  itACCESS:          0  itHIT:          0  itMISS:          0  dtACCESS:          0  dtHIT:          0  dtMISS:          0
cpu0_L1I RFO          ACCESS:          0  HIT:          0  MISS:          0  iACCESS:          0  iHIT:          0  iMISS:          0  dACCESS:          0  dHIT:          0  dMISS:          0  itACCESS:          0  itHIT:          0  itMISS:          0  dtACCESS:          0  dtHIT:          0  dtMISS:          0
cpu0_L1I PREFETCH     ACCESS:   27642989  HIT:   20994965  MISS:    6648024  iACCESS:   27642989  iHIT:   20994965  iMISS:    6648024  dACCESS:          0  dHIT:          0  dMISS:          0  itACCESS:          0  itHIT:          0  itMISS:          0  dtACCESS:          0  dtHIT:          0  dtMISS:          0
cpu0_L1I WRITE        ACCESS:          0  HIT:          0  MISS:          0  iACCESS:          0  iHIT:          0  iMISS:          0  dACCESS:          0  dHIT:          0  dMISS:          0  itACCESS:          0  itHIT:          0  itMISS:          0  dtACCESS:          0  dtHIT:          0  dtMISS:          0
cpu0_L1I TRANSLATION  ACCESS:          0  HIT:          0  MISS:          0  iACCESS:          0  iHIT:          0  iMISS:          0  dACCESS:          0  dHIT:          0  dMISS:          0  itACCESS:          0  itHIT:          0  itMISS:          0  dtACCESS:          0  dtHIT:          0  dtMISS:          0
cpu0_L1I PREFETCH  REQUESTED:   30261923  ISSUED:   30260549  CROSSED:          0  USEFUL:    2193665  USELESS:     753614
cpu0_L1I AVERAGE iMISS LATENCY: 23.7428 cycles
cpu0_L1I AVERAGE dMISS LATENCY: 0 cycles
cpu0_L1I AVERAGE itMISS LATENCY: 0 cycles
cpu0_L1I AVERAGE dtMISS LATENCY: 0 cycles
cpu0_L1I PAGE CROSSINGS (TLB HIT):         0 
cpu0_L1I PAGE CROSSINGS (TLB MISS):         0 
cpu0_L1I AVERAGE MISS LATENCY: 23.7428 cycles
cpu0_ITLB TOTAL       ACCESS:   33104515  HIT:   30917291  MISS:    2187224  iACCESS:   33104515  iHIT:   30917291  iMISS:    2187224  dACCESS:          0  dHIT:          0  dMISS:          0  itACCESS:          0  itHIT:          0  itMISS:          0  dtACCESS:          0  dtHIT:          0  dtMISS:          0
cpu0_ITLB LOAD         ACCESS:   33104515  HIT:   30917291  MISS:    2187224  iACCESS:   33104515  iHIT:   30917291  iMISS:    2187224  dACCESS:          0  dHIT:          0  dMISS:          0  itACCESS:          0  itHIT:          0  itMISS:          0  dtACCESS:          0  dtHIT:          0  dtMISS:          0
cpu0_ITLB RFO          ACCESS:          0  HIT:          0  MISS:          0  iACCESS:          0  iHIT:          0  iMISS:          0  dACCESS:          0  dHIT:          0  dMISS:          0  itACCESS:          0  itHIT:          0  itMISS:          0  dtACCESS:          0  dtHIT:          0  dtMISS:          0
cpu0_ITLB PREFETCH     ACCESS:          0  HIT:          0  MISS:          0  iACCESS:          0  iHIT:          0  iMISS:          0  dACCESS:          0  dHIT:          0  dMISS:          0  itACCESS:          0  itHIT:          0  itMISS:          0  dtACCESS:          0  dtHIT:          0  dtMISS:          0
cpu0_ITLB WRITE        ACCESS:          0  HIT:          0  MISS:          0  iACCESS:          0  iHIT:          0  iMISS:          0  dACCESS:          0  dHIT:          0  dMISS:          0  itACCESS:          0  itHIT:          0  itMISS:          0  dtACCESS:          0  dtHIT:          0  dtMISS:          0
cpu0_ITLB TRANSLATION  ACCESS:          0  HIT:          0  MISS:          0  iACCESS:          0  iHIT:          0  iMISS:          0  dACCESS:          0  dHIT:          0  dMISS:          0  itACCESS:          0  itHIT:          0  itMISS:          0  dtACCESS:          0  dtHIT:          0  dtMISS:          0
cpu0_ITLB PREFETCH  REQUESTED:          0  ISSUED:          0  CROSSED:          0  USEFUL:     386605  USELESS:      77708
cpu0_ITLB AVERAGE iMISS LATENCY: 7.7483 cycles
cpu0_ITLB AVERAGE dMISS LATENCY: 0 cycles
cpu0_ITLB AVERAGE itMISS LATENCY: 0 cycles
cpu0_ITLB AVERAGE dtMISS LATENCY: 0 cycles
cpu0_ITLB PAGE CROSSINGS (TLB HIT):         0 
cpu0_ITLB PAGE CROSSINGS (TLB MISS):         0 
cpu0_ITLB AVERAGE MISS LATENCY: 7.7483 cycles
cpu0_DTLB TOTAL       ACCESS:   28897506  HIT:   25373817  MISS:    3523689  iACCESS:          0  iHIT:          0  iMISS:          0  dACCESS:   28897506  dHIT:   25373817  dMISS:    3523689  itACCESS:          0  itHIT:          0  itMISS:          0  dtACCESS:          0  dtHIT:          0  dtMISS:          0
cpu0_DTLB LOAD         ACCESS:   28897506  HIT:   25373817  MISS:    3523689  iACCESS:          0  iHIT:          0  iMISS:          0  dACCESS:   28897506  dHIT:   25373817  dMISS:    3523689  itACCESS:          0  itHIT:          0  itMISS:          0  dtACCESS:          0  dtHIT:          0  dtMISS:          0
cpu0_DTLB RFO          ACCESS:          0  HIT:          0  MISS:          0  iACCESS:          0  iHIT:          0  iMISS:          0  dACCESS:          0  dHIT:          0  dMISS:          0  itACCESS:          0  itHIT:          0  itMISS:          0  dtACCESS:          0  dtHIT:          0  dtMISS:          0
cpu0_DTLB PREFETCH     ACCESS:          0  HIT:          0  MISS:          0  iACCESS:          0  iHIT:          0  iMISS:          0  dACCESS:          0  dHIT:          0  dMISS:          0  itACCESS:          0  itHIT:          0  itMISS:          0  dtACCESS:          0  dtHIT:          0  dtMISS:          0
cpu0_DTLB WRITE        ACCESS:          0  HIT:          0  MISS:          0  iACCESS:          0  iHIT:          0  iMISS:          0  dACCESS:          0  dHIT:          0  dMISS:          0  itACCESS:          0  itHIT:          0  itMISS:          0  dtACCESS:          0  dtHIT:          0  dtMISS:          0
cpu0_DTLB TRANSLATION  ACCESS:          0  HIT:          0  MISS:          0  iACCESS:          0  iHIT:          0  iMISS:          0  dACCESS:          0  dHIT:          0  dMISS:          0  itACCESS:          0  itHIT:          0  itMISS:          0  dtACCESS:          0  dtHIT:          0  dtMISS:          0
cpu0_DTLB PREFETCH  REQUESTED:          0  ISSUED:          0  CROSSED:          0  USEFUL:          0  USELESS:          0
cpu0_DTLB AVERAGE iMISS LATENCY: 0 cycles
cpu0_DTLB AVERAGE dMISS LATENCY: 16.9582 cycles
cpu0_DTLB AVERAGE itMISS LATENCY: 0 cycles
cpu0_DTLB AVERAGE dtMISS LATENCY: 0 cycles
cpu0_DTLB PAGE CROSSINGS (TLB HIT):         0 
cpu0_DTLB PAGE CROSSINGS (TLB MISS):         0 
cpu0_DTLB AVERAGE MISS LATENCY: 16.9582 cycles
cpu0_STLB TOTAL       ACCESS:    2533054  HIT:    2173257  MISS:     359797  iACCESS:     464325  iHIT:     354465  iMISS:     109860  dACCESS:    2068729  dHIT:    1818792  dMISS:     249937  itACCESS:          0  itHIT:          0  itMISS:          0  dtACCESS:          0  dtHIT:          0  dtMISS:          0
cpu0_STLB LOAD         ACCESS:    2533054  HIT:    2173257  MISS:     359797  iACCESS:     464325  iHIT:     354465  iMISS:     109860  dACCESS:    2068729  dHIT:    1818792  dMISS:     249937  itACCESS:          0  itHIT:          0  itMISS:          0  dtACCESS:          0  dtHIT:          0  dtMISS:          0
cpu0_STLB RFO          ACCESS:          0  HIT:          0  MISS:          0  iACCESS:          0  iHIT:          0  iMISS:          0  dACCESS:          0  dHIT:          0  dMISS:          0  itACCESS:          0  itHIT:          0  itMISS:          0  dtACCESS:          0  dtHIT:          0  dtMISS:          0
cpu0_STLB PREFETCH     ACCESS:          0  HIT:          0  MISS:          0  iACCESS:          0  iHIT:          0  iMISS:          0  dACCESS:          0  dHIT:          0  dMISS:          0  itACCESS:          0  itHIT:          0  itMISS:          0  dtACCESS:          0  dtHIT:          0  dtMISS:          0
cpu0_STLB WRITE        ACCESS:          0  HIT:          0  MISS:          0  iACCESS:          0  iHIT:          0  iMISS:          0  dACCESS:          0  dHIT:          0  dMISS:          0  itACCESS:          0  itHIT:          0  itMISS:          0  dtACCESS:          0  dtHIT:          0  dtMISS:          0
cpu0_STLB TRANSLATION  ACCESS:          0  HIT:          0  MISS:          0  iACCESS:          0  iHIT:          0  iMISS:          0  dACCESS:          0  dHIT:          0  dMISS:          0  itACCESS:          0  itHIT:          0  itMISS:          0  dtACCESS:          0  dtHIT:          0  dtMISS:          0
cpu0_STLB PREFETCH  REQUESTED:          0  ISSUED:          0  CROSSED:          0  USEFUL:          0  USELESS:          0
cpu0_STLB AVERAGE iMISS LATENCY: 36.8044 cycles
cpu0_STLB AVERAGE dMISS LATENCY: 119.896 cycles
cpu0_STLB AVERAGE itMISS LATENCY: 0 cycles
cpu0_STLB AVERAGE dtMISS LATENCY: 0 cycles
cpu0_STLB PAGE CROSSINGS (TLB HIT):         0 
cpu0_STLB PAGE CROSSINGS (TLB MISS):         0 
cpu0_STLB AVERAGE MISS LATENCY: 156.701 cycles
cpu0_L1D TOTAL       ACCESS:   44476342  HIT:   39218974  MISS:    5257368  iACCESS:          0  iHIT:          0  iMISS:          0  dACCESS:   43944328  dHIT:   39184161  dMISS:    4760167  itACCESS:     123720  itHIT:      15184  itMISS:     108536  dtACCESS:     408294  dtHIT:      19629  dtMISS:     388665
cpu0_L1D LOAD         ACCESS:   20093655  HIT:   17977624  MISS:    2116031  iACCESS:          0  iHIT:          0  iMISS:          0  dACCESS:   20093655  dHIT:   17977624  dMISS:    2116031  itACCESS:          0  itHIT:          0  itMISS:          0  dtACCESS:          0  dtHIT:          0  dtMISS:          0
cpu0_L1D RFO          ACCESS:          0  HIT:          0  MISS:          0  iACCESS:          0  iHIT:          0  iMISS:          0  dACCESS:          0  dHIT:          0  dMISS:          0  itACCESS:          0  itHIT:          0  itMISS:          0  dtACCESS:          0  dtHIT:          0  dtMISS:          0
cpu0_L1D PREFETCH     ACCESS:   13693524  HIT:   11603700  MISS:    2089824  iACCESS:          0  iHIT:          0  iMISS:          0  dACCESS:   13693524  dHIT:   11603700  dMISS:    2089824  itACCESS:          0  itHIT:          0  itMISS:          0  dtACCESS:          0  dtHIT:          0  dtMISS:          0
cpu0_L1D WRITE        ACCESS:   10157149  HIT:    9602837  MISS:     554312  iACCESS:          0  iHIT:          0  iMISS:          0  dACCESS:   10157149  dHIT:    9602837  dMISS:     554312  itACCESS:          0  itHIT:          0  itMISS:          0  dtACCESS:          0  dtHIT:          0  dtMISS:          0
cpu0_L1D TRANSLATION  ACCESS:     532014  HIT:      34813  MISS:     497201  iACCESS:          0  iHIT:          0  iMISS:          0  dACCESS:          0  dHIT:          0  dMISS:          0  itACCESS:     123720  itHIT:      15184  itMISS:     108536  dtACCESS:     408294  dtHIT:      19629  dtMISS:     388665
cpu0_L1D PREFETCH  REQUESTED:   20093655  ISSUED:   18420174  CROSSED:          0  USEFUL:     359124  USELESS:     923160
cpu0_L1D AVERAGE iMISS LATENCY: 0 cycles
cpu0_L1D AVERAGE dMISS LATENCY: 52.5595 cycles
cpu0_L1D AVERAGE itMISS LATENCY: 2.30581 cycles
cpu0_L1D AVERAGE dtMISS LATENCY: 7.19184 cycles
cpu0_L1D PAGE CROSSINGS (TLB HIT):         0 
cpu0_L1D PAGE CROSSINGS (TLB MISS):         0 
cpu0_L1D AVERAGE MISS LATENCY: 62.0571 cycles
cpu0_L2C TOTAL       ACCESS:    8498169  HIT:    1506999  MISS:    6991170  iACCESS:    3741046  iHIT:     791343  iMISS:    2949703  dACCESS:    4288977  dHIT:     525984  dMISS:    3762993  itACCESS:     107866  itHIT:      38077  itMISS:      69789  dtACCESS:     360280  dtHIT:     151595  dtMISS:     208685
cpu0_L2C LOAD         ACCESS:    2021001  HIT:     206341  MISS:    1814660  iACCESS:     830880  iHIT:     115346  iMISS:     715534  dACCESS:    1190121  dHIT:      90995  dMISS:    1099126  itACCESS:          0  itHIT:          0  itMISS:          0  dtACCESS:          0  dtHIT:          0  dtMISS:          0
cpu0_L2C RFO          ACCESS:     209022  HIT:      27951  MISS:     181071  iACCESS:          0  iHIT:          0  iMISS:          0  dACCESS:     209022  dHIT:      27951  dMISS:     181071  itACCESS:          0  itHIT:          0  itMISS:          0  dtACCESS:          0  dtHIT:          0  dtMISS:          0
cpu0_L2C PREFETCH     ACCESS:    5460490  HIT:     980223  MISS:    4480267  iACCESS:    2910166  iHIT:     675997  iMISS:    2234169  dACCESS:    2550324  dHIT:     304226  dMISS:    2246098  itACCESS:          0  itHIT:          0  itMISS:          0  dtACCESS:          0  dtHIT:          0  dtMISS:          0
cpu0_L2C WRITE        ACCESS:     339510  HIT:     102812  MISS:     236698  iACCESS:          0  iHIT:          0  iMISS:          0  dACCESS:     339510  dHIT:     102812  dMISS:     236698  itACCESS:          0  itHIT:          0  itMISS:          0  dtACCESS:          0  dtHIT:          0  dtMISS:          0
cpu0_L2C TRANSLATION  ACCESS:     468146  HIT:     189672  MISS:     278474  iACCESS:          0  iHIT:          0  iMISS:          0  dACCESS:          0  dHIT:          0  dMISS:          0  itACCESS:     107866  itHIT:      38077  itMISS:      69789  dtACCESS:     360280  dtHIT:     151595  dtMISS:     208685
cpu0_L2C PREFETCH  REQUESTED:    1508484  ISSUED:    1508481  CROSSED:          0  USEFUL:     418159  USELESS:     489874
cpu0_L2C AVERAGE iMISS LATENCY: 26.3747 cycles
cpu0_L2C AVERAGE dMISS LATENCY: 48.868 cycles
cpu0_L2C AVERAGE itMISS LATENCY: 1.58474 cycles
cpu0_L2C AVERAGE dtMISS LATENCY: 4.91237 cycles
cpu0_L2C PAGE CROSSINGS (TLB HIT):         0 
cpu0_L2C PAGE CROSSINGS (TLB MISS):         0 
cpu0_L2C AVERAGE MISS LATENCY: 81.7398 cycles
LLC TOTAL       ACCESS:    6809076  HIT:    4184856  MISS:    2624220  iACCESS:    2857125  iHIT:    2027837  iMISS:     829288  dACCESS:    3673477  dHIT:    2092116  dMISS:    1581361  itACCESS:      69789  itHIT:      15373  itMISS:      54416  dtACCESS:     208685  dtHIT:      49530  dtMISS:     159155
LLC LOAD         ACCESS:    1809817  HIT:    1183236  MISS:     626581  iACCESS:     714135  iHIT:     542399  iMISS:     171736  dACCESS:    1095682  dHIT:     640837  dMISS:     454845  itACCESS:          0  itHIT:          0  itMISS:          0  dtACCESS:          0  dtHIT:          0  dtMISS:          0
LLC RFO          ACCESS:     181063  HIT:      94780  MISS:      86283  iACCESS:          0  iHIT:          0  iMISS:          0  dACCESS:     181063  dHIT:      94780  dMISS:      86283  itACCESS:          0  itHIT:          0  itMISS:          0  dtACCESS:          0  dtHIT:          0  dtMISS:          0
LLC PREFETCH     ACCESS:    4272514  HIT:    2581768  MISS:    1690746  iACCESS:    2142990  iHIT:    1485438  iMISS:     657552  dACCESS:    2129524  dHIT:    1096330  dMISS:    1033194  itACCESS:          0  itHIT:          0  itMISS:          0  dtACCESS:          0  dtHIT:          0  dtMISS:          0
LLC WRITE        ACCESS:     267208  HIT:     260169  MISS:       7039  iACCESS:          0  iHIT:          0  iMISS:          0  dACCESS:     267208  dHIT:     260169  dMISS:       7039  itACCESS:          0  itHIT:          0  itMISS:          0  dtACCESS:          0  dtHIT:          0  dtMISS:          0
LLC TRANSLATION  ACCESS:     278474  HIT:      64903  MISS:     213571  iACCESS:          0  iHIT:          0  iMISS:          0  dACCESS:          0  dHIT:          0  dMISS:          0  itACCESS:      69789  itHIT:      15373  itMISS:      54416  dtACCESS:     208685  dtHIT:      49530  dtMISS:     159155
LLC PREFETCH  REQUESTED:          0  ISSUED:          0  CROSSED:          0  USEFUL:          0  USELESS:          0
LLC AVERAGE iMISS LATENCY: 49.1265 cycles
LLC AVERAGE dMISS LATENCY: 105.515 cycles
LLC AVERAGE itMISS LATENCY: 3.69767 cycles
LLC AVERAGE dtMISS LATENCY: 11.5213 cycles
LLC PAGE CROSSINGS (TLB HIT):         0 
LLC PAGE CROSSINGS (TLB MISS):         0 
LLC AVERAGE MISS LATENCY: 169.86 cycles

PageTableWalker TOTAL       ACCESS:     174059  
PageTableWalker AVERAGE LATENCY: 5.89259 cycles
PageTableWalker TOTAL LATENCY: 1025657 cycles

DRAM Statistics
Channel 0
 RQ ROW_BUFFER_HIT:     617884
  ROW_BUFFER_MISS:    1989118
 AVG DBUS CONGESTED CYCLE:    3.64834
 WQ ROW_BUFFER_HIT:      64606
  ROW_BUFFER_MISS:      57532  FULL:          0

