last_page:0x200000000000000
VMEM_RES_CAP:0x100000
PAGE_SIZE:4096
LOG2_PAGE_SIZE:12
LOG2_PAGE_TABLE_SIZE:9
page_table_levels:5
WARNING: physical memory size is smaller than virtual memory size
FDiP enabled with aggresivity 16

*** ChampSim Multicore Out-of-Order Simulator ***

Warmup Instructions: 50000000
Simulation Instructions: 100000000
Number of CPUs: 1
Small page size: 4096
Large page size: 2097152

CPU 0 Bimodal branch predictor
Basic BTB sets: 1024 ways: 8 indirect buffer size: 4096 RAS size: 64
Instruction page size distrubution: 0
Loading instruction page size distribution from /home/bsc/bsc018186/scratch/itp_asplos25_AE/dump/smt_srv540_ap_srv551_ap_1024i.pdst
Data page size distrubution: 0
Loading data page size distribution from /home/bsc/bsc018186/scratch/itp_asplos25_AE/dump/smt_srv540_ap_srv551_ap_1024i.pdst
cpu0_L2C IP-based stride prefetcher
cpu0_L2C is using PTP replacement policy:
	TLB_STRESS_THRESHOLD:0
	PTE_EVICTION_RATIO:0
cpu0_L1D next line prefetcher
cpu0_L1I next line prefetcher
Off-chip DRAM Size: 4 GiB Channels: 1 Width: 64-bit Data Rate: 3200 MT/s
Heartbeat CPU 0 instructions: 10000002 cycles: 2500455 heartbeat IPC: 3.99928 cumulative IPC: 3.99928 (Simulation time: 0 hr 0 min 45 sec) 
Heartbeat CPU 0 instructions: 20000000 cycles: 5000714 heartbeat IPC: 3.99959 cumulative IPC: 3.99943 (Simulation time: 0 hr 1 min 32 sec) 
Heartbeat CPU 0 instructions: 30000000 cycles: 7501061 heartbeat IPC: 3.99945 cumulative IPC: 3.99944 (Simulation time: 0 hr 2 min 19 sec) 
Heartbeat CPU 0 instructions: 40000002 cycles: 10001286 heartbeat IPC: 3.99965 cumulative IPC: 3.99949 (Simulation time: 0 hr 3 min 6 sec) 
Heartbeat CPU 0 instructions: 50000002 cycles: 12501672 heartbeat IPC: 3.99939 cumulative IPC: 3.99947 (Simulation time: 0 hr 3 min 54 sec) 
Warmup finished CPU 0 instructions: 50000002 cycles: 12501673 cumulative IPC: 3.99947 (Simulation time: 0 hr 3 min 54 sec) 

Warmup complete CPU 0 instructions: 50000002 cycles: 12501673 (Simulation time: 0 hr 3 min 54 sec) 

Heartbeat CPU 0 instructions: 60000000 cycles: 42836179 heartbeat IPC: 0.329658 cumulative IPC: 0.329658 (Simulation time: 0 hr 5 min 33 sec) 
Heartbeat CPU 0 instructions: 70000000 cycles: 73661397 heartbeat IPC: 0.32441 cumulative IPC: 0.327013 (Simulation time: 0 hr 7 min 13 sec) 
Heartbeat CPU 0 instructions: 80000002 cycles: 104150459 heartbeat IPC: 0.327987 cumulative IPC: 0.327337 (Simulation time: 0 hr 8 min 54 sec) 
Heartbeat CPU 0 instructions: 90000000 cycles: 134312686 heartbeat IPC: 0.331541 cumulative IPC: 0.328378 (Simulation time: 0 hr 10 min 34 sec) 
Heartbeat CPU 0 instructions: 100000003 cycles: 165604319 heartbeat IPC: 0.319575 cumulative IPC: 0.326579 (Simulation time: 0 hr 12 min 14 sec) 
Heartbeat CPU 0 instructions: 110000000 cycles: 194570662 heartbeat IPC: 0.345229 cumulative IPC: 0.329546 (Simulation time: 0 hr 13 min 51 sec) 
Heartbeat CPU 0 instructions: 120000000 cycles: 220760789 heartbeat IPC: 0.381824 cumulative IPC: 0.33612 (Simulation time: 0 hr 15 min 24 sec) 
Heartbeat CPU 0 instructions: 130000000 cycles: 237491095 heartbeat IPC: 0.597718 cumulative IPC: 0.355573 (Simulation time: 0 hr 16 min 35 sec) 
Heartbeat CPU 0 instructions: 140000002 cycles: 255066923 heartbeat IPC: 0.568964 cumulative IPC: 0.371035 (Simulation time: 0 hr 17 min 46 sec) 
Heartbeat CPU 0 instructions: 150000001 cycles: 285857940 heartbeat IPC: 0.324771 cumulative IPC: 0.365823 (Simulation time: 0 hr 19 min 14 sec) 
Simulation finished CPU 0 instructions: 100000004 cycles: 273356269 cumulative IPC: 0.365823 (Simulation time: 0 hr 19 min 14 sec) 

Simulation complete CPU 0 instructions: 100000004 cycles: 273356269 (Simulation time: 0 hr 19 min 14 sec) 


ChampSim completed all CPUs

Saving instructions large page distribution to /home/bsc/bsc018186/scratch/itp_asplos25_AE/dump/smt_srv540_ap_srv551_ap_1024i.pdst...
Saving data large page distribution to /home/bsc/bsc018186/scratch/itp_asplos25_AE/dump/smt_srv540_ap_srv551_ap_1024i.pdst...
=== Simulation ===
CPU 0 runs /gpfs/projects/bsc18/MN4/bsc18/romol/ChampSim/traces/qualcomm_srv/smt_srv540_ap_srv551_ap_1024i.champsimtrace.xz

Region of Interest Statistics

CPU 0 cumulative IPC: 0.365823 instructions: 100000004 cycles: 273356269
CPU 0 Branch Prediction Accuracy: 77.9969% MPKI: 42.4508 Average ROB Occupancy at Mispredict: 11.2783
Branch type MPKI
BRANCH_DIRECT_JUMP: 1.23399
BRANCH_INDIRECT: 22.826
BRANCH_CONDITIONAL: 11.6402
BRANCH_DIRECT_CALL: 2.36679
BRANCH_INDIRECT_CALL: 1.07038
BRANCH_RETURN: 3.31346

Instructions large pages: 0
Instructions small pages: 10131
Large page distribution for instructions: 0%

Data large pages: 0
Data small pages: 8688
Large page distribution for data: 0%

cpu0_L1I TOTAL       ACCESS:   39682357  HIT:   32017165  MISS:    7665192  iACCESS:   39682357  iHIT:   32017165  iMISS:    7665192  dACCESS:          0  dHIT:          0  dMISS:          0  itACCESS:          0  itHIT:          0  itMISS:          0  dtACCESS:          0  dtHIT:          0  dtMISS:          0
cpu0_L1I LOAD         ACCESS:   11327819  HIT:    9242820  MISS:    2084999  iACCESS:   11327819  iHIT:    9242820  iMISS:    2084999  dACCESS:          0  dHIT:          0  dMISS:          0  itACCESS:          0  itHIT:          0  itMISS:          0  dtACCESS:          0  dtHIT:          0  dtMISS:          0
cpu0_L1I RFO          ACCESS:          0  HIT:          0  MISS:          0  iACCESS:          0  iHIT:          0  iMISS:          0  dACCESS:          0  dHIT:          0  dMISS:          0  itACCESS:          0  itHIT:          0  itMISS:          0  dtACCESS:          0  dtHIT:          0  dtMISS:          0
cpu0_L1I PREFETCH     ACCESS:   28354538  HIT:   22774345  MISS:    5580193  iACCESS:   28354538  iHIT:   22774345  iMISS:    5580193  dACCESS:          0  dHIT:          0  dMISS:          0  itACCESS:          0  itHIT:          0  itMISS:          0  dtACCESS:          0  dtHIT:          0  dtMISS:          0
cpu0_L1I WRITE        ACCESS:          0  HIT:          0  MISS:          0  iACCESS:          0  iHIT:          0  iMISS:          0  dACCESS:          0  dHIT:          0  dMISS:          0  itACCESS:          0  itHIT:          0  itMISS:          0  dtACCESS:          0  dtHIT:          0  dtMISS:          0
cpu0_L1I TRANSLATION  ACCESS:          0  HIT:          0  MISS:          0  iACCESS:          0  iHIT:          0  iMISS:          0  dACCESS:          0  dHIT:          0  dMISS:          0  itACCESS:          0  itHIT:          0  itMISS:          0  dtACCESS:          0  dtHIT:          0  dtMISS:          0
cpu0_L1I PREFETCH  REQUESTED:   31038426  ISSUED:   31038416  CROSSED:          0  USEFUL:    1958154  USELESS:     678886
cpu0_L1I AVERAGE iMISS LATENCY: 24.3549 cycles
cpu0_L1I AVERAGE dMISS LATENCY: 0 cycles
cpu0_L1I AVERAGE itMISS LATENCY: 0 cycles
cpu0_L1I AVERAGE dtMISS LATENCY: 0 cycles
cpu0_L1I PAGE CROSSINGS (TLB HIT):         0 
cpu0_L1I PAGE CROSSINGS (TLB MISS):         0 
cpu0_L1I AVERAGE MISS LATENCY: 24.3549 cycles
cpu0_ITLB TOTAL       ACCESS:   33393963  HIT:   31419968  MISS:    1973995  iACCESS:   33393963  iHIT:   31419968  iMISS:    1973995  dACCESS:          0  dHIT:          0  dMISS:          0  itACCESS:          0  itHIT:          0  itMISS:          0  dtACCESS:          0  dtHIT:          0  dtMISS:          0
cpu0_ITLB LOAD         ACCESS:   33393963  HIT:   31419968  MISS:    1973995  iACCESS:   33393963  iHIT:   31419968  iMISS:    1973995  dACCESS:          0  dHIT:          0  dMISS:          0  itACCESS:          0  itHIT:          0  itMISS:          0  dtACCESS:          0  dtHIT:          0  dtMISS:          0
cpu0_ITLB RFO          ACCESS:          0  HIT:          0  MISS:          0  iACCESS:          0  iHIT:          0  iMISS:          0  dACCESS:          0  dHIT:          0  dMISS:          0  itACCESS:          0  itHIT:          0  itMISS:          0  dtACCESS:          0  dtHIT:          0  dtMISS:          0
cpu0_ITLB PREFETCH     ACCESS:          0  HIT:          0  MISS:          0  iACCESS:          0  iHIT:          0  iMISS:          0  dACCESS:          0  dHIT:          0  dMISS:          0  itACCESS:          0  itHIT:          0  itMISS:          0  dtACCESS:          0  dtHIT:          0  dtMISS:          0
cpu0_ITLB WRITE        ACCESS:          0  HIT:          0  MISS:          0  iACCESS:          0  iHIT:          0  iMISS:          0  dACCESS:          0  dHIT:          0  dMISS:          0  itACCESS:          0  itHIT:          0  itMISS:          0  dtACCESS:          0  dtHIT:          0  dtMISS:          0
cpu0_ITLB TRANSLATION  ACCESS:          0  HIT:          0  MISS:          0  iACCESS:          0  iHIT:          0  iMISS:          0  dACCESS:          0  dHIT:          0  dMISS:          0  itACCESS:          0  itHIT:          0  itMISS:          0  dtACCESS:          0  dtHIT:          0  dtMISS:          0
cpu0_ITLB PREFETCH  REQUESTED:          0  ISSUED:          0  CROSSED:          0  USEFUL:     345259  USELESS:      70907
cpu0_ITLB AVERAGE iMISS LATENCY: 10.4076 cycles
cpu0_ITLB AVERAGE dMISS LATENCY: 0 cycles
cpu0_ITLB AVERAGE itMISS LATENCY: 0 cycles
cpu0_ITLB AVERAGE dtMISS LATENCY: 0 cycles
cpu0_ITLB PAGE CROSSINGS (TLB HIT):         0 
cpu0_ITLB PAGE CROSSINGS (TLB MISS):         0 
cpu0_ITLB AVERAGE MISS LATENCY: 10.4076 cycles
cpu0_DTLB TOTAL       ACCESS:   30723871  HIT:   24569343  MISS:    6154528  iACCESS:          0  iHIT:          0  iMISS:          0  dACCESS:   30723871  dHIT:   24569343  dMISS:    6154528  itACCESS:          0  itHIT:          0  itMISS:          0  dtACCESS:          0  dtHIT:          0  dtMISS:          0
cpu0_DTLB LOAD         ACCESS:   30723871  HIT:   24569343  MISS:    6154528  iACCESS:          0  iHIT:          0  iMISS:          0  dACCESS:   30723871  dHIT:   24569343  dMISS:    6154528  itACCESS:          0  itHIT:          0  itMISS:          0  dtACCESS:          0  dtHIT:          0  dtMISS:          0
cpu0_DTLB RFO          ACCESS:          0  HIT:          0  MISS:          0  iACCESS:          0  iHIT:          0  iMISS:          0  dACCESS:          0  dHIT:          0  dMISS:          0  itACCESS:          0  itHIT:          0  itMISS:          0  dtACCESS:          0  dtHIT:          0  dtMISS:          0
cpu0_DTLB PREFETCH     ACCESS:          0  HIT:          0  MISS:          0  iACCESS:          0  iHIT:          0  iMISS:          0  dACCESS:          0  dHIT:          0  dMISS:          0  itACCESS:          0  itHIT:          0  itMISS:          0  dtACCESS:          0  dtHIT:          0  dtMISS:          0
cpu0_DTLB WRITE        ACCESS:          0  HIT:          0  MISS:          0  iACCESS:          0  iHIT:          0  iMISS:          0  dACCESS:          0  dHIT:          0  dMISS:          0  itACCESS:          0  itHIT:          0  itMISS:          0  dtACCESS:          0  dtHIT:          0  dtMISS:          0
cpu0_DTLB TRANSLATION  ACCESS:          0  HIT:          0  MISS:          0  iACCESS:          0  iHIT:          0  iMISS:          0  dACCESS:          0  dHIT:          0  dMISS:          0  itACCESS:          0  itHIT:          0  itMISS:          0  dtACCESS:          0  dtHIT:          0  dtMISS:          0
cpu0_DTLB PREFETCH  REQUESTED:          0  ISSUED:          0  CROSSED:          0  USEFUL:          0  USELESS:          0
cpu0_DTLB AVERAGE iMISS LATENCY: 0 cycles
cpu0_DTLB AVERAGE dMISS LATENCY: 14.3657 cycles
cpu0_DTLB AVERAGE itMISS LATENCY: 0 cycles
cpu0_DTLB AVERAGE dtMISS LATENCY: 0 cycles
cpu0_DTLB PAGE CROSSINGS (TLB HIT):         0 
cpu0_DTLB PAGE CROSSINGS (TLB MISS):         0 
cpu0_DTLB AVERAGE MISS LATENCY: 14.3657 cycles
cpu0_STLB TOTAL       ACCESS:    3670958  HIT:    3342258  MISS:     328700  iACCESS:     416171  iHIT:     312521  iMISS:     103650  dACCESS:    3254787  dHIT:    3029737  dMISS:     225050  itACCESS:          0  itHIT:          0  itMISS:          0  dtACCESS:          0  dtHIT:          0  dtMISS:          0
cpu0_STLB LOAD         ACCESS:    3670958  HIT:    3342258  MISS:     328700  iACCESS:     416171  iHIT:     312521  iMISS:     103650  dACCESS:    3254787  dHIT:    3029737  dMISS:     225050  itACCESS:          0  itHIT:          0  itMISS:          0  dtACCESS:          0  dtHIT:          0  dtMISS:          0
cpu0_STLB RFO          ACCESS:          0  HIT:          0  MISS:          0  iACCESS:          0  iHIT:          0  iMISS:          0  dACCESS:          0  dHIT:          0  dMISS:          0  itACCESS:          0  itHIT:          0  itMISS:          0  dtACCESS:          0  dtHIT:          0  dtMISS:          0
cpu0_STLB PREFETCH     ACCESS:          0  HIT:          0  MISS:          0  iACCESS:          0  iHIT:          0  iMISS:          0  dACCESS:          0  dHIT:          0  dMISS:          0  itACCESS:          0  itHIT:          0  itMISS:          0  dtACCESS:          0  dtHIT:          0  dtMISS:          0
cpu0_STLB WRITE        ACCESS:          0  HIT:          0  MISS:          0  iACCESS:          0  iHIT:          0  iMISS:          0  dACCESS:          0  dHIT:          0  dMISS:          0  itACCESS:          0  itHIT:          0  itMISS:          0  dtACCESS:          0  dtHIT:          0  dtMISS:          0
cpu0_STLB TRANSLATION  ACCESS:          0  HIT:          0  MISS:          0  iACCESS:          0  iHIT:          0  iMISS:          0  dACCESS:          0  dHIT:          0  dMISS:          0  itACCESS:          0  itHIT:          0  itMISS:          0  dtACCESS:          0  dtHIT:          0  dtMISS:          0
cpu0_STLB PREFETCH  REQUESTED:          0  ISSUED:          0  CROSSED:          0  USEFUL:          0  USELESS:          0
cpu0_STLB AVERAGE iMISS LATENCY: 52.3664 cycles
cpu0_STLB AVERAGE dMISS LATENCY: 188.885 cycles
cpu0_STLB AVERAGE itMISS LATENCY: 0 cycles
cpu0_STLB AVERAGE dtMISS LATENCY: 0 cycles
cpu0_STLB PAGE CROSSINGS (TLB HIT):         0 
cpu0_STLB PAGE CROSSINGS (TLB MISS):         0 
cpu0_STLB AVERAGE MISS LATENCY: 241.251 cycles
cpu0_L1D TOTAL       ACCESS:   47588680  HIT:   39419732  MISS:    8168948  iACCESS:          0  iHIT:          0  iMISS:          0  dACCESS:   47117057  dHIT:   39390982  dMISS:    7726075  itACCESS:     115500  itHIT:      12483  itMISS:     103017  dtACCESS:     356123  dtHIT:      16267  dtMISS:     339856
cpu0_L1D LOAD         ACCESS:   22654675  HIT:   18298549  MISS:    4356126  iACCESS:          0  iHIT:          0  iMISS:          0  dACCESS:   22654675  dHIT:   18298549  dMISS:    4356126  itACCESS:          0  itHIT:          0  itMISS:          0  dtACCESS:          0  dtHIT:          0  dtMISS:          0
cpu0_L1D RFO          ACCESS:          0  HIT:          0  MISS:          0  iACCESS:          0  iHIT:          0  iMISS:          0  dACCESS:          0  dHIT:          0  dMISS:          0  itACCESS:          0  itHIT:          0  itMISS:          0  dtACCESS:          0  dtHIT:          0  dtMISS:          0
cpu0_L1D PREFETCH     ACCESS:   14687078  HIT:   11879596  MISS:    2807482  iACCESS:          0  iHIT:          0  iMISS:          0  dACCESS:   14687078  dHIT:   11879596  dMISS:    2807482  itACCESS:          0  itHIT:          0  itMISS:          0  dtACCESS:          0  dtHIT:          0  dtMISS:          0
cpu0_L1D WRITE        ACCESS:    9775304  HIT:    9212837  MISS:     562467  iACCESS:          0  iHIT:          0  iMISS:          0  dACCESS:    9775304  dHIT:    9212837  dMISS:     562467  itACCESS:          0  itHIT:          0  itMISS:          0  dtACCESS:          0  dtHIT:          0  dtMISS:          0
cpu0_L1D TRANSLATION  ACCESS:     471623  HIT:      28750  MISS:     442873  iACCESS:          0  iHIT:          0  iMISS:          0  dACCESS:          0  dHIT:          0  dMISS:          0  itACCESS:     115500  itHIT:      12483  itMISS:     103017  dtACCESS:     356123  dtHIT:      16267  dtMISS:     339856
cpu0_L1D PREFETCH  REQUESTED:   22654675  ISSUED:   18828750  CROSSED:          0  USEFUL:     326293  USELESS:    1175007
cpu0_L1D AVERAGE iMISS LATENCY: 0 cycles
cpu0_L1D AVERAGE dMISS LATENCY: 33.6373 cycles
cpu0_L1D AVERAGE itMISS LATENCY: 1.98699 cycles
cpu0_L1D AVERAGE dtMISS LATENCY: 7.10233 cycles
cpu0_L1D PAGE CROSSINGS (TLB HIT):         0 
cpu0_L1D PAGE CROSSINGS (TLB MISS):         0 
cpu0_L1D AVERAGE MISS LATENCY: 42.7266 cycles
cpu0_L2C TOTAL       ACCESS:    9934723  HIT:    6060696  MISS:    3874027  iACCESS:    3347861  iHIT:    2039051  iMISS:    1308810  dACCESS:    6166187  dHIT:    3968542  dMISS:    2197645  itACCESS:     102942  itHIT:      19530  itMISS:      83412  dtACCESS:     317733  dtHIT:      33573  dtMISS:     284160
cpu0_L2C LOAD         ACCESS:    3671659  HIT:    2760650  MISS:     911009  iACCESS:     743909  iHIT:     472769  iMISS:     271140  dACCESS:    2927750  dHIT:    2287881  dMISS:     639869  itACCESS:          0  itHIT:          0  itMISS:          0  dtACCESS:          0  dtHIT:          0  dtMISS:          0
cpu0_L2C RFO          ACCESS:     227188  HIT:     111424  MISS:     115764  iACCESS:          0  iHIT:          0  iMISS:          0  dACCESS:     227188  dHIT:     111424  dMISS:     115764  itACCESS:          0  itHIT:          0  itMISS:          0  dtACCESS:          0  dtHIT:          0  dtMISS:          0
cpu0_L2C PREFETCH     ACCESS:    5289431  HIT:    2812317  MISS:    2477114  iACCESS:    2603952  iHIT:    1566282  iMISS:    1037670  dACCESS:    2685479  dHIT:    1246035  dMISS:    1439444  itACCESS:          0  itHIT:          0  itMISS:          0  dtACCESS:          0  dtHIT:          0  dtMISS:          0
cpu0_L2C WRITE        ACCESS:     325770  HIT:     323202  MISS:       2568  iACCESS:          0  iHIT:          0  iMISS:          0  dACCESS:     325770  dHIT:     323202  dMISS:       2568  itACCESS:          0  itHIT:          0  itMISS:          0  dtACCESS:          0  dtHIT:          0  dtMISS:          0
cpu0_L2C TRANSLATION  ACCESS:     420675  HIT:      53103  MISS:     367572  iACCESS:          0  iHIT:          0  iMISS:          0  dACCESS:          0  dHIT:          0  dMISS:          0  itACCESS:     102942  itHIT:      19530  itMISS:      83412  dtACCESS:     317733  dtHIT:      33573  dtMISS:     284160
cpu0_L2C PREFETCH  REQUESTED:    1396285  ISSUED:    1396231  CROSSED:          0  USEFUL:     316961  USELESS:     286175
cpu0_L2C AVERAGE iMISS LATENCY: 41.0049 cycles
cpu0_L2C AVERAGE dMISS LATENCY: 79.2248 cycles
cpu0_L2C AVERAGE itMISS LATENCY: 3.9284 cycles
cpu0_L2C AVERAGE dtMISS LATENCY: 14.1602 cycles
cpu0_L2C PAGE CROSSINGS (TLB HIT):         0 
cpu0_L2C PAGE CROSSINGS (TLB MISS):         0 
cpu0_L2C AVERAGE MISS LATENCY: 138.319 cycles
LLC TOTAL       ACCESS:    3857159  HIT:    1145798  MISS:    2711361  iACCESS:    1228435  iHIT:     374891  iMISS:     853544  dACCESS:    2261152  dHIT:     734156  dMISS:    1526996  itACCESS:      83412  itHIT:       7401  itMISS:      76011  dtACCESS:     284160  dtHIT:      29350  dtMISS:     254810
LLC LOAD         ACCESS:     904223  HIT:     282603  MISS:     621620  iACCESS:     270058  iHIT:      88247  iMISS:     181811  dACCESS:     634165  dHIT:     194356  dMISS:     439809  itACCESS:          0  itHIT:          0  itMISS:          0  dtACCESS:          0  dtHIT:          0  dtMISS:          0
LLC RFO          ACCESS:     115755  HIT:      35051  MISS:      80704  iACCESS:          0  iHIT:          0  iMISS:          0  dACCESS:     115755  dHIT:      35051  dMISS:      80704  itACCESS:          0  itHIT:          0  itMISS:          0  dtACCESS:          0  dtHIT:          0  dtMISS:          0
LLC PREFETCH     ACCESS:    2289123  HIT:     620053  MISS:    1669070  iACCESS:     958377  iHIT:     286644  iMISS:     671733  dACCESS:    1330746  dHIT:     333409  dMISS:     997337  itACCESS:          0  itHIT:          0  itMISS:          0  dtACCESS:          0  dtHIT:          0  dtMISS:          0
LLC WRITE        ACCESS:     180486  HIT:     171340  MISS:       9146  iACCESS:          0  iHIT:          0  iMISS:          0  dACCESS:     180486  dHIT:     171340  dMISS:       9146  itACCESS:          0  itHIT:          0  itMISS:          0  dtACCESS:          0  dtHIT:          0  dtMISS:          0
LLC TRANSLATION  ACCESS:     367572  HIT:      36751  MISS:     330821  iACCESS:          0  iHIT:          0  iMISS:          0  dACCESS:          0  dHIT:          0  dMISS:          0  itACCESS:      83412  itHIT:       7401  itMISS:      76011  dtACCESS:     284160  dtHIT:      29350  dtMISS:     254810
LLC PREFETCH  REQUESTED:          0  ISSUED:          0  CROSSED:          0  USEFUL:          0  USELESS:          0
LLC AVERAGE iMISS LATENCY: 49.6619 cycles
LLC AVERAGE dMISS LATENCY: 99.0547 cycles
LLC AVERAGE itMISS LATENCY: 5.00311 cycles
LLC AVERAGE dtMISS LATENCY: 18.1603 cycles
LLC PAGE CROSSINGS (TLB HIT):         0 
LLC PAGE CROSSINGS (TLB MISS):         0 
LLC AVERAGE MISS LATENCY: 171.88 cycles

PageTableWalker TOTAL       ACCESS:     194775  
PageTableWalker AVERAGE LATENCY: 6.44355 cycles
PageTableWalker TOTAL LATENCY: 1255041 cycles

DRAM Statistics
Channel 0
 RQ ROW_BUFFER_HIT:     580497
  ROW_BUFFER_MISS:    2103876
 AVG DBUS CONGESTED CYCLE:    3.64874
 WQ ROW_BUFFER_HIT:      56029
  ROW_BUFFER_MISS:      48022  FULL:          0

