last_page:0x200000000000000
VMEM_RES_CAP:0x100000
PAGE_SIZE:4096
LOG2_PAGE_SIZE:12
LOG2_PAGE_TABLE_SIZE:9
page_table_levels:5
WARNING: physical memory size is smaller than virtual memory size
FDiP enabled with aggresivity 16

*** ChampSim Multicore Out-of-Order Simulator ***

Warmup Instructions: 50000000
Simulation Instructions: 100000000
Number of CPUs: 1
Small page size: 4096
Large page size: 2097152

CPU 0 Bimodal branch predictor
Basic BTB sets: 1024 ways: 8 indirect buffer size: 4096 RAS size: 64
Instruction page size distrubution: 0
Loading instruction page size distribution from /home/bsc/bsc018186/scratch/itp_asplos25_AE/dump/smt_srv85_ap_srv697_ap_1024i.pdst
Data page size distrubution: 0
Loading data page size distribution from /home/bsc/bsc018186/scratch/itp_asplos25_AE/dump/smt_srv85_ap_srv697_ap_1024i.pdst
cpu0_L2C IP-based stride prefetcher
cpu0_L1D next line prefetcher
CHiRPing...
cpu0_L1I next line prefetcher
Off-chip DRAM Size: 4 GiB Channels: 1 Width: 64-bit Data Rate: 3200 MT/s
Heartbeat CPU 0 instructions: 10000003 cycles: 2500257 heartbeat IPC: 3.9996 cumulative IPC: 3.9996 (Simulation time: 0 hr 0 min 42 sec) 
Heartbeat CPU 0 instructions: 20000000 cycles: 5000627 heartbeat IPC: 3.99941 cumulative IPC: 3.9995 (Simulation time: 0 hr 1 min 27 sec) 
Heartbeat CPU 0 instructions: 30000001 cycles: 7501097 heartbeat IPC: 3.99925 cumulative IPC: 3.99942 (Simulation time: 0 hr 2 min 11 sec) 
Heartbeat CPU 0 instructions: 40000002 cycles: 10001304 heartbeat IPC: 3.99967 cumulative IPC: 3.99948 (Simulation time: 0 hr 2 min 57 sec) 
Heartbeat CPU 0 instructions: 50000003 cycles: 12501726 heartbeat IPC: 3.99933 cumulative IPC: 3.99945 (Simulation time: 0 hr 3 min 42 sec) 
Warmup finished CPU 0 instructions: 50000003 cycles: 12501727 cumulative IPC: 3.99945 (Simulation time: 0 hr 3 min 42 sec) 

Warmup complete CPU 0 instructions: 50000003 cycles: 12501727 (Simulation time: 0 hr 3 min 42 sec) 

Heartbeat CPU 0 instructions: 60000003 cycles: 39626979 heartbeat IPC: 0.368661 cumulative IPC: 0.368661 (Simulation time: 0 hr 5 min 10 sec) 
Heartbeat CPU 0 instructions: 70000002 cycles: 65840363 heartbeat IPC: 0.381485 cumulative IPC: 0.374963 (Simulation time: 0 hr 6 min 36 sec) 
Heartbeat CPU 0 instructions: 80000002 cycles: 92735065 heartbeat IPC: 0.371821 cumulative IPC: 0.37391 (Simulation time: 0 hr 8 min 3 sec) 
Heartbeat CPU 0 instructions: 90000002 cycles: 120233844 heartbeat IPC: 0.363653 cumulative IPC: 0.371292 (Simulation time: 0 hr 9 min 31 sec) 
Heartbeat CPU 0 instructions: 100000000 cycles: 147072433 heartbeat IPC: 0.372598 cumulative IPC: 0.371552 (Simulation time: 0 hr 10 min 58 sec) 
Heartbeat CPU 0 instructions: 110000002 cycles: 173598276 heartbeat IPC: 0.376991 cumulative IPC: 0.372448 (Simulation time: 0 hr 12 min 24 sec) 
Heartbeat CPU 0 instructions: 120000001 cycles: 200548663 heartbeat IPC: 0.371053 cumulative IPC: 0.372248 (Simulation time: 0 hr 13 min 52 sec) 
Heartbeat CPU 0 instructions: 130000004 cycles: 227487497 heartbeat IPC: 0.371212 cumulative IPC: 0.372118 (Simulation time: 0 hr 15 min 19 sec) 
Heartbeat CPU 0 instructions: 140000003 cycles: 253660521 heartbeat IPC: 0.382073 cumulative IPC: 0.373199 (Simulation time: 0 hr 16 min 46 sec) 
Heartbeat CPU 0 instructions: 150000002 cycles: 280720543 heartbeat IPC: 0.369549 cumulative IPC: 0.37283 (Simulation time: 0 hr 18 min 14 sec) 
Simulation finished CPU 0 instructions: 100000004 cycles: 268218818 cumulative IPC: 0.37283 (Simulation time: 0 hr 18 min 14 sec) 

Simulation complete CPU 0 instructions: 100000004 cycles: 268218818 (Simulation time: 0 hr 18 min 14 sec) 


ChampSim completed all CPUs

Saving instructions large page distribution to /home/bsc/bsc018186/scratch/itp_asplos25_AE/dump/smt_srv85_ap_srv697_ap_1024i.pdst...
Saving data large page distribution to /home/bsc/bsc018186/scratch/itp_asplos25_AE/dump/smt_srv85_ap_srv697_ap_1024i.pdst...
=== Simulation ===
CPU 0 runs /gpfs/projects/bsc18/MN4/bsc18/romol/ChampSim/traces/qualcomm_srv/smt_srv85_ap_srv697_ap_1024i.champsimtrace.xz

Region of Interest Statistics

CPU 0 cumulative IPC: 0.37283 instructions: 100000004 cycles: 268218818
CPU 0 Branch Prediction Accuracy: 75.8097% MPKI: 43.476 Average ROB Occupancy at Mispredict: 11.0005
Branch type MPKI
BRANCH_DIRECT_JUMP: 1.31006
BRANCH_INDIRECT: 22.7115
BRANCH_CONDITIONAL: 12.6022
BRANCH_DIRECT_CALL: 2.48505
BRANCH_INDIRECT_CALL: 0.92767
BRANCH_RETURN: 3.43951

Instructions large pages: 0
Instructions small pages: 13219
Large page distribution for instructions: 0%

Data large pages: 0
Data small pages: 11961
Large page distribution for data: 0%

cpu0_L1I TOTAL       ACCESS:   39459614  HIT:   30251874  MISS:    9207740  iACCESS:   39459614  iHIT:   30251874  iMISS:    9207740  dACCESS:          0  dHIT:          0  dMISS:          0  itACCESS:          0  itHIT:          0  itMISS:          0  dtACCESS:          0  dtHIT:          0  dtMISS:          0
cpu0_L1I LOAD         ACCESS:   11843029  HIT:    9338861  MISS:    2504168  iACCESS:   11843029  iHIT:    9338861  iMISS:    2504168  dACCESS:          0  dHIT:          0  dMISS:          0  itACCESS:          0  itHIT:          0  itMISS:          0  dtACCESS:          0  dtHIT:          0  dtMISS:          0
cpu0_L1I RFO          ACCESS:          0  HIT:          0  MISS:          0  iACCESS:          0  iHIT:          0  iMISS:          0  dACCESS:          0  dHIT:          0  dMISS:          0  itACCESS:          0  itHIT:          0  itMISS:          0  dtACCESS:          0  dtHIT:          0  dtMISS:          0
cpu0_L1I PREFETCH     ACCESS:   27616585  HIT:   20913013  MISS:    6703572  iACCESS:   27616585  iHIT:   20913013  iMISS:    6703572  dACCESS:          0  dHIT:          0  dMISS:          0  itACCESS:          0  itHIT:          0  itMISS:          0  dtACCESS:          0  dtHIT:          0  dtMISS:          0
cpu0_L1I WRITE        ACCESS:          0  HIT:          0  MISS:          0  iACCESS:          0  iHIT:          0  iMISS:          0  dACCESS:          0  dHIT:          0  dMISS:          0  itACCESS:          0  itHIT:          0  itMISS:          0  dtACCESS:          0  dtHIT:          0  dtMISS:          0
cpu0_L1I TRANSLATION  ACCESS:          0  HIT:          0  MISS:          0  iACCESS:          0  iHIT:          0  iMISS:          0  dACCESS:          0  dHIT:          0  dMISS:          0  itACCESS:          0  itHIT:          0  itMISS:          0  dtACCESS:          0  dtHIT:          0  dtMISS:          0
cpu0_L1I PREFETCH  REQUESTED:   30274131  ISSUED:   30272450  CROSSED:          0  USEFUL:    2202807  USELESS:     752735
cpu0_L1I AVERAGE iMISS LATENCY: 23.0513 cycles
cpu0_L1I AVERAGE dMISS LATENCY: 0 cycles
cpu0_L1I AVERAGE itMISS LATENCY: 0 cycles
cpu0_L1I AVERAGE dtMISS LATENCY: 0 cycles
cpu0_L1I PAGE CROSSINGS (TLB HIT):         0 
cpu0_L1I PAGE CROSSINGS (TLB MISS):         0 
cpu0_L1I AVERAGE MISS LATENCY: 23.0513 cycles
cpu0_ITLB TOTAL       ACCESS:   33078835  HIT:   30884104  MISS:    2194731  iACCESS:   33078835  iHIT:   30884104  iMISS:    2194731  dACCESS:          0  dHIT:          0  dMISS:          0  itACCESS:          0  itHIT:          0  itMISS:          0  dtACCESS:          0  dtHIT:          0  dtMISS:          0
cpu0_ITLB LOAD         ACCESS:   33078835  HIT:   30884104  MISS:    2194731  iACCESS:   33078835  iHIT:   30884104  iMISS:    2194731  dACCESS:          0  dHIT:          0  dMISS:          0  itACCESS:          0  itHIT:          0  itMISS:          0  dtACCESS:          0  dtHIT:          0  dtMISS:          0
cpu0_ITLB RFO          ACCESS:          0  HIT:          0  MISS:          0  iACCESS:          0  iHIT:          0  iMISS:          0  dACCESS:          0  dHIT:          0  dMISS:          0  itACCESS:          0  itHIT:          0  itMISS:          0  dtACCESS:          0  dtHIT:          0  dtMISS:          0
cpu0_ITLB PREFETCH     ACCESS:          0  HIT:          0  MISS:          0  iACCESS:          0  iHIT:          0  iMISS:          0  dACCESS:          0  dHIT:          0  dMISS:          0  itACCESS:          0  itHIT:          0  itMISS:          0  dtACCESS:          0  dtHIT:          0  dtMISS:          0
cpu0_ITLB WRITE        ACCESS:          0  HIT:          0  MISS:          0  iACCESS:          0  iHIT:          0  iMISS:          0  dACCESS:          0  dHIT:          0  dMISS:          0  itACCESS:          0  itHIT:          0  itMISS:          0  dtACCESS:          0  dtHIT:          0  dtMISS:          0
cpu0_ITLB TRANSLATION  ACCESS:          0  HIT:          0  MISS:          0  iACCESS:          0  iHIT:          0  iMISS:          0  dACCESS:          0  dHIT:          0  dMISS:          0  itACCESS:          0  itHIT:          0  itMISS:          0  dtACCESS:          0  dtHIT:          0  dtMISS:          0
cpu0_ITLB PREFETCH  REQUESTED:          0  ISSUED:          0  CROSSED:          0  USEFUL:     383610  USELESS:      77661
cpu0_ITLB AVERAGE iMISS LATENCY: 7.55912 cycles
cpu0_ITLB AVERAGE dMISS LATENCY: 0 cycles
cpu0_ITLB AVERAGE itMISS LATENCY: 0 cycles
cpu0_ITLB AVERAGE dtMISS LATENCY: 0 cycles
cpu0_ITLB PAGE CROSSINGS (TLB HIT):         0 
cpu0_ITLB PAGE CROSSINGS (TLB MISS):         0 
cpu0_ITLB AVERAGE MISS LATENCY: 7.55912 cycles
cpu0_DTLB TOTAL       ACCESS:   28805688  HIT:   25094958  MISS:    3710730  iACCESS:          0  iHIT:          0  iMISS:          0  dACCESS:   28805688  dHIT:   25094958  dMISS:    3710730  itACCESS:          0  itHIT:          0  itMISS:          0  dtACCESS:          0  dtHIT:          0  dtMISS:          0
cpu0_DTLB LOAD         ACCESS:   28805688  HIT:   25094958  MISS:    3710730  iACCESS:          0  iHIT:          0  iMISS:          0  dACCESS:   28805688  dHIT:   25094958  dMISS:    3710730  itACCESS:          0  itHIT:          0  itMISS:          0  dtACCESS:          0  dtHIT:          0  dtMISS:          0
cpu0_DTLB RFO          ACCESS:          0  HIT:          0  MISS:          0  iACCESS:          0  iHIT:          0  iMISS:          0  dACCESS:          0  dHIT:          0  dMISS:          0  itACCESS:          0  itHIT:          0  itMISS:          0  dtACCESS:          0  dtHIT:          0  dtMISS:          0
cpu0_DTLB PREFETCH     ACCESS:          0  HIT:          0  MISS:          0  iACCESS:          0  iHIT:          0  iMISS:          0  dACCESS:          0  dHIT:          0  dMISS:          0  itACCESS:          0  itHIT:          0  itMISS:          0  dtACCESS:          0  dtHIT:          0  dtMISS:          0
cpu0_DTLB WRITE        ACCESS:          0  HIT:          0  MISS:          0  iACCESS:          0  iHIT:          0  iMISS:          0  dACCESS:          0  dHIT:          0  dMISS:          0  itACCESS:          0  itHIT:          0  itMISS:          0  dtACCESS:          0  dtHIT:          0  dtMISS:          0
cpu0_DTLB TRANSLATION  ACCESS:          0  HIT:          0  MISS:          0  iACCESS:          0  iHIT:          0  iMISS:          0  dACCESS:          0  dHIT:          0  dMISS:          0  itACCESS:          0  itHIT:          0  itMISS:          0  dtACCESS:          0  dtHIT:          0  dtMISS:          0
cpu0_DTLB PREFETCH  REQUESTED:          0  ISSUED:          0  CROSSED:          0  USEFUL:          0  USELESS:          0
cpu0_DTLB AVERAGE iMISS LATENCY: 0 cycles
cpu0_DTLB AVERAGE dMISS LATENCY: 16.5632 cycles
cpu0_DTLB AVERAGE itMISS LATENCY: 0 cycles
cpu0_DTLB AVERAGE dtMISS LATENCY: 0 cycles
cpu0_DTLB PAGE CROSSINGS (TLB HIT):         0 
cpu0_DTLB PAGE CROSSINGS (TLB MISS):         0 
cpu0_DTLB AVERAGE MISS LATENCY: 16.5632 cycles
cpu0_STLB TOTAL       ACCESS:    2619903  HIT:    2252109  MISS:     367794  iACCESS:     461279  iHIT:     353410  iMISS:     107869  dACCESS:    2158624  dHIT:    1898699  dMISS:     259925  itACCESS:          0  itHIT:          0  itMISS:          0  dtACCESS:          0  dtHIT:          0  dtMISS:          0
cpu0_STLB LOAD         ACCESS:    2619903  HIT:    2252109  MISS:     367794  iACCESS:     461279  iHIT:     353410  iMISS:     107869  dACCESS:    2158624  dHIT:    1898699  dMISS:     259925  itACCESS:          0  itHIT:          0  itMISS:          0  dtACCESS:          0  dtHIT:          0  dtMISS:          0
cpu0_STLB RFO          ACCESS:          0  HIT:          0  MISS:          0  iACCESS:          0  iHIT:          0  iMISS:          0  dACCESS:          0  dHIT:          0  dMISS:          0  itACCESS:          0  itHIT:          0  itMISS:          0  dtACCESS:          0  dtHIT:          0  dtMISS:          0
cpu0_STLB PREFETCH     ACCESS:          0  HIT:          0  MISS:          0  iACCESS:          0  iHIT:          0  iMISS:          0  dACCESS:          0  dHIT:          0  dMISS:          0  itACCESS:          0  itHIT:          0  itMISS:          0  dtACCESS:          0  dtHIT:          0  dtMISS:          0
cpu0_STLB WRITE        ACCESS:          0  HIT:          0  MISS:          0  iACCESS:          0  iHIT:          0  iMISS:          0  dACCESS:          0  dHIT:          0  dMISS:          0  itACCESS:          0  itHIT:          0  itMISS:          0  dtACCESS:          0  dtHIT:          0  dtMISS:          0
cpu0_STLB TRANSLATION  ACCESS:          0  HIT:          0  MISS:          0  iACCESS:          0  iHIT:          0  iMISS:          0  dACCESS:          0  dHIT:          0  dMISS:          0  itACCESS:          0  itHIT:          0  itMISS:          0  dtACCESS:          0  dtHIT:          0  dtMISS:          0
cpu0_STLB PREFETCH  REQUESTED:          0  ISSUED:          0  CROSSED:          0  USEFUL:          0  USELESS:          0
cpu0_STLB AVERAGE iMISS LATENCY: 35.1041 cycles
cpu0_STLB AVERAGE dMISS LATENCY: 119.96 cycles
cpu0_STLB AVERAGE itMISS LATENCY: 0 cycles
cpu0_STLB AVERAGE dtMISS LATENCY: 0 cycles
cpu0_STLB PAGE CROSSINGS (TLB HIT):         0 
cpu0_STLB PAGE CROSSINGS (TLB MISS):         0 
cpu0_STLB AVERAGE MISS LATENCY: 155.064 cycles
cpu0_L1D TOTAL       ACCESS:   44435454  HIT:   39134014  MISS:    5301440  iACCESS:          0  iHIT:          0  iMISS:          0  dACCESS:   43891581  dHIT:   39099784  dMISS:    4791797  itACCESS:     122816  itHIT:      14593  itMISS:     108223  dtACCESS:     421057  dtHIT:      19637  dtMISS:     401420
cpu0_L1D LOAD         ACCESS:   20015448  HIT:   17873108  MISS:    2142340  iACCESS:          0  iHIT:          0  iMISS:          0  dACCESS:   20015448  dHIT:   17873108  dMISS:    2142340  itACCESS:          0  itHIT:          0  itMISS:          0  dtACCESS:          0  dtHIT:          0  dtMISS:          0
cpu0_L1D RFO          ACCESS:          0  HIT:          0  MISS:          0  iACCESS:          0  iHIT:          0  iMISS:          0  dACCESS:          0  dHIT:          0  dMISS:          0  itACCESS:          0  itHIT:          0  itMISS:          0  dtACCESS:          0  dtHIT:          0  dtMISS:          0
cpu0_L1D PREFETCH     ACCESS:   13735101  HIT:   11644952  MISS:    2090149  iACCESS:          0  iHIT:          0  iMISS:          0  dACCESS:   13735101  dHIT:   11644952  dMISS:    2090149  itACCESS:          0  itHIT:          0  itMISS:          0  dtACCESS:          0  dtHIT:          0  dtMISS:          0
cpu0_L1D WRITE        ACCESS:   10141032  HIT:    9581724  MISS:     559308  iACCESS:          0  iHIT:          0  iMISS:          0  dACCESS:   10141032  dHIT:    9581724  dMISS:     559308  itACCESS:          0  itHIT:          0  itMISS:          0  dtACCESS:          0  dtHIT:          0  dtMISS:          0
cpu0_L1D TRANSLATION  ACCESS:     543873  HIT:      34230  MISS:     509643  iACCESS:          0  iHIT:          0  iMISS:          0  dACCESS:          0  dHIT:          0  dMISS:          0  itACCESS:     122816  itHIT:      14593  itMISS:     108223  dtACCESS:     421057  dtHIT:      19637  dtMISS:     401420
cpu0_L1D PREFETCH  REQUESTED:   20015448  ISSUED:   18381519  CROSSED:          0  USEFUL:     358704  USELESS:     929912
cpu0_L1D AVERAGE iMISS LATENCY: 0 cycles
cpu0_L1D AVERAGE dMISS LATENCY: 51.9867 cycles
cpu0_L1D AVERAGE itMISS LATENCY: 2.24684 cycles
cpu0_L1D AVERAGE dtMISS LATENCY: 7.31274 cycles
cpu0_L1D PAGE CROSSINGS (TLB HIT):         0 
cpu0_L1D PAGE CROSSINGS (TLB MISS):         0 
cpu0_L1D AVERAGE MISS LATENCY: 61.5463 cycles
cpu0_L2C TOTAL       ACCESS:    8549658  HIT:    1516545  MISS:    7033113  iACCESS:    3755767  iHIT:     792359  iMISS:    2963408  dACCESS:    4314028  dHIT:     528725  dMISS:    3785303  itACCESS:     106294  itHIT:      37501  itMISS:      68793  dtACCESS:     373569  dtHIT:     157960  dtMISS:     215609
cpu0_L2C LOAD         ACCESS:    2041779  HIT:     201013  MISS:    1840766  iACCESS:     837487  iHIT:     109808  iMISS:     727679  dACCESS:    1204292  dHIT:      91205  dMISS:    1113087  itACCESS:          0  itHIT:          0  itMISS:          0  dtACCESS:          0  dtHIT:          0  dtMISS:          0
cpu0_L2C RFO          ACCESS:     209462  HIT:      27129  MISS:     182333  iACCESS:          0  iHIT:          0  iMISS:          0  dACCESS:     209462  dHIT:      27129  dMISS:     182333  itACCESS:          0  itHIT:          0  itMISS:          0  dtACCESS:          0  dtHIT:          0  dtMISS:          0
cpu0_L2C PREFETCH     ACCESS:    5473228  HIT:     990897  MISS:    4482331  iACCESS:    2918280  iHIT:     682551  iMISS:    2235729  dACCESS:    2554948  dHIT:     308346  dMISS:    2246602  itACCESS:          0  itHIT:          0  itMISS:          0  dtACCESS:          0  dtHIT:          0  dtMISS:          0
cpu0_L2C WRITE        ACCESS:     345326  HIT:     102045  MISS:     243281  iACCESS:          0  iHIT:          0  iMISS:          0  dACCESS:     345326  dHIT:     102045  dMISS:     243281  itACCESS:          0  itHIT:          0  itMISS:          0  dtACCESS:          0  dtHIT:          0  dtMISS:          0
cpu0_L2C TRANSLATION  ACCESS:     479863  HIT:     195461  MISS:     284402  iACCESS:          0  iHIT:          0  iMISS:          0  dACCESS:          0  dHIT:          0  dMISS:          0  itACCESS:     106294  itHIT:      37501  itMISS:      68793  dtACCESS:     373569  dtHIT:     157960  dtMISS:     215609
cpu0_L2C PREFETCH  REQUESTED:    1511196  ISSUED:    1511189  CROSSED:          0  USEFUL:     419692  USELESS:     482809
cpu0_L2C AVERAGE iMISS LATENCY: 25.5558 cycles
cpu0_L2C AVERAGE dMISS LATENCY: 48.2129 cycles
cpu0_L2C AVERAGE itMISS LATENCY: 1.54745 cycles
cpu0_L2C AVERAGE dtMISS LATENCY: 5.0011 cycles
cpu0_L2C PAGE CROSSINGS (TLB HIT):         0 
cpu0_L2C PAGE CROSSINGS (TLB MISS):         0 
cpu0_L2C AVERAGE MISS LATENCY: 80.3173 cycles
LLC TOTAL       ACCESS:    6851911  HIT:    4278714  MISS:    2573197  iACCESS:    2870909  iHIT:    2078001  iMISS:     792908  dACCESS:    3696600  dHIT:    2132950  dMISS:    1563650  itACCESS:      68793  itHIT:      15417  itMISS:      53376  dtACCESS:     215609  dtHIT:      52346  dtMISS:     163263
LLC LOAD         ACCESS:    1834918  HIT:    1214237  MISS:     620681  iACCESS:     726204  iHIT:     561034  iMISS:     165170  dACCESS:    1108714  dHIT:     653203  dMISS:     455511  itACCESS:          0  itHIT:          0  itMISS:          0  dtACCESS:          0  dtHIT:          0  dtMISS:          0
LLC RFO          ACCESS:     182321  HIT:      97732  MISS:      84589  iACCESS:          0  iHIT:          0  iMISS:          0  dACCESS:     182321  dHIT:      97732  dMISS:      84589  itACCESS:          0  itHIT:          0  itMISS:          0  dtACCESS:          0  dtHIT:          0  dtMISS:          0
LLC PREFETCH     ACCESS:    4274153  HIT:    2629512  MISS:    1644641  iACCESS:    2144705  iHIT:    1516967  iMISS:     627738  dACCESS:    2129448  dHIT:    1112545  dMISS:    1016903  itACCESS:          0  itHIT:          0  itMISS:          0  dtACCESS:          0  dtHIT:          0  dtMISS:          0
LLC WRITE        ACCESS:     276117  HIT:     269470  MISS:       6647  iACCESS:          0  iHIT:          0  iMISS:          0  dACCESS:     276117  dHIT:     269470  dMISS:       6647  itACCESS:          0  itHIT:          0  itMISS:          0  dtACCESS:          0  dtHIT:          0  dtMISS:          0
LLC TRANSLATION  ACCESS:     284402  HIT:      67763  MISS:     216639  iACCESS:          0  iHIT:          0  iMISS:          0  dACCESS:          0  dHIT:          0  dMISS:          0  itACCESS:      68793  itHIT:      15417  itMISS:      53376  dtACCESS:     215609  dtHIT:      52346  dtMISS:     163263
LLC PREFETCH  REQUESTED:          0  ISSUED:          0  CROSSED:          0  USEFUL:          0  USELESS:          0
LLC AVERAGE iMISS LATENCY: 48.1952 cycles
LLC AVERAGE dMISS LATENCY: 106.616 cycles
LLC AVERAGE itMISS LATENCY: 3.70254 cycles
LLC AVERAGE dtMISS LATENCY: 12.0192 cycles
LLC PAGE CROSSINGS (TLB HIT):         0 
LLC PAGE CROSSINGS (TLB MISS):         0 
LLC AVERAGE MISS LATENCY: 170.533 cycles

PageTableWalker TOTAL       ACCESS:     185888  
PageTableWalker AVERAGE LATENCY: 5.93627 cycles
PageTableWalker TOTAL LATENCY: 1103481 cycles

DRAM Statistics
Channel 0
 RQ ROW_BUFFER_HIT:     584639
  ROW_BUFFER_MISS:    1972110
 AVG DBUS CONGESTED CYCLE:    3.65164
 WQ ROW_BUFFER_HIT:      64900
  ROW_BUFFER_MISS:      62470  FULL:          0

