last_page:0x200000000000000
VMEM_RES_CAP:0x100000
PAGE_SIZE:4096
LOG2_PAGE_SIZE:12
LOG2_PAGE_TABLE_SIZE:9
page_table_levels:5
WARNING: physical memory size is smaller than virtual memory size
FDiP enabled with aggresivity 16

*** ChampSim Multicore Out-of-Order Simulator ***

Warmup Instructions: 50000000
Simulation Instructions: 100000000
Number of CPUs: 1
Small page size: 4096
Large page size: 2097152

CPU 0 Bimodal branch predictor
Basic BTB sets: 1024 ways: 8 indirect buffer size: 4096 RAS size: 64
Instruction page size distrubution: 0
Loading instruction page size distribution from /home/bsc/bsc018186/scratch/itp_asplos25_AE/dump/smt_srv537_ap_srv526_ap_1024i.pdst
Data page size distrubution: 0
Loading data page size distribution from /home/bsc/bsc018186/scratch/itp_asplos25_AE/dump/smt_srv537_ap_srv526_ap_1024i.pdst
cpu0_L2C IP-based stride prefetcher
cpu0_L1D next line prefetcher
cpu0_L1I next line prefetcher
Off-chip DRAM Size: 4 GiB Channels: 1 Width: 64-bit Data Rate: 3200 MT/s
Heartbeat CPU 0 instructions: 10000002 cycles: 2500477 heartbeat IPC: 3.99924 cumulative IPC: 3.99924 (Simulation time: 0 hr 0 min 46 sec) 
Heartbeat CPU 0 instructions: 20000001 cycles: 5000976 heartbeat IPC: 3.99921 cumulative IPC: 3.99922 (Simulation time: 0 hr 1 min 32 sec) 
Heartbeat CPU 0 instructions: 30000002 cycles: 7584624 heartbeat IPC: 3.8705 cumulative IPC: 3.95538 (Simulation time: 0 hr 2 min 22 sec) 
Heartbeat CPU 0 instructions: 40000003 cycles: 10129964 heartbeat IPC: 3.92875 cumulative IPC: 3.94869 (Simulation time: 0 hr 3 min 13 sec) 
Heartbeat CPU 0 instructions: 50000000 cycles: 12656491 heartbeat IPC: 3.95801 cumulative IPC: 3.95055 (Simulation time: 0 hr 4 min 3 sec) 
Warmup finished CPU 0 instructions: 50000000 cycles: 12656492 cumulative IPC: 3.95055 (Simulation time: 0 hr 4 min 3 sec) 

Warmup complete CPU 0 instructions: 50000000 cycles: 12656492 (Simulation time: 0 hr 4 min 3 sec) 

Heartbeat CPU 0 instructions: 60000003 cycles: 39523560 heartbeat IPC: 0.372203 cumulative IPC: 0.372203 (Simulation time: 0 hr 5 min 39 sec) 
Heartbeat CPU 0 instructions: 70000004 cycles: 67628389 heartbeat IPC: 0.355811 cumulative IPC: 0.363823 (Simulation time: 0 hr 7 min 7 sec) 
Heartbeat CPU 0 instructions: 80000003 cycles: 94813195 heartbeat IPC: 0.367853 cumulative IPC: 0.365156 (Simulation time: 0 hr 8 min 32 sec) 
Heartbeat CPU 0 instructions: 90000000 cycles: 121267064 heartbeat IPC: 0.378017 cumulative IPC: 0.368289 (Simulation time: 0 hr 9 min 55 sec) 
Heartbeat CPU 0 instructions: 100000000 cycles: 148576898 heartbeat IPC: 0.366169 cumulative IPC: 0.367863 (Simulation time: 0 hr 11 min 20 sec) 
Heartbeat CPU 0 instructions: 110000000 cycles: 176960107 heartbeat IPC: 0.352321 cumulative IPC: 0.365178 (Simulation time: 0 hr 12 min 47 sec) 
Heartbeat CPU 0 instructions: 120000000 cycles: 203555398 heartbeat IPC: 0.376007 cumulative IPC: 0.366687 (Simulation time: 0 hr 14 min 17 sec) 
Heartbeat CPU 0 instructions: 130000002 cycles: 230153192 heartbeat IPC: 0.375972 cumulative IPC: 0.367822 (Simulation time: 0 hr 15 min 44 sec) 
Heartbeat CPU 0 instructions: 140000001 cycles: 257588741 heartbeat IPC: 0.364491 cumulative IPC: 0.367449 (Simulation time: 0 hr 17 min 8 sec) 
Heartbeat CPU 0 instructions: 150000002 cycles: 285817922 heartbeat IPC: 0.354244 cumulative IPC: 0.366084 (Simulation time: 0 hr 18 min 35 sec) 
Simulation finished CPU 0 instructions: 100000002 cycles: 273161431 cumulative IPC: 0.366084 (Simulation time: 0 hr 18 min 35 sec) 

Simulation complete CPU 0 instructions: 100000002 cycles: 273161431 (Simulation time: 0 hr 18 min 35 sec) 


ChampSim completed all CPUs

Saving instructions large page distribution to /home/bsc/bsc018186/scratch/itp_asplos25_AE/dump/smt_srv537_ap_srv526_ap_1024i.pdst...
Saving data large page distribution to /home/bsc/bsc018186/scratch/itp_asplos25_AE/dump/smt_srv537_ap_srv526_ap_1024i.pdst...
=== Simulation ===
CPU 0 runs /gpfs/projects/bsc18/MN4/bsc18/romol/ChampSim/traces/qualcomm_srv/smt_srv537_ap_srv526_ap_1024i.champsimtrace.xz

Region of Interest Statistics

CPU 0 cumulative IPC: 0.366084 instructions: 100000002 cycles: 273161431
CPU 0 Branch Prediction Accuracy: 75.7102% MPKI: 43.8363 Average ROB Occupancy at Mispredict: 10.544
Branch type MPKI
BRANCH_DIRECT_JUMP: 1.42956
BRANCH_INDIRECT: 22.5855
BRANCH_CONDITIONAL: 12.6334
BRANCH_DIRECT_CALL: 2.6387
BRANCH_INDIRECT_CALL: 0.99801
BRANCH_RETURN: 3.55119

Instructions large pages: 0
Instructions small pages: 13979
Large page distribution for instructions: 0%

Data large pages: 0
Data small pages: 12573
Large page distribution for data: 0%

cpu0_L1I TOTAL       ACCESS:   39278998  HIT:   30034319  MISS:    9244679  iACCESS:   39278998  iHIT:   30034319  iMISS:    9244679  dACCESS:          0  dHIT:          0  dMISS:          0  itACCESS:          0  itHIT:          0  itMISS:          0  dtACCESS:          0  dtHIT:          0  dtMISS:          0
cpu0_L1I LOAD         ACCESS:   11687191  HIT:    9159714  MISS:    2527477  iACCESS:   11687191  iHIT:    9159714  iMISS:    2527477  dACCESS:          0  dHIT:          0  dMISS:          0  itACCESS:          0  itHIT:          0  itMISS:          0  dtACCESS:          0  dtHIT:          0  dtMISS:          0
cpu0_L1I RFO          ACCESS:          0  HIT:          0  MISS:          0  iACCESS:          0  iHIT:          0  iMISS:          0  dACCESS:          0  dHIT:          0  dMISS:          0  itACCESS:          0  itHIT:          0  itMISS:          0  dtACCESS:          0  dtHIT:          0  dtMISS:          0
cpu0_L1I PREFETCH     ACCESS:   27591807  HIT:   20874605  MISS:    6717202  iACCESS:   27591807  iHIT:   20874605  iMISS:    6717202  dACCESS:          0  dHIT:          0  dMISS:          0  itACCESS:          0  itHIT:          0  itMISS:          0  dtACCESS:          0  dtHIT:          0  dtMISS:          0
cpu0_L1I WRITE        ACCESS:          0  HIT:          0  MISS:          0  iACCESS:          0  iHIT:          0  iMISS:          0  dACCESS:          0  dHIT:          0  dMISS:          0  itACCESS:          0  itHIT:          0  itMISS:          0  dtACCESS:          0  dtHIT:          0  dtMISS:          0
cpu0_L1I TRANSLATION  ACCESS:          0  HIT:          0  MISS:          0  iACCESS:          0  iHIT:          0  iMISS:          0  dACCESS:          0  dHIT:          0  dMISS:          0  itACCESS:          0  itHIT:          0  itMISS:          0  dtACCESS:          0  dtHIT:          0  dtMISS:          0
cpu0_L1I PREFETCH  REQUESTED:   30171482  ISSUED:   30169956  CROSSED:          0  USEFUL:    2206792  USELESS:     766849
cpu0_L1I AVERAGE iMISS LATENCY: 23.7955 cycles
cpu0_L1I AVERAGE dMISS LATENCY: 0 cycles
cpu0_L1I AVERAGE itMISS LATENCY: 0 cycles
cpu0_L1I AVERAGE dtMISS LATENCY: 0 cycles
cpu0_L1I PAGE CROSSINGS (TLB HIT):         0 
cpu0_L1I PAGE CROSSINGS (TLB MISS):         0 
cpu0_L1I AVERAGE MISS LATENCY: 23.7955 cycles
cpu0_ITLB TOTAL       ACCESS:   33060378  HIT:   30794621  MISS:    2265757  iACCESS:   33060378  iHIT:   30794621  iMISS:    2265757  dACCESS:          0  dHIT:          0  dMISS:          0  itACCESS:          0  itHIT:          0  itMISS:          0  dtACCESS:          0  dtHIT:          0  dtMISS:          0
cpu0_ITLB LOAD         ACCESS:   33060378  HIT:   30794621  MISS:    2265757  iACCESS:   33060378  iHIT:   30794621  iMISS:    2265757  dACCESS:          0  dHIT:          0  dMISS:          0  itACCESS:          0  itHIT:          0  itMISS:          0  dtACCESS:          0  dtHIT:          0  dtMISS:          0
cpu0_ITLB RFO          ACCESS:          0  HIT:          0  MISS:          0  iACCESS:          0  iHIT:          0  iMISS:          0  dACCESS:          0  dHIT:          0  dMISS:          0  itACCESS:          0  itHIT:          0  itMISS:          0  dtACCESS:          0  dtHIT:          0  dtMISS:          0
cpu0_ITLB PREFETCH     ACCESS:          0  HIT:          0  MISS:          0  iACCESS:          0  iHIT:          0  iMISS:          0  dACCESS:          0  dHIT:          0  dMISS:          0  itACCESS:          0  itHIT:          0  itMISS:          0  dtACCESS:          0  dtHIT:          0  dtMISS:          0
cpu0_ITLB WRITE        ACCESS:          0  HIT:          0  MISS:          0  iACCESS:          0  iHIT:          0  iMISS:          0  dACCESS:          0  dHIT:          0  dMISS:          0  itACCESS:          0  itHIT:          0  itMISS:          0  dtACCESS:          0  dtHIT:          0  dtMISS:          0
cpu0_ITLB TRANSLATION  ACCESS:          0  HIT:          0  MISS:          0  iACCESS:          0  iHIT:          0  iMISS:          0  dACCESS:          0  dHIT:          0  dMISS:          0  itACCESS:          0  itHIT:          0  itMISS:          0  dtACCESS:          0  dtHIT:          0  dtMISS:          0
cpu0_ITLB PREFETCH  REQUESTED:          0  ISSUED:          0  CROSSED:          0  USEFUL:     395287  USELESS:      83604
cpu0_ITLB AVERAGE iMISS LATENCY: 7.79853 cycles
cpu0_ITLB AVERAGE dMISS LATENCY: 0 cycles
cpu0_ITLB AVERAGE itMISS LATENCY: 0 cycles
cpu0_ITLB AVERAGE dtMISS LATENCY: 0 cycles
cpu0_ITLB PAGE CROSSINGS (TLB HIT):         0 
cpu0_ITLB PAGE CROSSINGS (TLB MISS):         0 
cpu0_ITLB AVERAGE MISS LATENCY: 7.79853 cycles
cpu0_DTLB TOTAL       ACCESS:   28914841  HIT:   25485161  MISS:    3429680  iACCESS:          0  iHIT:          0  iMISS:          0  dACCESS:   28914841  dHIT:   25485161  dMISS:    3429680  itACCESS:          0  itHIT:          0  itMISS:          0  dtACCESS:          0  dtHIT:          0  dtMISS:          0
cpu0_DTLB LOAD         ACCESS:   28914841  HIT:   25485161  MISS:    3429680  iACCESS:          0  iHIT:          0  iMISS:          0  dACCESS:   28914841  dHIT:   25485161  dMISS:    3429680  itACCESS:          0  itHIT:          0  itMISS:          0  dtACCESS:          0  dtHIT:          0  dtMISS:          0
cpu0_DTLB RFO          ACCESS:          0  HIT:          0  MISS:          0  iACCESS:          0  iHIT:          0  iMISS:          0  dACCESS:          0  dHIT:          0  dMISS:          0  itACCESS:          0  itHIT:          0  itMISS:          0  dtACCESS:          0  dtHIT:          0  dtMISS:          0
cpu0_DTLB PREFETCH     ACCESS:          0  HIT:          0  MISS:          0  iACCESS:          0  iHIT:          0  iMISS:          0  dACCESS:          0  dHIT:          0  dMISS:          0  itACCESS:          0  itHIT:          0  itMISS:          0  dtACCESS:          0  dtHIT:          0  dtMISS:          0
cpu0_DTLB WRITE        ACCESS:          0  HIT:          0  MISS:          0  iACCESS:          0  iHIT:          0  iMISS:          0  dACCESS:          0  dHIT:          0  dMISS:          0  itACCESS:          0  itHIT:          0  itMISS:          0  dtACCESS:          0  dtHIT:          0  dtMISS:          0
cpu0_DTLB TRANSLATION  ACCESS:          0  HIT:          0  MISS:          0  iACCESS:          0  iHIT:          0  iMISS:          0  dACCESS:          0  dHIT:          0  dMISS:          0  itACCESS:          0  itHIT:          0  itMISS:          0  dtACCESS:          0  dtHIT:          0  dtMISS:          0
cpu0_DTLB PREFETCH  REQUESTED:          0  ISSUED:          0  CROSSED:          0  USEFUL:          0  USELESS:          0
cpu0_DTLB AVERAGE iMISS LATENCY: 0 cycles
cpu0_DTLB AVERAGE dMISS LATENCY: 17.6376 cycles
cpu0_DTLB AVERAGE itMISS LATENCY: 0 cycles
cpu0_DTLB AVERAGE dtMISS LATENCY: 0 cycles
cpu0_DTLB PAGE CROSSINGS (TLB HIT):         0 
cpu0_DTLB PAGE CROSSINGS (TLB MISS):         0 
cpu0_DTLB AVERAGE MISS LATENCY: 17.6376 cycles
cpu0_STLB TOTAL       ACCESS:    2434396  HIT:    2063956  MISS:     370440  iACCESS:     478904  iHIT:     359272  iMISS:     119632  dACCESS:    1955492  dHIT:    1704684  dMISS:     250808  itACCESS:          0  itHIT:          0  itMISS:          0  dtACCESS:          0  dtHIT:          0  dtMISS:          0
cpu0_STLB LOAD         ACCESS:    2434396  HIT:    2063956  MISS:     370440  iACCESS:     478904  iHIT:     359272  iMISS:     119632  dACCESS:    1955492  dHIT:    1704684  dMISS:     250808  itACCESS:          0  itHIT:          0  itMISS:          0  dtACCESS:          0  dtHIT:          0  dtMISS:          0
cpu0_STLB RFO          ACCESS:          0  HIT:          0  MISS:          0  iACCESS:          0  iHIT:          0  iMISS:          0  dACCESS:          0  dHIT:          0  dMISS:          0  itACCESS:          0  itHIT:          0  itMISS:          0  dtACCESS:          0  dtHIT:          0  dtMISS:          0
cpu0_STLB PREFETCH     ACCESS:          0  HIT:          0  MISS:          0  iACCESS:          0  iHIT:          0  iMISS:          0  dACCESS:          0  dHIT:          0  dMISS:          0  itACCESS:          0  itHIT:          0  itMISS:          0  dtACCESS:          0  dtHIT:          0  dtMISS:          0
cpu0_STLB WRITE        ACCESS:          0  HIT:          0  MISS:          0  iACCESS:          0  iHIT:          0  iMISS:          0  dACCESS:          0  dHIT:          0  dMISS:          0  itACCESS:          0  itHIT:          0  itMISS:          0  dtACCESS:          0  dtHIT:          0  dtMISS:          0
cpu0_STLB TRANSLATION  ACCESS:          0  HIT:          0  MISS:          0  iACCESS:          0  iHIT:          0  iMISS:          0  dACCESS:          0  dHIT:          0  dMISS:          0  itACCESS:          0  itHIT:          0  itMISS:          0  dtACCESS:          0  dtHIT:          0  dtMISS:          0
cpu0_STLB PREFETCH  REQUESTED:          0  ISSUED:          0  CROSSED:          0  USEFUL:          0  USELESS:          0
cpu0_STLB AVERAGE iMISS LATENCY: 37.3597 cycles
cpu0_STLB AVERAGE dMISS LATENCY: 120.919 cycles
cpu0_STLB AVERAGE itMISS LATENCY: 0 cycles
cpu0_STLB AVERAGE dtMISS LATENCY: 0 cycles
cpu0_STLB PAGE CROSSINGS (TLB HIT):         0 
cpu0_STLB PAGE CROSSINGS (TLB MISS):         0 
cpu0_STLB AVERAGE MISS LATENCY: 158.279 cycles
cpu0_L1D TOTAL       ACCESS:   44761482  HIT:   39288752  MISS:    5472730  iACCESS:          0  iHIT:          0  iMISS:          0  dACCESS:   44219171  dHIT:   39253967  dMISS:    4965204  itACCESS:     132496  itHIT:      15476  itMISS:     117020  dtACCESS:     409815  dtHIT:      19309  dtMISS:     390506
cpu0_L1D LOAD         ACCESS:   20124259  HIT:   17913087  MISS:    2211172  iACCESS:          0  iHIT:          0  iMISS:          0  dACCESS:   20124259  dHIT:   17913087  dMISS:    2211172  itACCESS:          0  itHIT:          0  itMISS:          0  dtACCESS:          0  dtHIT:          0  dtMISS:          0
cpu0_L1D RFO          ACCESS:          0  HIT:          0  MISS:          0  iACCESS:          0  iHIT:          0  iMISS:          0  dACCESS:          0  dHIT:          0  dMISS:          0  itACCESS:          0  itHIT:          0  itMISS:          0  dtACCESS:          0  dtHIT:          0  dtMISS:          0
cpu0_L1D PREFETCH     ACCESS:   13835464  HIT:   11660607  MISS:    2174857  iACCESS:          0  iHIT:          0  iMISS:          0  dACCESS:   13835464  dHIT:   11660607  dMISS:    2174857  itACCESS:          0  itHIT:          0  itMISS:          0  dtACCESS:          0  dtHIT:          0  dtMISS:          0
cpu0_L1D WRITE        ACCESS:   10259448  HIT:    9680273  MISS:     579175  iACCESS:          0  iHIT:          0  iMISS:          0  dACCESS:   10259448  dHIT:    9680273  dMISS:     579175  itACCESS:          0  itHIT:          0  itMISS:          0  dtACCESS:          0  dtHIT:          0  dtMISS:          0
cpu0_L1D TRANSLATION  ACCESS:     542311  HIT:      34785  MISS:     507526  iACCESS:          0  iHIT:          0  iMISS:          0  dACCESS:          0  dHIT:          0  dMISS:          0  itACCESS:     132496  itHIT:      15476  itMISS:     117020  dtACCESS:     409815  dtHIT:      19309  dtMISS:     390506
cpu0_L1D PREFETCH  REQUESTED:   20124259  ISSUED:   18407587  CROSSED:          0  USEFUL:     366538  USELESS:     914974
cpu0_L1D AVERAGE iMISS LATENCY: 0 cycles
cpu0_L1D AVERAGE dMISS LATENCY: 51.5314 cycles
cpu0_L1D AVERAGE itMISS LATENCY: 2.32542 cycles
cpu0_L1D AVERAGE dtMISS LATENCY: 7.18284 cycles
cpu0_L1D PAGE CROSSINGS (TLB HIT):         0 
cpu0_L1D PAGE CROSSINGS (TLB MISS):         0 
cpu0_L1D AVERAGE MISS LATENCY: 61.0396 cycles
cpu0_L2C TOTAL       ACCESS:    8554336  HIT:    1512456  MISS:    7041880  iACCESS:    3788314  iHIT:     814182  iMISS:    2974132  dACCESS:    4286965  dHIT:     509042  dMISS:    3777923  itACCESS:     116931  itHIT:      42643  itMISS:      74288  dtACCESS:     362126  dtHIT:     146589  dtMISS:     215537
cpu0_L2C LOAD         ACCESS:    2050729  HIT:     206652  MISS:    1844077  iACCESS:     849509  iHIT:     120671  iMISS:     728838  dACCESS:    1201220  dHIT:      85981  dMISS:    1115239  itACCESS:          0  itHIT:          0  itMISS:          0  dtACCESS:          0  dtHIT:          0  dtMISS:          0
cpu0_L2C RFO          ACCESS:     218914  HIT:      28344  MISS:     190570  iACCESS:          0  iHIT:          0  iMISS:          0  dACCESS:     218914  dHIT:      28344  dMISS:     190570  itACCESS:          0  itHIT:          0  itMISS:          0  dtACCESS:          0  dtHIT:          0  dtMISS:          0
cpu0_L2C PREFETCH     ACCESS:    5458443  HIT:     988136  MISS:    4470307  iACCESS:    2938805  iHIT:     693511  iMISS:    2245294  dACCESS:    2519638  dHIT:     294625  dMISS:    2225013  itACCESS:          0  itHIT:          0  itMISS:          0  dtACCESS:          0  dtHIT:          0  dtMISS:          0
cpu0_L2C WRITE        ACCESS:     347193  HIT:     100092  MISS:     247101  iACCESS:          0  iHIT:          0  iMISS:          0  dACCESS:     347193  dHIT:     100092  dMISS:     247101  itACCESS:          0  itHIT:          0  itMISS:          0  dtACCESS:          0  dtHIT:          0  dtMISS:          0
cpu0_L2C TRANSLATION  ACCESS:     479057  HIT:     189232  MISS:     289825  iACCESS:          0  iHIT:          0  iMISS:          0  dACCESS:          0  dHIT:          0  dMISS:          0  itACCESS:     116931  itHIT:      42643  itMISS:      74288  dtACCESS:     362126  dtHIT:     146589  dtMISS:     215537
cpu0_L2C PREFETCH  REQUESTED:    1472698  ISSUED:    1472698  CROSSED:          0  USEFUL:     402356  USELESS:     482004
cpu0_L2C AVERAGE iMISS LATENCY: 26.5814 cycles
cpu0_L2C AVERAGE dMISS LATENCY: 49.2075 cycles
cpu0_L2C AVERAGE itMISS LATENCY: 1.64684 cycles
cpu0_L2C AVERAGE dtMISS LATENCY: 5.08651 cycles
cpu0_L2C PAGE CROSSINGS (TLB HIT):         0 
cpu0_L2C PAGE CROSSINGS (TLB MISS):         0 
cpu0_L2C AVERAGE MISS LATENCY: 82.5222 cycles
LLC TOTAL       ACCESS:    6857005  HIT:    4189047  MISS:    2667958  iACCESS:    2883388  iHIT:    2040273  iMISS:     843115  dACCESS:    3683792  dHIT:    2081624  dMISS:    1602168  itACCESS:      74288  itHIT:      17191  itMISS:      57097  dtACCESS:     215537  dtHIT:      49959  dtMISS:     165578
LLC LOAD         ACCESS:    1838298  HIT:    1197112  MISS:     641186  iACCESS:     727439  iHIT:     550227  iMISS:     177212  dACCESS:    1110859  dHIT:     646885  dMISS:     463974  itACCESS:          0  itHIT:          0  itMISS:          0  dtACCESS:          0  dtHIT:          0  dtMISS:          0
LLC RFO          ACCESS:     190556  HIT:      95812  MISS:      94744  iACCESS:          0  iHIT:          0  iMISS:          0  dACCESS:     190556  dHIT:      95812  dMISS:      94744  itACCESS:          0  itHIT:          0  itMISS:          0  dtACCESS:          0  dtHIT:          0  dtMISS:          0
LLC PREFETCH     ACCESS:    4263081  HIT:    2561528  MISS:    1701553  iACCESS:    2155949  iHIT:    1490046  iMISS:     665903  dACCESS:    2107132  dHIT:    1071482  dMISS:    1035650  itACCESS:          0  itHIT:          0  itMISS:          0  dtACCESS:          0  dtHIT:          0  dtMISS:          0
LLC WRITE        ACCESS:     275245  HIT:     267445  MISS:       7800  iACCESS:          0  iHIT:          0  iMISS:          0  dACCESS:     275245  dHIT:     267445  dMISS:       7800  itACCESS:          0  itHIT:          0  itMISS:          0  dtACCESS:          0  dtHIT:          0  dtMISS:          0
LLC TRANSLATION  ACCESS:     289825  HIT:      67150  MISS:     222675  iACCESS:          0  iHIT:          0  iMISS:          0  dACCESS:          0  dHIT:          0  dMISS:          0  itACCESS:      74288  itHIT:      17191  itMISS:      57097  dtACCESS:     215537  dtHIT:      49959  dtMISS:     165578
LLC PREFETCH  REQUESTED:          0  ISSUED:          0  CROSSED:          0  USEFUL:          0  USELESS:          0
LLC AVERAGE iMISS LATENCY: 49.1777 cycles
LLC AVERAGE dMISS LATENCY: 105.637 cycles
LLC AVERAGE itMISS LATENCY: 3.79806 cycles
LLC AVERAGE dtMISS LATENCY: 11.8343 cycles
LLC PAGE CROSSINGS (TLB HIT):         0 
LLC PAGE CROSSINGS (TLB MISS):         0 
LLC AVERAGE MISS LATENCY: 170.447 cycles

PageTableWalker TOTAL       ACCESS:     133664  
PageTableWalker AVERAGE LATENCY: 5.96778 cycles
PageTableWalker TOTAL LATENCY: 797677 cycles

DRAM Statistics
Channel 0
 RQ ROW_BUFFER_HIT:     612061
  ROW_BUFFER_MISS:    2037297
 AVG DBUS CONGESTED CYCLE:    3.65384
 WQ ROW_BUFFER_HIT:      64177
  ROW_BUFFER_MISS:      62211  FULL:          0

