last_page:0x200000000000000
VMEM_RES_CAP:0x100000
PAGE_SIZE:4096
LOG2_PAGE_SIZE:12
LOG2_PAGE_TABLE_SIZE:9
page_table_levels:5
WARNING: physical memory size is smaller than virtual memory size
FDiP enabled with aggresivity 16

*** ChampSim Multicore Out-of-Order Simulator ***

Warmup Instructions: 50000000
Simulation Instructions: 100000000
Number of CPUs: 1
Small page size: 4096
Large page size: 2097152

CPU 0 Bimodal branch predictor
Basic BTB sets: 1024 ways: 8 indirect buffer size: 4096 RAS size: 64
Instruction page size distrubution: 0
Loading instruction page size distribution from /home/bsc/bsc018186/scratch/itp_asplos25_AE/dump/smt_srv85_ap_srv180_ap_1024i.pdst
Data page size distrubution: 0
Loading data page size distribution from /home/bsc/bsc018186/scratch/itp_asplos25_AE/dump/smt_srv85_ap_srv180_ap_1024i.pdst
cpu0_L2C IP-based stride prefetcher
cpu0_L1D next line prefetcher
CHiRPing...
cpu0_L1I next line prefetcher
Off-chip DRAM Size: 4 GiB Channels: 1 Width: 64-bit Data Rate: 3200 MT/s
Heartbeat CPU 0 instructions: 10000000 cycles: 2500737 heartbeat IPC: 3.99883 cumulative IPC: 3.99883 (Simulation time: 0 hr 0 min 41 sec) 
Heartbeat CPU 0 instructions: 20000002 cycles: 5000928 heartbeat IPC: 3.9997 cumulative IPC: 3.99926 (Simulation time: 0 hr 1 min 25 sec) 
Heartbeat CPU 0 instructions: 30000001 cycles: 7501304 heartbeat IPC: 3.9994 cumulative IPC: 3.99931 (Simulation time: 0 hr 2 min 8 sec) 
Heartbeat CPU 0 instructions: 40000002 cycles: 10001735 heartbeat IPC: 3.99932 cumulative IPC: 3.99931 (Simulation time: 0 hr 2 min 52 sec) 
Heartbeat CPU 0 instructions: 50000003 cycles: 12501910 heartbeat IPC: 3.99973 cumulative IPC: 3.99939 (Simulation time: 0 hr 3 min 37 sec) 
Warmup finished CPU 0 instructions: 50000003 cycles: 12501911 cumulative IPC: 3.99939 (Simulation time: 0 hr 3 min 37 sec) 

Warmup complete CPU 0 instructions: 50000003 cycles: 12501911 (Simulation time: 0 hr 3 min 37 sec) 

Heartbeat CPU 0 instructions: 60000004 cycles: 41915729 heartbeat IPC: 0.339977 cumulative IPC: 0.339977 (Simulation time: 0 hr 5 min 6 sec) 
Heartbeat CPU 0 instructions: 70000003 cycles: 70575979 heartbeat IPC: 0.348916 cumulative IPC: 0.344388 (Simulation time: 0 hr 6 min 36 sec) 
Heartbeat CPU 0 instructions: 80000000 cycles: 100473685 heartbeat IPC: 0.334474 cumulative IPC: 0.341019 (Simulation time: 0 hr 8 min 6 sec) 
Heartbeat CPU 0 instructions: 90000002 cycles: 130118957 heartbeat IPC: 0.337322 cumulative IPC: 0.340087 (Simulation time: 0 hr 9 min 37 sec) 
Heartbeat CPU 0 instructions: 100000000 cycles: 159586518 heartbeat IPC: 0.339357 cumulative IPC: 0.339941 (Simulation time: 0 hr 11 min 8 sec) 
Heartbeat CPU 0 instructions: 110000000 cycles: 189638786 heartbeat IPC: 0.332754 cumulative IPC: 0.338722 (Simulation time: 0 hr 12 min 40 sec) 
Heartbeat CPU 0 instructions: 120000002 cycles: 218870575 heartbeat IPC: 0.342094 cumulative IPC: 0.339199 (Simulation time: 0 hr 14 min 14 sec) 
Heartbeat CPU 0 instructions: 130000000 cycles: 246809076 heartbeat IPC: 0.357929 cumulative IPC: 0.341433 (Simulation time: 0 hr 15 min 42 sec) 
Heartbeat CPU 0 instructions: 140000002 cycles: 276317748 heartbeat IPC: 0.338884 cumulative IPC: 0.341148 (Simulation time: 0 hr 17 min 12 sec) 
Heartbeat CPU 0 instructions: 150000000 cycles: 305581813 heartbeat IPC: 0.341716 cumulative IPC: 0.341204 (Simulation time: 0 hr 18 min 42 sec) 
Simulation finished CPU 0 instructions: 100000002 cycles: 293079904 cumulative IPC: 0.341204 (Simulation time: 0 hr 18 min 42 sec) 

Simulation complete CPU 0 instructions: 100000002 cycles: 293079904 (Simulation time: 0 hr 18 min 42 sec) 


ChampSim completed all CPUs

Saving instructions large page distribution to /home/bsc/bsc018186/scratch/itp_asplos25_AE/dump/smt_srv85_ap_srv180_ap_1024i.pdst...
Saving data large page distribution to /home/bsc/bsc018186/scratch/itp_asplos25_AE/dump/smt_srv85_ap_srv180_ap_1024i.pdst...
=== Simulation ===
CPU 0 runs /gpfs/projects/bsc18/MN4/bsc18/romol/ChampSim/traces/qualcomm_srv/smt_srv85_ap_srv180_ap_1024i.champsimtrace.xz

Region of Interest Statistics

CPU 0 cumulative IPC: 0.341204 instructions: 100000002 cycles: 293079904
CPU 0 Branch Prediction Accuracy: 75.818% MPKI: 43.4496 Average ROB Occupancy at Mispredict: 11.4382
Branch type MPKI
BRANCH_DIRECT_JUMP: 1.30954
BRANCH_INDIRECT: 22.6756
BRANCH_CONDITIONAL: 12.6136
BRANCH_DIRECT_CALL: 2.49478
BRANCH_INDIRECT_CALL: 0.92066
BRANCH_RETURN: 3.43539

Instructions large pages: 0
Instructions small pages: 13336
Large page distribution for instructions: 0%

Data large pages: 0
Data small pages: 12088
Large page distribution for data: 0%

cpu0_L1I TOTAL       ACCESS:   39077406  HIT:   30392397  MISS:    8685009  iACCESS:   39077406  iHIT:   30392397  iMISS:    8685009  dACCESS:          0  dHIT:          0  dMISS:          0  itACCESS:          0  itHIT:          0  itMISS:          0  dtACCESS:          0  dtHIT:          0  dtMISS:          0
cpu0_L1I LOAD         ACCESS:   11756789  HIT:    9386073  MISS:    2370716  iACCESS:   11756789  iHIT:    9386073  iMISS:    2370716  dACCESS:          0  dHIT:          0  dMISS:          0  itACCESS:          0  itHIT:          0  itMISS:          0  dtACCESS:          0  dtHIT:          0  dtMISS:          0
cpu0_L1I RFO          ACCESS:          0  HIT:          0  MISS:          0  iACCESS:          0  iHIT:          0  iMISS:          0  dACCESS:          0  dHIT:          0  dMISS:          0  itACCESS:          0  itHIT:          0  itMISS:          0  dtACCESS:          0  dtHIT:          0  dtMISS:          0
cpu0_L1I PREFETCH     ACCESS:   27320617  HIT:   21006324  MISS:    6314293  iACCESS:   27320617  iHIT:   21006324  iMISS:    6314293  dACCESS:          0  dHIT:          0  dMISS:          0  itACCESS:          0  itHIT:          0  itMISS:          0  dtACCESS:          0  dtHIT:          0  dtMISS:          0
cpu0_L1I WRITE        ACCESS:          0  HIT:          0  MISS:          0  iACCESS:          0  iHIT:          0  iMISS:          0  dACCESS:          0  dHIT:          0  dMISS:          0  itACCESS:          0  itHIT:          0  itMISS:          0  dtACCESS:          0  dtHIT:          0  dtMISS:          0
cpu0_L1I TRANSLATION  ACCESS:          0  HIT:          0  MISS:          0  iACCESS:          0  iHIT:          0  iMISS:          0  dACCESS:          0  dHIT:          0  dMISS:          0  itACCESS:          0  itHIT:          0  itMISS:          0  dtACCESS:          0  dtHIT:          0  dtMISS:          0
cpu0_L1I PREFETCH  REQUESTED:   30193878  ISSUED:   30193739  CROSSED:          0  USEFUL:    2195377  USELESS:     753136
cpu0_L1I AVERAGE iMISS LATENCY: 23.4693 cycles
cpu0_L1I AVERAGE dMISS LATENCY: 0 cycles
cpu0_L1I AVERAGE itMISS LATENCY: 0 cycles
cpu0_L1I AVERAGE dtMISS LATENCY: 0 cycles
cpu0_L1I PAGE CROSSINGS (TLB HIT):         0 
cpu0_L1I PAGE CROSSINGS (TLB MISS):         0 
cpu0_L1I AVERAGE MISS LATENCY: 23.4693 cycles
cpu0_ITLB TOTAL       ACCESS:   32980356  HIT:   30777471  MISS:    2202885  iACCESS:   32980356  iHIT:   30777471  iMISS:    2202885  dACCESS:          0  dHIT:          0  dMISS:          0  itACCESS:          0  itHIT:          0  itMISS:          0  dtACCESS:          0  dtHIT:          0  dtMISS:          0
cpu0_ITLB LOAD         ACCESS:   32980356  HIT:   30777471  MISS:    2202885  iACCESS:   32980356  iHIT:   30777471  iMISS:    2202885  dACCESS:          0  dHIT:          0  dMISS:          0  itACCESS:          0  itHIT:          0  itMISS:          0  dtACCESS:          0  dtHIT:          0  dtMISS:          0
cpu0_ITLB RFO          ACCESS:          0  HIT:          0  MISS:          0  iACCESS:          0  iHIT:          0  iMISS:          0  dACCESS:          0  dHIT:          0  dMISS:          0  itACCESS:          0  itHIT:          0  itMISS:          0  dtACCESS:          0  dtHIT:          0  dtMISS:          0
cpu0_ITLB PREFETCH     ACCESS:          0  HIT:          0  MISS:          0  iACCESS:          0  iHIT:          0  iMISS:          0  dACCESS:          0  dHIT:          0  dMISS:          0  itACCESS:          0  itHIT:          0  itMISS:          0  dtACCESS:          0  dtHIT:          0  dtMISS:          0
cpu0_ITLB WRITE        ACCESS:          0  HIT:          0  MISS:          0  iACCESS:          0  iHIT:          0  iMISS:          0  dACCESS:          0  dHIT:          0  dMISS:          0  itACCESS:          0  itHIT:          0  itMISS:          0  dtACCESS:          0  dtHIT:          0  dtMISS:          0
cpu0_ITLB TRANSLATION  ACCESS:          0  HIT:          0  MISS:          0  iACCESS:          0  iHIT:          0  iMISS:          0  dACCESS:          0  dHIT:          0  dMISS:          0  itACCESS:          0  itHIT:          0  itMISS:          0  dtACCESS:          0  dtHIT:          0  dtMISS:          0
cpu0_ITLB PREFETCH  REQUESTED:          0  ISSUED:          0  CROSSED:          0  USEFUL:     383526  USELESS:      77381
cpu0_ITLB AVERAGE iMISS LATENCY: 9.94429 cycles
cpu0_ITLB AVERAGE dMISS LATENCY: 0 cycles
cpu0_ITLB AVERAGE itMISS LATENCY: 0 cycles
cpu0_ITLB AVERAGE dtMISS LATENCY: 0 cycles
cpu0_ITLB PAGE CROSSINGS (TLB HIT):         0 
cpu0_ITLB PAGE CROSSINGS (TLB MISS):         0 
cpu0_ITLB AVERAGE MISS LATENCY: 9.94429 cycles
cpu0_DTLB TOTAL       ACCESS:   28756182  HIT:   25068452  MISS:    3687730  iACCESS:          0  iHIT:          0  iMISS:          0  dACCESS:   28756182  dHIT:   25068452  dMISS:    3687730  itACCESS:          0  itHIT:          0  itMISS:          0  dtACCESS:          0  dtHIT:          0  dtMISS:          0
cpu0_DTLB LOAD         ACCESS:   28756182  HIT:   25068452  MISS:    3687730  iACCESS:          0  iHIT:          0  iMISS:          0  dACCESS:   28756182  dHIT:   25068452  dMISS:    3687730  itACCESS:          0  itHIT:          0  itMISS:          0  dtACCESS:          0  dtHIT:          0  dtMISS:          0
cpu0_DTLB RFO          ACCESS:          0  HIT:          0  MISS:          0  iACCESS:          0  iHIT:          0  iMISS:          0  dACCESS:          0  dHIT:          0  dMISS:          0  itACCESS:          0  itHIT:          0  itMISS:          0  dtACCESS:          0  dtHIT:          0  dtMISS:          0
cpu0_DTLB PREFETCH     ACCESS:          0  HIT:          0  MISS:          0  iACCESS:          0  iHIT:          0  iMISS:          0  dACCESS:          0  dHIT:          0  dMISS:          0  itACCESS:          0  itHIT:          0  itMISS:          0  dtACCESS:          0  dtHIT:          0  dtMISS:          0
cpu0_DTLB WRITE        ACCESS:          0  HIT:          0  MISS:          0  iACCESS:          0  iHIT:          0  iMISS:          0  dACCESS:          0  dHIT:          0  dMISS:          0  itACCESS:          0  itHIT:          0  itMISS:          0  dtACCESS:          0  dtHIT:          0  dtMISS:          0
cpu0_DTLB TRANSLATION  ACCESS:          0  HIT:          0  MISS:          0  iACCESS:          0  iHIT:          0  iMISS:          0  dACCESS:          0  dHIT:          0  dMISS:          0  itACCESS:          0  itHIT:          0  itMISS:          0  dtACCESS:          0  dtHIT:          0  dtMISS:          0
cpu0_DTLB PREFETCH  REQUESTED:          0  ISSUED:          0  CROSSED:          0  USEFUL:          0  USELESS:          0
cpu0_DTLB AVERAGE iMISS LATENCY: 0 cycles
cpu0_DTLB AVERAGE dMISS LATENCY: 24.6163 cycles
cpu0_DTLB AVERAGE itMISS LATENCY: 0 cycles
cpu0_DTLB AVERAGE dtMISS LATENCY: 0 cycles
cpu0_DTLB PAGE CROSSINGS (TLB HIT):         0 
cpu0_DTLB PAGE CROSSINGS (TLB MISS):         0 
cpu0_DTLB AVERAGE MISS LATENCY: 24.6163 cycles
cpu0_STLB TOTAL       ACCESS:    2608854  HIT:    2239326  MISS:     369528  iACCESS:     460914  iHIT:     352790  iMISS:     108124  dACCESS:    2147940  dHIT:    1886536  dMISS:     261404  itACCESS:          0  itHIT:          0  itMISS:          0  dtACCESS:          0  dtHIT:          0  dtMISS:          0
cpu0_STLB LOAD         ACCESS:    2608854  HIT:    2239326  MISS:     369528  iACCESS:     460914  iHIT:     352790  iMISS:     108124  dACCESS:    2147940  dHIT:    1886536  dMISS:     261404  itACCESS:          0  itHIT:          0  itMISS:          0  dtACCESS:          0  dtHIT:          0  dtMISS:          0
cpu0_STLB RFO          ACCESS:          0  HIT:          0  MISS:          0  iACCESS:          0  iHIT:          0  iMISS:          0  dACCESS:          0  dHIT:          0  dMISS:          0  itACCESS:          0  itHIT:          0  itMISS:          0  dtACCESS:          0  dtHIT:          0  dtMISS:          0
cpu0_STLB PREFETCH     ACCESS:          0  HIT:          0  MISS:          0  iACCESS:          0  iHIT:          0  iMISS:          0  dACCESS:          0  dHIT:          0  dMISS:          0  itACCESS:          0  itHIT:          0  itMISS:          0  dtACCESS:          0  dtHIT:          0  dtMISS:          0
cpu0_STLB WRITE        ACCESS:          0  HIT:          0  MISS:          0  iACCESS:          0  iHIT:          0  iMISS:          0  dACCESS:          0  dHIT:          0  dMISS:          0  itACCESS:          0  itHIT:          0  itMISS:          0  dtACCESS:          0  dtHIT:          0  dtMISS:          0
cpu0_STLB TRANSLATION  ACCESS:          0  HIT:          0  MISS:          0  iACCESS:          0  iHIT:          0  iMISS:          0  dACCESS:          0  dHIT:          0  dMISS:          0  itACCESS:          0  itHIT:          0  itMISS:          0  dtACCESS:          0  dtHIT:          0  dtMISS:          0
cpu0_STLB PREFETCH  REQUESTED:          0  ISSUED:          0  CROSSED:          0  USEFUL:          0  USELESS:          0
cpu0_STLB AVERAGE iMISS LATENCY: 49.3146 cycles
cpu0_STLB AVERAGE dMISS LATENCY: 198.892 cycles
cpu0_STLB AVERAGE itMISS LATENCY: 0 cycles
cpu0_STLB AVERAGE dtMISS LATENCY: 0 cycles
cpu0_STLB PAGE CROSSINGS (TLB HIT):         0 
cpu0_STLB PAGE CROSSINGS (TLB MISS):         0 
cpu0_STLB AVERAGE MISS LATENCY: 248.207 cycles
cpu0_L1D TOTAL       ACCESS:   44327012  HIT:   39072710  MISS:    5254302  iACCESS:          0  iHIT:          0  iMISS:          0  dACCESS:   43784796  dHIT:   39038441  dMISS:    4746355  itACCESS:     122009  itHIT:      14362  itMISS:     107647  dtACCESS:     420207  dtHIT:      19907  dtMISS:     400300
cpu0_L1D LOAD         ACCESS:   19967635  HIT:   17849941  MISS:    2117694  iACCESS:          0  iHIT:          0  iMISS:          0  dACCESS:   19967635  dHIT:   17849941  dMISS:    2117694  itACCESS:          0  itHIT:          0  itMISS:          0  dtACCESS:          0  dtHIT:          0  dtMISS:          0
cpu0_L1D RFO          ACCESS:          0  HIT:          0  MISS:          0  iACCESS:          0  iHIT:          0  iMISS:          0  dACCESS:          0  dHIT:          0  dMISS:          0  itACCESS:          0  itHIT:          0  itMISS:          0  dtACCESS:          0  dtHIT:          0  dtMISS:          0
cpu0_L1D PREFETCH     ACCESS:   13681575  HIT:   11608891  MISS:    2072684  iACCESS:          0  iHIT:          0  iMISS:          0  dACCESS:   13681575  dHIT:   11608891  dMISS:    2072684  itACCESS:          0  itHIT:          0  itMISS:          0  dtACCESS:          0  dtHIT:          0  dtMISS:          0
cpu0_L1D WRITE        ACCESS:   10135586  HIT:    9579609  MISS:     555977  iACCESS:          0  iHIT:          0  iMISS:          0  dACCESS:   10135586  dHIT:    9579609  dMISS:     555977  itACCESS:          0  itHIT:          0  itMISS:          0  dtACCESS:          0  dtHIT:          0  dtMISS:          0
cpu0_L1D TRANSLATION  ACCESS:     542216  HIT:      34269  MISS:     507947  iACCESS:          0  iHIT:          0  iMISS:          0  dACCESS:          0  dHIT:          0  dMISS:          0  itACCESS:     122009  itHIT:      14362  itMISS:     107647  dtACCESS:     420207  dtHIT:      19907  dtMISS:     400300
cpu0_L1D PREFETCH  REQUESTED:   19967635  ISSUED:   18332537  CROSSED:          0  USEFUL:     357504  USELESS:     933538
cpu0_L1D AVERAGE iMISS LATENCY: 0 cycles
cpu0_L1D AVERAGE dMISS LATENCY: 51.9087 cycles
cpu0_L1D AVERAGE itMISS LATENCY: 3.27758 cycles
cpu0_L1D AVERAGE dtMISS LATENCY: 12.9694 cycles
cpu0_L1D PAGE CROSSINGS (TLB HIT):         0 
cpu0_L1D PAGE CROSSINGS (TLB MISS):         0 
cpu0_L1D AVERAGE MISS LATENCY: 68.1556 cycles
cpu0_L2C TOTAL       ACCESS:    8554530  HIT:    4180346  MISS:    4374184  iACCESS:    3753098  iHIT:    2291072  iMISS:    1462026  dACCESS:    4319059  dHIT:    1830612  dMISS:    2488447  itACCESS:     106992  itHIT:      19349  itMISS:      87643  dtACCESS:     375381  dtHIT:      39313  dtMISS:     336068
cpu0_L2C LOAD         ACCESS:    2052062  HIT:    1015101  MISS:    1036961  iACCESS:     843217  iHIT:     539262  iMISS:     303955  dACCESS:    1208845  dHIT:     475839  dMISS:     733006  itACCESS:          0  itHIT:          0  itMISS:          0  dtACCESS:          0  dtHIT:          0  dtMISS:          0
cpu0_L2C RFO          ACCESS:     209766  HIT:      82847  MISS:     126919  iACCESS:          0  iHIT:          0  iMISS:          0  dACCESS:     209766  dHIT:      82847  dMISS:     126919  itACCESS:          0  itHIT:          0  itMISS:          0  dtACCESS:          0  dtHIT:          0  dtMISS:          0
cpu0_L2C PREFETCH     ACCESS:    5463426  HIT:    2681201  MISS:    2782225  iACCESS:    2909881  iHIT:    1751810  iMISS:    1158071  dACCESS:    2553545  dHIT:     929391  dMISS:    1624154  itACCESS:          0  itHIT:          0  itMISS:          0  dtACCESS:          0  dtHIT:          0  dtMISS:          0
cpu0_L2C WRITE        ACCESS:     346903  HIT:     342535  MISS:       4368  iACCESS:          0  iHIT:          0  iMISS:          0  dACCESS:     346903  dHIT:     342535  dMISS:       4368  itACCESS:          0  itHIT:          0  itMISS:          0  dtACCESS:          0  dtHIT:          0  dtMISS:          0
cpu0_L2C TRANSLATION  ACCESS:     482373  HIT:      58662  MISS:     423711  iACCESS:          0  iHIT:          0  iMISS:          0  dACCESS:          0  dHIT:          0  dMISS:          0  itACCESS:     106992  itHIT:      19349  itMISS:      87643  dtACCESS:     375381  dtHIT:      39313  dtMISS:     336068
cpu0_L2C PREFETCH  REQUESTED:    1509589  ISSUED:    1509584  CROSSED:          0  USEFUL:     360483  USELESS:     322829
cpu0_L2C AVERAGE iMISS LATENCY: 39.2954 cycles
cpu0_L2C AVERAGE dMISS LATENCY: 77.6723 cycles
cpu0_L2C AVERAGE itMISS LATENCY: 3.69618 cycles
cpu0_L2C AVERAGE dtMISS LATENCY: 14.7247 cycles
cpu0_L2C PAGE CROSSINGS (TLB HIT):         0 
cpu0_L2C PAGE CROSSINGS (TLB MISS):         0 
cpu0_L2C AVERAGE MISS LATENCY: 135.389 cycles
LLC TOTAL       ACCESS:    4373722  HIT:    1393404  MISS:    2980318  iACCESS:    1369403  iHIT:     450549  iMISS:     918854  dACCESS:    2580608  dHIT:     899452  dMISS:    1681156  itACCESS:      87643  itHIT:       6851  itMISS:      80792  dtACCESS:     336068  dtHIT:      36552  dtMISS:     299516
LLC LOAD         ACCESS:    1031643  HIT:     350414  MISS:     681229  iACCESS:     302831  iHIT:     108111  iMISS:     194720  dACCESS:     728812  dHIT:     242303  dMISS:     486509  itACCESS:          0  itHIT:          0  itMISS:          0  dtACCESS:          0  dtHIT:          0  dtMISS:          0
LLC RFO          ACCESS:     126915  HIT:      39677  MISS:      87238  iACCESS:          0  iHIT:          0  iMISS:          0  dACCESS:     126915  dHIT:      39677  dMISS:      87238  itACCESS:          0  itHIT:          0  itMISS:          0  dtACCESS:          0  dtHIT:          0  dtMISS:          0
LLC PREFETCH     ACCESS:    2575603  HIT:     754988  MISS:    1820615  iACCESS:    1066572  iHIT:     342438  iMISS:     724134  dACCESS:    1509031  dHIT:     412550  dMISS:    1096481  itACCESS:          0  itHIT:          0  itMISS:          0  dtACCESS:          0  dtHIT:          0  dtMISS:          0
LLC WRITE        ACCESS:     215850  HIT:     204922  MISS:      10928  iACCESS:          0  iHIT:          0  iMISS:          0  dACCESS:     215850  dHIT:     204922  dMISS:      10928  itACCESS:          0  itHIT:          0  itMISS:          0  dtACCESS:          0  dtHIT:          0  dtMISS:          0
LLC TRANSLATION  ACCESS:     423711  HIT:      43403  MISS:     380308  iACCESS:          0  iHIT:          0  iMISS:          0  dACCESS:          0  dHIT:          0  dMISS:          0  itACCESS:      87643  itHIT:       6851  itMISS:      80792  dtACCESS:     336068  dtHIT:      36552  dtMISS:     299516
LLC PREFETCH  REQUESTED:          0  ISSUED:          0  CROSSED:          0  USEFUL:          0  USELESS:          0
LLC AVERAGE iMISS LATENCY: 48.6274 cycles
LLC AVERAGE dMISS LATENCY: 99.0316 cycles
LLC AVERAGE itMISS LATENCY: 4.84172 cycles
LLC AVERAGE dtMISS LATENCY: 19.3823 cycles
LLC PAGE CROSSINGS (TLB HIT):         0 
LLC PAGE CROSSINGS (TLB MISS):         0 
LLC AVERAGE MISS LATENCY: 171.883 cycles

PageTableWalker TOTAL       ACCESS:     184678  
PageTableWalker AVERAGE LATENCY: 6.5972 cycles
PageTableWalker TOTAL LATENCY: 1218356 cycles

DRAM Statistics
Channel 0
 RQ ROW_BUFFER_HIT:     631731
  ROW_BUFFER_MISS:    2327595
 AVG DBUS CONGESTED CYCLE:    3.64896
 WQ ROW_BUFFER_HIT:      65436
  ROW_BUFFER_MISS:      55803  FULL:          0

