last_page:0x200000000000000
VMEM_RES_CAP:0x100000
PAGE_SIZE:4096
LOG2_PAGE_SIZE:12
LOG2_PAGE_TABLE_SIZE:9
page_table_levels:5
WARNING: physical memory size is smaller than virtual memory size
FDiP enabled with aggresivity 16

*** ChampSim Multicore Out-of-Order Simulator ***

Warmup Instructions: 50000000
Simulation Instructions: 100000000
Number of CPUs: 1
Small page size: 4096
Large page size: 2097152

CPU 0 Bimodal branch predictor
Basic BTB sets: 1024 ways: 8 indirect buffer size: 4096 RAS size: 64
Instruction page size distrubution: 0
Loading instruction page size distribution from /home/bsc/bsc018186/scratch/itp_asplos25_AE/dump/smt_srv537_ap_srv526_ap_1024i.pdst
Data page size distrubution: 0
Loading data page size distribution from /home/bsc/bsc018186/scratch/itp_asplos25_AE/dump/smt_srv537_ap_srv526_ap_1024i.pdst
cpu0_L2C IP-based stride prefetcher
cpu0_L1D next line prefetcher
CHiRPing...
cpu0_L1I next line prefetcher
Off-chip DRAM Size: 4 GiB Channels: 1 Width: 64-bit Data Rate: 3200 MT/s
Heartbeat CPU 0 instructions: 10000003 cycles: 2500439 heartbeat IPC: 3.9993 cumulative IPC: 3.9993 (Simulation time: 0 hr 0 min 40 sec) 
Heartbeat CPU 0 instructions: 20000003 cycles: 5000836 heartbeat IPC: 3.99937 cumulative IPC: 3.99934 (Simulation time: 0 hr 1 min 21 sec) 
Heartbeat CPU 0 instructions: 30000003 cycles: 7584473 heartbeat IPC: 3.87052 cumulative IPC: 3.95545 (Simulation time: 0 hr 2 min 5 sec) 
Heartbeat CPU 0 instructions: 40000000 cycles: 10129421 heartbeat IPC: 3.92936 cumulative IPC: 3.9489 (Simulation time: 0 hr 2 min 50 sec) 
Heartbeat CPU 0 instructions: 50000003 cycles: 12655765 heartbeat IPC: 3.9583 cumulative IPC: 3.95077 (Simulation time: 0 hr 3 min 33 sec) 
Warmup finished CPU 0 instructions: 50000003 cycles: 12655766 cumulative IPC: 3.95077 (Simulation time: 0 hr 3 min 33 sec) 

Warmup complete CPU 0 instructions: 50000003 cycles: 12655766 (Simulation time: 0 hr 3 min 33 sec) 

Heartbeat CPU 0 instructions: 60000002 cycles: 39477312 heartbeat IPC: 0.372835 cumulative IPC: 0.372835 (Simulation time: 0 hr 4 min 56 sec) 
Heartbeat CPU 0 instructions: 70000004 cycles: 67540389 heartbeat IPC: 0.356341 cumulative IPC: 0.364401 (Simulation time: 0 hr 6 min 20 sec) 
Heartbeat CPU 0 instructions: 80000003 cycles: 94689820 heartbeat IPC: 0.368332 cumulative IPC: 0.365702 (Simulation time: 0 hr 7 min 43 sec) 
Heartbeat CPU 0 instructions: 90000000 cycles: 121100584 heartbeat IPC: 0.378634 cumulative IPC: 0.368852 (Simulation time: 0 hr 9 min 5 sec) 
Heartbeat CPU 0 instructions: 100000000 cycles: 148366378 heartbeat IPC: 0.36676 cumulative IPC: 0.368432 (Simulation time: 0 hr 10 min 29 sec) 
Heartbeat CPU 0 instructions: 110000000 cycles: 176732044 heartbeat IPC: 0.352539 cumulative IPC: 0.365684 (Simulation time: 0 hr 11 min 53 sec) 
Heartbeat CPU 0 instructions: 120000000 cycles: 203307338 heartbeat IPC: 0.37629 cumulative IPC: 0.367162 (Simulation time: 0 hr 13 min 16 sec) 
Heartbeat CPU 0 instructions: 130000002 cycles: 229884472 heartbeat IPC: 0.376264 cumulative IPC: 0.368276 (Simulation time: 0 hr 14 min 38 sec) 
Heartbeat CPU 0 instructions: 140000001 cycles: 257292981 heartbeat IPC: 0.364851 cumulative IPC: 0.367892 (Simulation time: 0 hr 16 min 2 sec) 
Heartbeat CPU 0 instructions: 150000002 cycles: 285509302 heartbeat IPC: 0.354405 cumulative IPC: 0.366497 (Simulation time: 0 hr 17 min 27 sec) 
Simulation finished CPU 0 instructions: 100000004 cycles: 272853538 cumulative IPC: 0.366498 (Simulation time: 0 hr 17 min 27 sec) 

Simulation complete CPU 0 instructions: 100000004 cycles: 272853538 (Simulation time: 0 hr 17 min 27 sec) 


ChampSim completed all CPUs

Saving instructions large page distribution to /home/bsc/bsc018186/scratch/itp_asplos25_AE/dump/smt_srv537_ap_srv526_ap_1024i.pdst...
Saving data large page distribution to /home/bsc/bsc018186/scratch/itp_asplos25_AE/dump/smt_srv537_ap_srv526_ap_1024i.pdst...
=== Simulation ===
CPU 0 runs /gpfs/projects/bsc18/MN4/bsc18/romol/ChampSim/traces/qualcomm_srv/smt_srv537_ap_srv526_ap_1024i.champsimtrace.xz

Region of Interest Statistics

CPU 0 cumulative IPC: 0.366498 instructions: 100000004 cycles: 272853538
CPU 0 Branch Prediction Accuracy: 75.7102% MPKI: 43.8363 Average ROB Occupancy at Mispredict: 10.5222
Branch type MPKI
BRANCH_DIRECT_JUMP: 1.42956
BRANCH_INDIRECT: 22.5855
BRANCH_CONDITIONAL: 12.6334
BRANCH_DIRECT_CALL: 2.6387
BRANCH_INDIRECT_CALL: 0.99801
BRANCH_RETURN: 3.55119

Instructions large pages: 0
Instructions small pages: 13979
Large page distribution for instructions: 0%

Data large pages: 0
Data small pages: 12573
Large page distribution for data: 0%

cpu0_L1I TOTAL       ACCESS:   39278733  HIT:   30031559  MISS:    9247174  iACCESS:   39278733  iHIT:   30031559  iMISS:    9247174  dACCESS:          0  dHIT:          0  dMISS:          0  itACCESS:          0  itHIT:          0  itMISS:          0  dtACCESS:          0  dtHIT:          0  dtMISS:          0
cpu0_L1I LOAD         ACCESS:   11685841  HIT:    9158006  MISS:    2527835  iACCESS:   11685841  iHIT:    9158006  iMISS:    2527835  dACCESS:          0  dHIT:          0  dMISS:          0  itACCESS:          0  itHIT:          0  itMISS:          0  dtACCESS:          0  dtHIT:          0  dtMISS:          0
cpu0_L1I RFO          ACCESS:          0  HIT:          0  MISS:          0  iACCESS:          0  iHIT:          0  iMISS:          0  dACCESS:          0  dHIT:          0  dMISS:          0  itACCESS:          0  itHIT:          0  itMISS:          0  dtACCESS:          0  dtHIT:          0  dtMISS:          0
cpu0_L1I PREFETCH     ACCESS:   27592892  HIT:   20873553  MISS:    6719339  iACCESS:   27592892  iHIT:   20873553  iMISS:    6719339  dACCESS:          0  dHIT:          0  dMISS:          0  itACCESS:          0  itHIT:          0  itMISS:          0  dtACCESS:          0  dtHIT:          0  dtMISS:          0
cpu0_L1I WRITE        ACCESS:          0  HIT:          0  MISS:          0  iACCESS:          0  iHIT:          0  iMISS:          0  dACCESS:          0  dHIT:          0  dMISS:          0  itACCESS:          0  itHIT:          0  itMISS:          0  dtACCESS:          0  dtHIT:          0  dtMISS:          0
cpu0_L1I TRANSLATION  ACCESS:          0  HIT:          0  MISS:          0  iACCESS:          0  iHIT:          0  iMISS:          0  dACCESS:          0  dHIT:          0  dMISS:          0  itACCESS:          0  itHIT:          0  itMISS:          0  dtACCESS:          0  dtHIT:          0  dtMISS:          0
cpu0_L1I PREFETCH  REQUESTED:   30170407  ISSUED:   30168942  CROSSED:          0  USEFUL:    2206693  USELESS:     766822
cpu0_L1I AVERAGE iMISS LATENCY: 23.8002 cycles
cpu0_L1I AVERAGE dMISS LATENCY: 0 cycles
cpu0_L1I AVERAGE itMISS LATENCY: 0 cycles
cpu0_L1I AVERAGE dtMISS LATENCY: 0 cycles
cpu0_L1I PAGE CROSSINGS (TLB HIT):         0 
cpu0_L1I PAGE CROSSINGS (TLB MISS):         0 
cpu0_L1I AVERAGE MISS LATENCY: 23.8002 cycles
cpu0_ITLB TOTAL       ACCESS:   33058015  HIT:   30792516  MISS:    2265499  iACCESS:   33058015  iHIT:   30792516  iMISS:    2265499  dACCESS:          0  dHIT:          0  dMISS:          0  itACCESS:          0  itHIT:          0  itMISS:          0  dtACCESS:          0  dtHIT:          0  dtMISS:          0
cpu0_ITLB LOAD         ACCESS:   33058015  HIT:   30792516  MISS:    2265499  iACCESS:   33058015  iHIT:   30792516  iMISS:    2265499  dACCESS:          0  dHIT:          0  dMISS:          0  itACCESS:          0  itHIT:          0  itMISS:          0  dtACCESS:          0  dtHIT:          0  dtMISS:          0
cpu0_ITLB RFO          ACCESS:          0  HIT:          0  MISS:          0  iACCESS:          0  iHIT:          0  iMISS:          0  dACCESS:          0  dHIT:          0  dMISS:          0  itACCESS:          0  itHIT:          0  itMISS:          0  dtACCESS:          0  dtHIT:          0  dtMISS:          0
cpu0_ITLB PREFETCH     ACCESS:          0  HIT:          0  MISS:          0  iACCESS:          0  iHIT:          0  iMISS:          0  dACCESS:          0  dHIT:          0  dMISS:          0  itACCESS:          0  itHIT:          0  itMISS:          0  dtACCESS:          0  dtHIT:          0  dtMISS:          0
cpu0_ITLB WRITE        ACCESS:          0  HIT:          0  MISS:          0  iACCESS:          0  iHIT:          0  iMISS:          0  dACCESS:          0  dHIT:          0  dMISS:          0  itACCESS:          0  itHIT:          0  itMISS:          0  dtACCESS:          0  dtHIT:          0  dtMISS:          0
cpu0_ITLB TRANSLATION  ACCESS:          0  HIT:          0  MISS:          0  iACCESS:          0  iHIT:          0  iMISS:          0  dACCESS:          0  dHIT:          0  dMISS:          0  itACCESS:          0  itHIT:          0  itMISS:          0  dtACCESS:          0  dtHIT:          0  dtMISS:          0
cpu0_ITLB PREFETCH  REQUESTED:          0  ISSUED:          0  CROSSED:          0  USEFUL:     395272  USELESS:      83621
cpu0_ITLB AVERAGE iMISS LATENCY: 7.89209 cycles
cpu0_ITLB AVERAGE dMISS LATENCY: 0 cycles
cpu0_ITLB AVERAGE itMISS LATENCY: 0 cycles
cpu0_ITLB AVERAGE dtMISS LATENCY: 0 cycles
cpu0_ITLB PAGE CROSSINGS (TLB HIT):         0 
cpu0_ITLB PAGE CROSSINGS (TLB MISS):         0 
cpu0_ITLB AVERAGE MISS LATENCY: 7.89209 cycles
cpu0_DTLB TOTAL       ACCESS:   28915410  HIT:   25487870  MISS:    3427540  iACCESS:          0  iHIT:          0  iMISS:          0  dACCESS:   28915410  dHIT:   25487870  dMISS:    3427540  itACCESS:          0  itHIT:          0  itMISS:          0  dtACCESS:          0  dtHIT:          0  dtMISS:          0
cpu0_DTLB LOAD         ACCESS:   28915410  HIT:   25487870  MISS:    3427540  iACCESS:          0  iHIT:          0  iMISS:          0  dACCESS:   28915410  dHIT:   25487870  dMISS:    3427540  itACCESS:          0  itHIT:          0  itMISS:          0  dtACCESS:          0  dtHIT:          0  dtMISS:          0
cpu0_DTLB RFO          ACCESS:          0  HIT:          0  MISS:          0  iACCESS:          0  iHIT:          0  iMISS:          0  dACCESS:          0  dHIT:          0  dMISS:          0  itACCESS:          0  itHIT:          0  itMISS:          0  dtACCESS:          0  dtHIT:          0  dtMISS:          0
cpu0_DTLB PREFETCH     ACCESS:          0  HIT:          0  MISS:          0  iACCESS:          0  iHIT:          0  iMISS:          0  dACCESS:          0  dHIT:          0  dMISS:          0  itACCESS:          0  itHIT:          0  itMISS:          0  dtACCESS:          0  dtHIT:          0  dtMISS:          0
cpu0_DTLB WRITE        ACCESS:          0  HIT:          0  MISS:          0  iACCESS:          0  iHIT:          0  iMISS:          0  dACCESS:          0  dHIT:          0  dMISS:          0  itACCESS:          0  itHIT:          0  itMISS:          0  dtACCESS:          0  dtHIT:          0  dtMISS:          0
cpu0_DTLB TRANSLATION  ACCESS:          0  HIT:          0  MISS:          0  iACCESS:          0  iHIT:          0  iMISS:          0  dACCESS:          0  dHIT:          0  dMISS:          0  itACCESS:          0  itHIT:          0  itMISS:          0  dtACCESS:          0  dtHIT:          0  dtMISS:          0
cpu0_DTLB PREFETCH  REQUESTED:          0  ISSUED:          0  CROSSED:          0  USEFUL:          0  USELESS:          0
cpu0_DTLB AVERAGE iMISS LATENCY: 0 cycles
cpu0_DTLB AVERAGE dMISS LATENCY: 17.4494 cycles
cpu0_DTLB AVERAGE itMISS LATENCY: 0 cycles
cpu0_DTLB AVERAGE dtMISS LATENCY: 0 cycles
cpu0_DTLB PAGE CROSSINGS (TLB HIT):         0 
cpu0_DTLB PAGE CROSSINGS (TLB MISS):         0 
cpu0_DTLB AVERAGE MISS LATENCY: 17.4494 cycles
cpu0_STLB TOTAL       ACCESS:    2434435  HIT:    2063994  MISS:     370441  iACCESS:     478903  iHIT:     359272  iMISS:     119631  dACCESS:    1955532  dHIT:    1704722  dMISS:     250810  itACCESS:          0  itHIT:          0  itMISS:          0  dtACCESS:          0  dtHIT:          0  dtMISS:          0
cpu0_STLB LOAD         ACCESS:    2434435  HIT:    2063994  MISS:     370441  iACCESS:     478903  iHIT:     359272  iMISS:     119631  dACCESS:    1955532  dHIT:    1704722  dMISS:     250810  itACCESS:          0  itHIT:          0  itMISS:          0  dtACCESS:          0  dtHIT:          0  dtMISS:          0
cpu0_STLB RFO          ACCESS:          0  HIT:          0  MISS:          0  iACCESS:          0  iHIT:          0  iMISS:          0  dACCESS:          0  dHIT:          0  dMISS:          0  itACCESS:          0  itHIT:          0  itMISS:          0  dtACCESS:          0  dtHIT:          0  dtMISS:          0
cpu0_STLB PREFETCH     ACCESS:          0  HIT:          0  MISS:          0  iACCESS:          0  iHIT:          0  iMISS:          0  dACCESS:          0  dHIT:          0  dMISS:          0  itACCESS:          0  itHIT:          0  itMISS:          0  dtACCESS:          0  dtHIT:          0  dtMISS:          0
cpu0_STLB WRITE        ACCESS:          0  HIT:          0  MISS:          0  iACCESS:          0  iHIT:          0  iMISS:          0  dACCESS:          0  dHIT:          0  dMISS:          0  itACCESS:          0  itHIT:          0  itMISS:          0  dtACCESS:          0  dtHIT:          0  dtMISS:          0
cpu0_STLB TRANSLATION  ACCESS:          0  HIT:          0  MISS:          0  iACCESS:          0  iHIT:          0  iMISS:          0  dACCESS:          0  dHIT:          0  dMISS:          0  itACCESS:          0  itHIT:          0  itMISS:          0  dtACCESS:          0  dtHIT:          0  dtMISS:          0
cpu0_STLB PREFETCH  REQUESTED:          0  ISSUED:          0  CROSSED:          0  USEFUL:          0  USELESS:          0
cpu0_STLB AVERAGE iMISS LATENCY: 37.9268 cycles
cpu0_STLB AVERAGE dMISS LATENCY: 119.073 cycles
cpu0_STLB AVERAGE itMISS LATENCY: 0 cycles
cpu0_STLB AVERAGE dtMISS LATENCY: 0 cycles
cpu0_STLB PAGE CROSSINGS (TLB HIT):         0 
cpu0_STLB PAGE CROSSINGS (TLB MISS):         0 
cpu0_STLB AVERAGE MISS LATENCY: 157 cycles
cpu0_L1D TOTAL       ACCESS:   44770839  HIT:   39289714  MISS:    5481125  iACCESS:          0  iHIT:          0  iMISS:          0  dACCESS:   44226460  dHIT:   39254920  dMISS:    4971540  itACCESS:     132467  itHIT:      15489  itMISS:     116978  dtACCESS:     411912  dtHIT:      19305  dtMISS:     392607
cpu0_L1D LOAD         ACCESS:   20130846  HIT:   17914165  MISS:    2216681  iACCESS:          0  iHIT:          0  iMISS:          0  dACCESS:   20130846  dHIT:   17914165  dMISS:    2216681  itACCESS:          0  itHIT:          0  itMISS:          0  dtACCESS:          0  dtHIT:          0  dtMISS:          0
cpu0_L1D RFO          ACCESS:          0  HIT:          0  MISS:          0  iACCESS:          0  iHIT:          0  iMISS:          0  dACCESS:          0  dHIT:          0  dMISS:          0  itACCESS:          0  itHIT:          0  itMISS:          0  dtACCESS:          0  dtHIT:          0  dtMISS:          0
cpu0_L1D PREFETCH     ACCESS:   13836024  HIT:   11660969  MISS:    2175055  iACCESS:          0  iHIT:          0  iMISS:          0  dACCESS:   13836024  dHIT:   11660969  dMISS:    2175055  itACCESS:          0  itHIT:          0  itMISS:          0  dtACCESS:          0  dtHIT:          0  dtMISS:          0
cpu0_L1D WRITE        ACCESS:   10259590  HIT:    9679786  MISS:     579804  iACCESS:          0  iHIT:          0  iMISS:          0  dACCESS:   10259590  dHIT:    9679786  dMISS:     579804  itACCESS:          0  itHIT:          0  itMISS:          0  dtACCESS:          0  dtHIT:          0  dtMISS:          0
cpu0_L1D TRANSLATION  ACCESS:     544379  HIT:      34794  MISS:     509585  iACCESS:          0  iHIT:          0  iMISS:          0  dACCESS:          0  dHIT:          0  dMISS:          0  itACCESS:     132467  itHIT:      15489  itMISS:     116978  dtACCESS:     411912  dtHIT:      19305  dtMISS:     392607
cpu0_L1D PREFETCH  REQUESTED:   20130846  ISSUED:   18406217  CROSSED:          0  USEFUL:     366553  USELESS:     914849
cpu0_L1D AVERAGE iMISS LATENCY: 0 cycles
cpu0_L1D AVERAGE dMISS LATENCY: 51.4209 cycles
cpu0_L1D AVERAGE itMISS LATENCY: 2.36033 cycles
cpu0_L1D AVERAGE dtMISS LATENCY: 7.04613 cycles
cpu0_L1D PAGE CROSSINGS (TLB HIT):         0 
cpu0_L1D PAGE CROSSINGS (TLB MISS):         0 
cpu0_L1D AVERAGE MISS LATENCY: 60.8273 cycles
cpu0_L2C TOTAL       ACCESS:    8553977  HIT:    1506579  MISS:    7047398  iACCESS:    3788416  iHIT:     811843  iMISS:    2976573  dACCESS:    4286482  dHIT:     504323  dMISS:    3782159  itACCESS:     116914  itHIT:      40984  itMISS:      75930  dtACCESS:     362165  dtHIT:     149429  dtMISS:     212736
cpu0_L2C LOAD         ACCESS:    2050786  HIT:     204517  MISS:    1846269  iACCESS:     849630  iHIT:     120053  iMISS:     729577  dACCESS:    1201156  dHIT:      84464  dMISS:    1116692  itACCESS:          0  itHIT:          0  itMISS:          0  dtACCESS:          0  dtHIT:          0  dtMISS:          0
cpu0_L2C RFO          ACCESS:     218923  HIT:      27444  MISS:     191479  iACCESS:          0  iHIT:          0  iMISS:          0  dACCESS:     218923  dHIT:      27444  dMISS:     191479  itACCESS:          0  itHIT:          0  itMISS:          0  dtACCESS:          0  dtHIT:          0  dtMISS:          0
cpu0_L2C PREFETCH     ACCESS:    5458028  HIT:     985441  MISS:    4472587  iACCESS:    2938786  iHIT:     691790  iMISS:    2246996  dACCESS:    2519242  dHIT:     293651  dMISS:    2225591  itACCESS:          0  itHIT:          0  itMISS:          0  dtACCESS:          0  dtHIT:          0  dtMISS:          0
cpu0_L2C WRITE        ACCESS:     347161  HIT:      98764  MISS:     248397  iACCESS:          0  iHIT:          0  iMISS:          0  dACCESS:     347161  dHIT:      98764  dMISS:     248397  itACCESS:          0  itHIT:          0  itMISS:          0  dtACCESS:          0  dtHIT:          0  dtMISS:          0
cpu0_L2C TRANSLATION  ACCESS:     479079  HIT:     190413  MISS:     288666  iACCESS:          0  iHIT:          0  iMISS:          0  dACCESS:          0  dHIT:          0  dMISS:          0  itACCESS:     116914  itHIT:      40984  itMISS:      75930  dtACCESS:     362165  dtHIT:     149429  dtMISS:     212736
cpu0_L2C PREFETCH  REQUESTED:    1471982  ISSUED:    1471982  CROSSED:          0  USEFUL:     402346  USELESS:     481900
cpu0_L2C AVERAGE iMISS LATENCY: 26.5694 cycles
cpu0_L2C AVERAGE dMISS LATENCY: 49.1402 cycles
cpu0_L2C AVERAGE itMISS LATENCY: 1.67525 cycles
cpu0_L2C AVERAGE dtMISS LATENCY: 4.98513 cycles
cpu0_L2C PAGE CROSSINGS (TLB HIT):         0 
cpu0_L2C PAGE CROSSINGS (TLB MISS):         0 
cpu0_L2C AVERAGE MISS LATENCY: 82.3699 cycles
LLC TOTAL       ACCESS:    6862600  HIT:    4195109  MISS:    2667491  iACCESS:    2885868  iHIT:    2042634  iMISS:     843234  dACCESS:    3688066  dHIT:    2084902  dMISS:    1603164  itACCESS:      75930  itHIT:      17920  itMISS:      58010  dtACCESS:     212736  dtHIT:      49653  dtMISS:     163083
LLC LOAD         ACCESS:    1840341  HIT:    1198502  MISS:     641839  iACCESS:     728149  iHIT:     551013  iMISS:     177136  dACCESS:    1112192  dHIT:     647489  dMISS:     464703  itACCESS:          0  itHIT:          0  itMISS:          0  dtACCESS:          0  dtHIT:          0  dtMISS:          0
LLC RFO          ACCESS:     191465  HIT:      96586  MISS:      94879  iACCESS:          0  iHIT:          0  iMISS:          0  dACCESS:     191465  dHIT:      96586  dMISS:      94879  itACCESS:          0  itHIT:          0  itMISS:          0  dtACCESS:          0  dtHIT:          0  dtMISS:          0
LLC PREFETCH     ACCESS:    4265298  HIT:    2563328  MISS:    1701970  iACCESS:    2157719  iHIT:    1491621  iMISS:     666098  dACCESS:    2107579  dHIT:    1071707  dMISS:    1035872  itACCESS:          0  itHIT:          0  itMISS:          0  dtACCESS:          0  dtHIT:          0  dtMISS:          0
LLC WRITE        ACCESS:     276830  HIT:     269120  MISS:       7710  iACCESS:          0  iHIT:          0  iMISS:          0  dACCESS:     276830  dHIT:     269120  dMISS:       7710  itACCESS:          0  itHIT:          0  itMISS:          0  dtACCESS:          0  dtHIT:          0  dtMISS:          0
LLC TRANSLATION  ACCESS:     288666  HIT:      67573  MISS:     221093  iACCESS:          0  iHIT:          0  iMISS:          0  dACCESS:          0  dHIT:          0  dMISS:          0  itACCESS:      75930  itHIT:      17920  itMISS:      58010  dtACCESS:     212736  dtHIT:      49653  dtMISS:     163083
LLC PREFETCH  REQUESTED:          0  ISSUED:          0  CROSSED:          0  USEFUL:          0  USELESS:          0
LLC AVERAGE iMISS LATENCY: 49.1909 cycles
LLC AVERAGE dMISS LATENCY: 105.597 cycles
LLC AVERAGE itMISS LATENCY: 3.86511 cycles
LLC AVERAGE dtMISS LATENCY: 11.6 cycles
LLC PAGE CROSSINGS (TLB HIT):         0 
LLC PAGE CROSSINGS (TLB MISS):         0 
LLC AVERAGE MISS LATENCY: 170.253 cycles

PageTableWalker TOTAL       ACCESS:     133658  
PageTableWalker AVERAGE LATENCY: 5.95731 cycles
PageTableWalker TOTAL LATENCY: 796241 cycles

DRAM Statistics
Channel 0
 RQ ROW_BUFFER_HIT:     611598
  ROW_BUFFER_MISS:    2037090
 AVG DBUS CONGESTED CYCLE:    3.65459
 WQ ROW_BUFFER_HIT:      64131
  ROW_BUFFER_MISS:      63191  FULL:          0

