last_page:0x200000000000000
VMEM_RES_CAP:0x100000
PAGE_SIZE:4096
LOG2_PAGE_SIZE:12
LOG2_PAGE_TABLE_SIZE:9
page_table_levels:5
WARNING: physical memory size is smaller than virtual memory size
FDiP enabled with aggresivity 16

*** ChampSim Multicore Out-of-Order Simulator ***

Warmup Instructions: 50000000
Simulation Instructions: 100000000
Number of CPUs: 1
Small page size: 4096
Large page size: 2097152

CPU 0 Bimodal branch predictor
Basic BTB sets: 1024 ways: 8 indirect buffer size: 4096 RAS size: 64
Instruction page size distrubution: 0
Loading instruction page size distribution from /home/bsc/bsc018186/scratch/itp_asplos25_AE/dump/smt_srv537_ap_srv551_ap_1024i.pdst
Data page size distrubution: 0
Loading data page size distribution from /home/bsc/bsc018186/scratch/itp_asplos25_AE/dump/smt_srv537_ap_srv551_ap_1024i.pdst
cpu0_L2C IP-based stride prefetcher
cpu0_L1D next line prefetcher
cpu0_L1I next line prefetcher
Off-chip DRAM Size: 4 GiB Channels: 1 Width: 64-bit Data Rate: 3200 MT/s
Heartbeat CPU 0 instructions: 10000000 cycles: 2500674 heartbeat IPC: 3.99893 cumulative IPC: 3.99893 (Simulation time: 0 hr 0 min 46 sec) 
Heartbeat CPU 0 instructions: 20000003 cycles: 5001062 heartbeat IPC: 3.99939 cumulative IPC: 3.99916 (Simulation time: 0 hr 1 min 34 sec) 
Heartbeat CPU 0 instructions: 30000003 cycles: 7501250 heartbeat IPC: 3.9997 cumulative IPC: 3.99934 (Simulation time: 0 hr 2 min 22 sec) 
Heartbeat CPU 0 instructions: 40000003 cycles: 10001656 heartbeat IPC: 3.99936 cumulative IPC: 3.99934 (Simulation time: 0 hr 3 min 11 sec) 
Heartbeat CPU 0 instructions: 50000002 cycles: 12502026 heartbeat IPC: 3.99941 cumulative IPC: 3.99936 (Simulation time: 0 hr 4 min 1 sec) 
Warmup finished CPU 0 instructions: 50000002 cycles: 12502027 cumulative IPC: 3.99936 (Simulation time: 0 hr 4 min 1 sec) 

Warmup complete CPU 0 instructions: 50000002 cycles: 12502027 (Simulation time: 0 hr 4 min 1 sec) 

Heartbeat CPU 0 instructions: 60000000 cycles: 40475027 heartbeat IPC: 0.357488 cumulative IPC: 0.357488 (Simulation time: 0 hr 5 min 39 sec) 
Heartbeat CPU 0 instructions: 70000001 cycles: 69463325 heartbeat IPC: 0.344967 cumulative IPC: 0.351116 (Simulation time: 0 hr 7 min 20 sec) 
Heartbeat CPU 0 instructions: 80000000 cycles: 97337431 heartbeat IPC: 0.358756 cumulative IPC: 0.353626 (Simulation time: 0 hr 8 min 55 sec) 
Heartbeat CPU 0 instructions: 90000000 cycles: 124949320 heartbeat IPC: 0.362163 cumulative IPC: 0.355723 (Simulation time: 0 hr 10 min 32 sec) 
Heartbeat CPU 0 instructions: 100000003 cycles: 153015717 heartbeat IPC: 0.356299 cumulative IPC: 0.355838 (Simulation time: 0 hr 12 min 10 sec) 
Heartbeat CPU 0 instructions: 110000000 cycles: 180911679 heartbeat IPC: 0.358475 cumulative IPC: 0.356275 (Simulation time: 0 hr 13 min 48 sec) 
Heartbeat CPU 0 instructions: 120000000 cycles: 204651564 heartbeat IPC: 0.421233 cumulative IPC: 0.3643 (Simulation time: 0 hr 15 min 21 sec) 
Heartbeat CPU 0 instructions: 130000000 cycles: 220747930 heartbeat IPC: 0.621259 cumulative IPC: 0.384162 (Simulation time: 0 hr 16 min 45 sec) 
Heartbeat CPU 0 instructions: 140000000 cycles: 238189715 heartbeat IPC: 0.573336 cumulative IPC: 0.398782 (Simulation time: 0 hr 18 min 11 sec) 
Heartbeat CPU 0 instructions: 150000002 cycles: 266716819 heartbeat IPC: 0.350544 cumulative IPC: 0.393369 (Simulation time: 0 hr 19 min 52 sec) 
Simulation finished CPU 0 instructions: 100000000 cycles: 254214793 cumulative IPC: 0.393369 (Simulation time: 0 hr 19 min 52 sec) 

Simulation complete CPU 0 instructions: 100000000 cycles: 254214793 (Simulation time: 0 hr 19 min 52 sec) 


ChampSim completed all CPUs

Saving instructions large page distribution to /home/bsc/bsc018186/scratch/itp_asplos25_AE/dump/smt_srv537_ap_srv551_ap_1024i.pdst...
Saving data large page distribution to /home/bsc/bsc018186/scratch/itp_asplos25_AE/dump/smt_srv537_ap_srv551_ap_1024i.pdst...
=== Simulation ===
CPU 0 runs /gpfs/projects/bsc18/MN4/bsc18/romol/ChampSim/traces/qualcomm_srv/smt_srv537_ap_srv551_ap_1024i.champsimtrace.xz

Region of Interest Statistics

CPU 0 cumulative IPC: 0.393369 instructions: 100000000 cycles: 254214793
CPU 0 Branch Prediction Accuracy: 77.9643% MPKI: 42.5818 Average ROB Occupancy at Mispredict: 11.2911
Branch type MPKI
BRANCH_DIRECT_JUMP: 1.24463
BRANCH_INDIRECT: 22.852
BRANCH_CONDITIONAL: 11.7124
BRANCH_DIRECT_CALL: 2.38077
BRANCH_INDIRECT_CALL: 1.08294
BRANCH_RETURN: 3.30917

Instructions large pages: 0
Instructions small pages: 10737
Large page distribution for instructions: 0%

Data large pages: 0
Data small pages: 9299
Large page distribution for data: 0%

cpu0_L1I TOTAL       ACCESS:   40303007  HIT:   32117967  MISS:    8185040  iACCESS:   40303007  iHIT:   32117967  iMISS:    8185040  dACCESS:          0  dHIT:          0  dMISS:          0  itACCESS:          0  itHIT:          0  itMISS:          0  dtACCESS:          0  dtHIT:          0  dtMISS:          0
cpu0_L1I LOAD         ACCESS:   11538839  HIT:    9318212  MISS:    2220627  iACCESS:   11538839  iHIT:    9318212  iMISS:    2220627  dACCESS:          0  dHIT:          0  dMISS:          0  itACCESS:          0  itHIT:          0  itMISS:          0  dtACCESS:          0  dtHIT:          0  dtMISS:          0
cpu0_L1I RFO          ACCESS:          0  HIT:          0  MISS:          0  iACCESS:          0  iHIT:          0  iMISS:          0  dACCESS:          0  dHIT:          0  dMISS:          0  itACCESS:          0  itHIT:          0  itMISS:          0  dtACCESS:          0  dtHIT:          0  dtMISS:          0
cpu0_L1I PREFETCH     ACCESS:   28764168  HIT:   22799755  MISS:    5964413  iACCESS:   28764168  iHIT:   22799755  iMISS:    5964413  dACCESS:          0  dHIT:          0  dMISS:          0  itACCESS:          0  itHIT:          0  itMISS:          0  dtACCESS:          0  dtHIT:          0  dtMISS:          0
cpu0_L1I WRITE        ACCESS:          0  HIT:          0  MISS:          0  iACCESS:          0  iHIT:          0  iMISS:          0  dACCESS:          0  dHIT:          0  dMISS:          0  itACCESS:          0  itHIT:          0  itMISS:          0  dtACCESS:          0  dtHIT:          0  dtMISS:          0
cpu0_L1I TRANSLATION  ACCESS:          0  HIT:          0  MISS:          0  iACCESS:          0  iHIT:          0  iMISS:          0  dACCESS:          0  dHIT:          0  dMISS:          0  itACCESS:          0  itHIT:          0  itMISS:          0  dtACCESS:          0  dtHIT:          0  dtMISS:          0
cpu0_L1I PREFETCH  REQUESTED:   31335752  ISSUED:   31334554  CROSSED:          0  USEFUL:    1982226  USELESS:     684184
cpu0_L1I AVERAGE iMISS LATENCY: 23.8358 cycles
cpu0_L1I AVERAGE dMISS LATENCY: 0 cycles
cpu0_L1I AVERAGE itMISS LATENCY: 0 cycles
cpu0_L1I AVERAGE dtMISS LATENCY: 0 cycles
cpu0_L1I PAGE CROSSINGS (TLB HIT):         0 
cpu0_L1I PAGE CROSSINGS (TLB MISS):         0 
cpu0_L1I AVERAGE MISS LATENCY: 23.8358 cycles
cpu0_ITLB TOTAL       ACCESS:   33696348  HIT:   31709212  MISS:    1987136  iACCESS:   33696348  iHIT:   31709212  iMISS:    1987136  dACCESS:          0  dHIT:          0  dMISS:          0  itACCESS:          0  itHIT:          0  itMISS:          0  dtACCESS:          0  dtHIT:          0  dtMISS:          0
cpu0_ITLB LOAD         ACCESS:   33696348  HIT:   31709212  MISS:    1987136  iACCESS:   33696348  iHIT:   31709212  iMISS:    1987136  dACCESS:          0  dHIT:          0  dMISS:          0  itACCESS:          0  itHIT:          0  itMISS:          0  dtACCESS:          0  dtHIT:          0  dtMISS:          0
cpu0_ITLB RFO          ACCESS:          0  HIT:          0  MISS:          0  iACCESS:          0  iHIT:          0  iMISS:          0  dACCESS:          0  dHIT:          0  dMISS:          0  itACCESS:          0  itHIT:          0  itMISS:          0  dtACCESS:          0  dtHIT:          0  dtMISS:          0
cpu0_ITLB PREFETCH     ACCESS:          0  HIT:          0  MISS:          0  iACCESS:          0  iHIT:          0  iMISS:          0  dACCESS:          0  dHIT:          0  dMISS:          0  itACCESS:          0  itHIT:          0  itMISS:          0  dtACCESS:          0  dtHIT:          0  dtMISS:          0
cpu0_ITLB WRITE        ACCESS:          0  HIT:          0  MISS:          0  iACCESS:          0  iHIT:          0  iMISS:          0  dACCESS:          0  dHIT:          0  dMISS:          0  itACCESS:          0  itHIT:          0  itMISS:          0  dtACCESS:          0  dtHIT:          0  dtMISS:          0
cpu0_ITLB TRANSLATION  ACCESS:          0  HIT:          0  MISS:          0  iACCESS:          0  iHIT:          0  iMISS:          0  dACCESS:          0  dHIT:          0  dMISS:          0  itACCESS:          0  itHIT:          0  itMISS:          0  dtACCESS:          0  dtHIT:          0  dtMISS:          0
cpu0_ITLB PREFETCH  REQUESTED:          0  ISSUED:          0  CROSSED:          0  USEFUL:     349480  USELESS:      70809
cpu0_ITLB AVERAGE iMISS LATENCY: 7.75752 cycles
cpu0_ITLB AVERAGE dMISS LATENCY: 0 cycles
cpu0_ITLB AVERAGE itMISS LATENCY: 0 cycles
cpu0_ITLB AVERAGE dtMISS LATENCY: 0 cycles
cpu0_ITLB PAGE CROSSINGS (TLB HIT):         0 
cpu0_ITLB PAGE CROSSINGS (TLB MISS):         0 
cpu0_ITLB AVERAGE MISS LATENCY: 7.75752 cycles
cpu0_DTLB TOTAL       ACCESS:   30769648  HIT:   24892616  MISS:    5877032  iACCESS:          0  iHIT:          0  iMISS:          0  dACCESS:   30769648  dHIT:   24892616  dMISS:    5877032  itACCESS:          0  itHIT:          0  itMISS:          0  dtACCESS:          0  dtHIT:          0  dtMISS:          0
cpu0_DTLB LOAD         ACCESS:   30769648  HIT:   24892616  MISS:    5877032  iACCESS:          0  iHIT:          0  iMISS:          0  dACCESS:   30769648  dHIT:   24892616  dMISS:    5877032  itACCESS:          0  itHIT:          0  itMISS:          0  dtACCESS:          0  dtHIT:          0  dtMISS:          0
cpu0_DTLB RFO          ACCESS:          0  HIT:          0  MISS:          0  iACCESS:          0  iHIT:          0  iMISS:          0  dACCESS:          0  dHIT:          0  dMISS:          0  itACCESS:          0  itHIT:          0  itMISS:          0  dtACCESS:          0  dtHIT:          0  dtMISS:          0
cpu0_DTLB PREFETCH     ACCESS:          0  HIT:          0  MISS:          0  iACCESS:          0  iHIT:          0  iMISS:          0  dACCESS:          0  dHIT:          0  dMISS:          0  itACCESS:          0  itHIT:          0  itMISS:          0  dtACCESS:          0  dtHIT:          0  dtMISS:          0
cpu0_DTLB WRITE        ACCESS:          0  HIT:          0  MISS:          0  iACCESS:          0  iHIT:          0  iMISS:          0  dACCESS:          0  dHIT:          0  dMISS:          0  itACCESS:          0  itHIT:          0  itMISS:          0  dtACCESS:          0  dtHIT:          0  dtMISS:          0
cpu0_DTLB TRANSLATION  ACCESS:          0  HIT:          0  MISS:          0  iACCESS:          0  iHIT:          0  iMISS:          0  dACCESS:          0  dHIT:          0  dMISS:          0  itACCESS:          0  itHIT:          0  itMISS:          0  dtACCESS:          0  dtHIT:          0  dtMISS:          0
cpu0_DTLB PREFETCH  REQUESTED:          0  ISSUED:          0  CROSSED:          0  USEFUL:          0  USELESS:          0
cpu0_DTLB AVERAGE iMISS LATENCY: 0 cycles
cpu0_DTLB AVERAGE dMISS LATENCY: 10.6296 cycles
cpu0_DTLB AVERAGE itMISS LATENCY: 0 cycles
cpu0_DTLB AVERAGE dtMISS LATENCY: 0 cycles
cpu0_DTLB PAGE CROSSINGS (TLB HIT):         0 
cpu0_DTLB PAGE CROSSINGS (TLB MISS):         0 
cpu0_DTLB AVERAGE MISS LATENCY: 10.6296 cycles
cpu0_STLB TOTAL       ACCESS:    3539381  HIT:    3221655  MISS:     317726  iACCESS:     420299  iHIT:     316928  iMISS:     103371  dACCESS:    3119082  dHIT:    2904727  dMISS:     214355  itACCESS:          0  itHIT:          0  itMISS:          0  dtACCESS:          0  dtHIT:          0  dtMISS:          0
cpu0_STLB LOAD         ACCESS:    3539381  HIT:    3221655  MISS:     317726  iACCESS:     420299  iHIT:     316928  iMISS:     103371  dACCESS:    3119082  dHIT:    2904727  dMISS:     214355  itACCESS:          0  itHIT:          0  itMISS:          0  dtACCESS:          0  dtHIT:          0  dtMISS:          0
cpu0_STLB RFO          ACCESS:          0  HIT:          0  MISS:          0  iACCESS:          0  iHIT:          0  iMISS:          0  dACCESS:          0  dHIT:          0  dMISS:          0  itACCESS:          0  itHIT:          0  itMISS:          0  dtACCESS:          0  dtHIT:          0  dtMISS:          0
cpu0_STLB PREFETCH     ACCESS:          0  HIT:          0  MISS:          0  iACCESS:          0  iHIT:          0  iMISS:          0  dACCESS:          0  dHIT:          0  dMISS:          0  itACCESS:          0  itHIT:          0  itMISS:          0  dtACCESS:          0  dtHIT:          0  dtMISS:          0
cpu0_STLB WRITE        ACCESS:          0  HIT:          0  MISS:          0  iACCESS:          0  iHIT:          0  iMISS:          0  dACCESS:          0  dHIT:          0  dMISS:          0  itACCESS:          0  itHIT:          0  itMISS:          0  dtACCESS:          0  dtHIT:          0  dtMISS:          0
cpu0_STLB TRANSLATION  ACCESS:          0  HIT:          0  MISS:          0  iACCESS:          0  iHIT:          0  iMISS:          0  dACCESS:          0  dHIT:          0  dMISS:          0  itACCESS:          0  itHIT:          0  itMISS:          0  dtACCESS:          0  dtHIT:          0  dtMISS:          0
cpu0_STLB PREFETCH  REQUESTED:          0  ISSUED:          0  CROSSED:          0  USEFUL:          0  USELESS:          0
cpu0_STLB AVERAGE iMISS LATENCY: 37.94 cycles
cpu0_STLB AVERAGE dMISS LATENCY: 117.26 cycles
cpu0_STLB AVERAGE itMISS LATENCY: 0 cycles
cpu0_STLB AVERAGE dtMISS LATENCY: 0 cycles
cpu0_STLB PAGE CROSSINGS (TLB HIT):         0 
cpu0_STLB PAGE CROSSINGS (TLB MISS):         0 
cpu0_STLB AVERAGE MISS LATENCY: 155.2 cycles
cpu0_L1D TOTAL       ACCESS:   49411102  HIT:   39697564  MISS:    9713538  iACCESS:          0  iHIT:          0  iMISS:          0  dACCESS:   48946381  dHIT:   39669784  dMISS:    9276597  itACCESS:     114505  itHIT:      13586  itMISS:     100919  dtACCESS:     350216  dtHIT:      14194  dtMISS:     336022
cpu0_L1D LOAD         ACCESS:   23538519  HIT:   18393678  MISS:    5144841  iACCESS:          0  iHIT:          0  iMISS:          0  dACCESS:   23538519  dHIT:   18393678  dMISS:    5144841  itACCESS:          0  itHIT:          0  itMISS:          0  dtACCESS:          0  dtHIT:          0  dtMISS:          0
cpu0_L1D RFO          ACCESS:          0  HIT:          0  MISS:          0  iACCESS:          0  iHIT:          0  iMISS:          0  dACCESS:          0  dHIT:          0  dMISS:          0  itACCESS:          0  itHIT:          0  itMISS:          0  dtACCESS:          0  dtHIT:          0  dtMISS:          0
cpu0_L1D PREFETCH     ACCESS:   15596849  HIT:   12034866  MISS:    3561983  iACCESS:          0  iHIT:          0  iMISS:          0  dACCESS:   15596849  dHIT:   12034866  dMISS:    3561983  itACCESS:          0  itHIT:          0  itMISS:          0  dtACCESS:          0  dtHIT:          0  dtMISS:          0
cpu0_L1D WRITE        ACCESS:    9811013  HIT:    9241240  MISS:     569773  iACCESS:          0  iHIT:          0  iMISS:          0  dACCESS:    9811013  dHIT:    9241240  dMISS:     569773  itACCESS:          0  itHIT:          0  itMISS:          0  dtACCESS:          0  dtHIT:          0  dtMISS:          0
cpu0_L1D TRANSLATION  ACCESS:     464721  HIT:      27780  MISS:     436941  iACCESS:          0  iHIT:          0  iMISS:          0  dACCESS:          0  dHIT:          0  dMISS:          0  itACCESS:     114505  itHIT:      13586  itMISS:     100919  dtACCESS:     350216  dtHIT:      14194  dtMISS:     336022
cpu0_L1D PREFETCH  REQUESTED:   23538519  ISSUED:   18886022  CROSSED:          0  USEFUL:     340980  USELESS:    1033412
cpu0_L1D AVERAGE iMISS LATENCY: 0 cycles
cpu0_L1D AVERAGE dMISS LATENCY: 30.5407 cycles
cpu0_L1D AVERAGE itMISS LATENCY: 1.13918 cycles
cpu0_L1D AVERAGE dtMISS LATENCY: 3.41329 cycles
cpu0_L1D PAGE CROSSINGS (TLB HIT):         0 
cpu0_L1D PAGE CROSSINGS (TLB MISS):         0 
cpu0_L1D AVERAGE MISS LATENCY: 35.0931 cycles
cpu0_L2C TOTAL       ACCESS:    9768219  HIT:    2183251  MISS:    7584968  iACCESS:    3381045  iHIT:     750055  iMISS:    2630990  dACCESS:    5979933  dHIT:    1273047  dMISS:    4706886  itACCESS:     100863  itHIT:      34830  itMISS:      66033  dtACCESS:     306378  dtHIT:     125319  dtMISS:     181059
cpu0_L2C LOAD         ACCESS:    3620002  HIT:     845070  MISS:    2774932  iACCESS:     746577  iHIT:     114197  iMISS:     632380  dACCESS:    2873425  dHIT:     730873  dMISS:    2142552  itACCESS:          0  itHIT:          0  itMISS:          0  dtACCESS:          0  dtHIT:          0  dtMISS:          0
cpu0_L2C RFO          ACCESS:     226358  HIT:      40381  MISS:     185977  iACCESS:          0  iHIT:          0  iMISS:          0  dACCESS:     226358  dHIT:      40381  dMISS:     185977  itACCESS:          0  itHIT:          0  itMISS:          0  dtACCESS:          0  dtHIT:          0  dtMISS:          0
cpu0_L2C PREFETCH     ACCESS:    5187436  HIT:    1029975  MISS:    4157461  iACCESS:    2634468  iHIT:     635858  iMISS:    1998610  dACCESS:    2552968  dHIT:     394117  dMISS:    2158851  itACCESS:          0  itHIT:          0  itMISS:          0  dtACCESS:          0  dtHIT:          0  dtMISS:          0
cpu0_L2C WRITE        ACCESS:     327182  HIT:     107676  MISS:     219506  iACCESS:          0  iHIT:          0  iMISS:          0  dACCESS:     327182  dHIT:     107676  dMISS:     219506  itACCESS:          0  itHIT:          0  itMISS:          0  dtACCESS:          0  dtHIT:          0  dtMISS:          0
cpu0_L2C TRANSLATION  ACCESS:     407241  HIT:     160149  MISS:     247092  iACCESS:          0  iHIT:          0  iMISS:          0  dACCESS:          0  dHIT:          0  dMISS:          0  itACCESS:     100863  itHIT:      34830  itMISS:      66033  dtACCESS:     306378  dtHIT:     125319  dtMISS:     181059
cpu0_L2C PREFETCH  REQUESTED:    1394052  ISSUED:    1394052  CROSSED:          0  USEFUL:     368885  USELESS:     435215
cpu0_L2C AVERAGE iMISS LATENCY: 21.9162 cycles
cpu0_L2C AVERAGE dMISS LATENCY: 44.0565 cycles
cpu0_L2C AVERAGE itMISS LATENCY: 1.33013 cycles
cpu0_L2C AVERAGE dtMISS LATENCY: 3.98208 cycles
cpu0_L2C PAGE CROSSINGS (TLB HIT):         0 
cpu0_L2C PAGE CROSSINGS (TLB MISS):         0 
cpu0_L2C AVERAGE MISS LATENCY: 71.2848 cycles
LLC TOTAL       ACCESS:    7409015  HIT:    5041024  MISS:    2367991  iACCESS:    2550767  iHIT:    1799426  iMISS:     751341  dACCESS:    4611156  dHIT:    3182697  dMISS:    1428459  itACCESS:      66033  itHIT:      16692  itMISS:      49341  dtACCESS:     181059  dtHIT:      42209  dtMISS:     138850
LLC LOAD         ACCESS:    2767427  HIT:    2200929  MISS:     566498  iACCESS:     631166  iHIT:     474140  iMISS:     157026  dACCESS:    2136261  dHIT:    1726789  dMISS:     409472  itACCESS:          0  itHIT:          0  itMISS:          0  dtACCESS:          0  dtHIT:          0  dtMISS:          0
LLC RFO          ACCESS:     185954  HIT:     106033  MISS:      79921  iACCESS:          0  iHIT:          0  iMISS:          0  dACCESS:     185954  dHIT:     106033  dMISS:      79921  itACCESS:          0  itHIT:          0  itMISS:          0  dtACCESS:          0  dtHIT:          0  dtMISS:          0
LLC PREFETCH     ACCESS:    3959689  HIT:    2432907  MISS:    1526782  iACCESS:    1919601  iHIT:    1325286  iMISS:     594315  dACCESS:    2040088  dHIT:    1107621  dMISS:     932467  itACCESS:          0  itHIT:          0  itMISS:          0  dtACCESS:          0  dtHIT:          0  dtMISS:          0
LLC WRITE        ACCESS:     248853  HIT:     242254  MISS:       6599  iACCESS:          0  iHIT:          0  iMISS:          0  dACCESS:     248853  dHIT:     242254  dMISS:       6599  itACCESS:          0  itHIT:          0  itMISS:          0  dtACCESS:          0  dtHIT:          0  dtMISS:          0
LLC TRANSLATION  ACCESS:     247092  HIT:      58901  MISS:     188191  iACCESS:          0  iHIT:          0  iMISS:          0  dACCESS:          0  dHIT:          0  dMISS:          0  itACCESS:      66033  itHIT:      16692  itMISS:      49341  dtACCESS:     181059  dtHIT:      42209  dtMISS:     138850
LLC PREFETCH  REQUESTED:          0  ISSUED:          0  CROSSED:          0  USEFUL:          0  USELESS:          0
LLC AVERAGE iMISS LATENCY: 49.2837 cycles
LLC AVERAGE dMISS LATENCY: 106.182 cycles
LLC AVERAGE itMISS LATENCY: 3.71161 cycles
LLC AVERAGE dtMISS LATENCY: 11.2496 cycles
LLC PAGE CROSSINGS (TLB HIT):         0 
LLC PAGE CROSSINGS (TLB MISS):         0 
LLC AVERAGE MISS LATENCY: 170.427 cycles

PageTableWalker TOTAL       ACCESS:     183721  
PageTableWalker AVERAGE LATENCY: 5.81594 cycles
PageTableWalker TOTAL LATENCY: 1068509 cycles

DRAM Statistics
Channel 0
 RQ ROW_BUFFER_HIT:     546451
  ROW_BUFFER_MISS:    1798251
 AVG DBUS CONGESTED CYCLE:      3.655
 WQ ROW_BUFFER_HIT:      57753
  ROW_BUFFER_MISS:      53456  FULL:          0

