last_page:0x200000000000000
VMEM_RES_CAP:0x100000
PAGE_SIZE:4096
LOG2_PAGE_SIZE:12
LOG2_PAGE_TABLE_SIZE:9
page_table_levels:5
WARNING: physical memory size is smaller than virtual memory size
FDiP enabled with aggresivity 16

*** ChampSim Multicore Out-of-Order Simulator ***

Warmup Instructions: 50000000
Simulation Instructions: 100000000
Number of CPUs: 1
Small page size: 4096
Large page size: 2097152

CPU 0 Bimodal branch predictor
Basic BTB sets: 1024 ways: 8 indirect buffer size: 4096 RAS size: 64
Instruction page size distrubution: 0
Loading instruction page size distribution from /home/bsc/bsc018186/scratch/itp_asplos25_AE/dump/smt_srv85_ap_srv298_ap_1024i.pdst
Data page size distrubution: 0
Loading data page size distribution from /home/bsc/bsc018186/scratch/itp_asplos25_AE/dump/smt_srv85_ap_srv298_ap_1024i.pdst
cpu0_L2C IP-based stride prefetcher
cpu0_L2C is using PTP replacement policy:
	TLB_STRESS_THRESHOLD:0
	PTE_EVICTION_RATIO:0
cpu0_L1D next line prefetcher
CHiRPing...
cpu0_L1I next line prefetcher
Off-chip DRAM Size: 4 GiB Channels: 1 Width: 64-bit Data Rate: 3200 MT/s
Heartbeat CPU 0 instructions: 10000001 cycles: 2500376 heartbeat IPC: 3.9994 cumulative IPC: 3.9994 (Simulation time: 0 hr 0 min 36 sec) 
Heartbeat CPU 0 instructions: 20000000 cycles: 5000704 heartbeat IPC: 3.99948 cumulative IPC: 3.99944 (Simulation time: 0 hr 1 min 14 sec) 
Heartbeat CPU 0 instructions: 30000000 cycles: 7501061 heartbeat IPC: 3.99943 cumulative IPC: 3.99944 (Simulation time: 0 hr 1 min 52 sec) 
Heartbeat CPU 0 instructions: 40000001 cycles: 10001296 heartbeat IPC: 3.99963 cumulative IPC: 3.99949 (Simulation time: 0 hr 2 min 30 sec) 
Heartbeat CPU 0 instructions: 50000000 cycles: 12501581 heartbeat IPC: 3.99955 cumulative IPC: 3.9995 (Simulation time: 0 hr 3 min 9 sec) 
Warmup finished CPU 0 instructions: 50000000 cycles: 12501582 cumulative IPC: 3.9995 (Simulation time: 0 hr 3 min 9 sec) 

Warmup complete CPU 0 instructions: 50000000 cycles: 12501582 (Simulation time: 0 hr 3 min 9 sec) 

Heartbeat CPU 0 instructions: 60000003 cycles: 41261893 heartbeat IPC: 0.347702 cumulative IPC: 0.347702 (Simulation time: 0 hr 4 min 29 sec) 
Heartbeat CPU 0 instructions: 70000001 cycles: 69361254 heartbeat IPC: 0.35588 cumulative IPC: 0.351744 (Simulation time: 0 hr 5 min 48 sec) 
Heartbeat CPU 0 instructions: 80000000 cycles: 97064073 heartbeat IPC: 0.360975 cumulative IPC: 0.354768 (Simulation time: 0 hr 7 min 7 sec) 
Heartbeat CPU 0 instructions: 90000002 cycles: 126139187 heartbeat IPC: 0.343937 cumulative IPC: 0.351997 (Simulation time: 0 hr 8 min 27 sec) 
Heartbeat CPU 0 instructions: 100000000 cycles: 154805908 heartbeat IPC: 0.348837 cumulative IPC: 0.35136 (Simulation time: 0 hr 9 min 47 sec) 
Heartbeat CPU 0 instructions: 110000001 cycles: 184262802 heartbeat IPC: 0.33948 cumulative IPC: 0.349323 (Simulation time: 0 hr 11 min 9 sec) 
Heartbeat CPU 0 instructions: 120000000 cycles: 212573365 heartbeat IPC: 0.353226 cumulative IPC: 0.349875 (Simulation time: 0 hr 12 min 28 sec) 
Heartbeat CPU 0 instructions: 130000003 cycles: 242883680 heartbeat IPC: 0.329921 cumulative IPC: 0.34725 (Simulation time: 0 hr 13 min 51 sec) 
Heartbeat CPU 0 instructions: 140000004 cycles: 272024681 heartbeat IPC: 0.34316 cumulative IPC: 0.34679 (Simulation time: 0 hr 15 min 12 sec) 
Heartbeat CPU 0 instructions: 150000002 cycles: 302030974 heartbeat IPC: 0.333264 cumulative IPC: 0.345389 (Simulation time: 0 hr 16 min 34 sec) 
Simulation finished CPU 0 instructions: 100000002 cycles: 289529393 cumulative IPC: 0.345389 (Simulation time: 0 hr 16 min 34 sec) 

Simulation complete CPU 0 instructions: 100000002 cycles: 289529393 (Simulation time: 0 hr 16 min 34 sec) 


ChampSim completed all CPUs

Saving instructions large page distribution to /home/bsc/bsc018186/scratch/itp_asplos25_AE/dump/smt_srv85_ap_srv298_ap_1024i.pdst...
Saving data large page distribution to /home/bsc/bsc018186/scratch/itp_asplos25_AE/dump/smt_srv85_ap_srv298_ap_1024i.pdst...
=== Simulation ===
CPU 0 runs /gpfs/projects/bsc18/MN4/bsc18/romol/ChampSim/traces/qualcomm_srv/smt_srv85_ap_srv298_ap_1024i.champsimtrace.xz

Region of Interest Statistics

CPU 0 cumulative IPC: 0.345389 instructions: 100000002 cycles: 289529393
CPU 0 Branch Prediction Accuracy: 75.772% MPKI: 43.5968 Average ROB Occupancy at Mispredict: 11.3158
Branch type MPKI
BRANCH_DIRECT_JUMP: 1.31237
BRANCH_INDIRECT: 22.8552
BRANCH_CONDITIONAL: 12.5628
BRANCH_DIRECT_CALL: 2.48014
BRANCH_INDIRECT_CALL: 0.94035
BRANCH_RETURN: 3.44596

Instructions large pages: 0
Instructions small pages: 13541
Large page distribution for instructions: 0%

Data large pages: 0
Data small pages: 12237
Large page distribution for data: 0%

cpu0_L1I TOTAL       ACCESS:   39291298  HIT:   30513438  MISS:    8777860  iACCESS:   39291298  iHIT:   30513438  iMISS:    8777860  dACCESS:          0  dHIT:          0  dMISS:          0  itACCESS:          0  itHIT:          0  itMISS:          0  dtACCESS:          0  dtHIT:          0  dtMISS:          0
cpu0_L1I LOAD         ACCESS:   11838437  HIT:    9439346  MISS:    2399091  iACCESS:   11838437  iHIT:    9439346  iMISS:    2399091  dACCESS:          0  dHIT:          0  dMISS:          0  itACCESS:          0  itHIT:          0  itMISS:          0  dtACCESS:          0  dtHIT:          0  dtMISS:          0
cpu0_L1I RFO          ACCESS:          0  HIT:          0  MISS:          0  iACCESS:          0  iHIT:          0  iMISS:          0  dACCESS:          0  dHIT:          0  dMISS:          0  itACCESS:          0  itHIT:          0  itMISS:          0  dtACCESS:          0  dtHIT:          0  dtMISS:          0
cpu0_L1I PREFETCH     ACCESS:   27452861  HIT:   21074092  MISS:    6378769  iACCESS:   27452861  iHIT:   21074092  iMISS:    6378769  dACCESS:          0  dHIT:          0  dMISS:          0  itACCESS:          0  itHIT:          0  itMISS:          0  dtACCESS:          0  dtHIT:          0  dtMISS:          0
cpu0_L1I WRITE        ACCESS:          0  HIT:          0  MISS:          0  iACCESS:          0  iHIT:          0  iMISS:          0  dACCESS:          0  dHIT:          0  dMISS:          0  itACCESS:          0  itHIT:          0  itMISS:          0  dtACCESS:          0  dtHIT:          0  dtMISS:          0
cpu0_L1I TRANSLATION  ACCESS:          0  HIT:          0  MISS:          0  iACCESS:          0  iHIT:          0  iMISS:          0  dACCESS:          0  dHIT:          0  dMISS:          0  itACCESS:          0  itHIT:          0  itMISS:          0  dtACCESS:          0  dtHIT:          0  dtMISS:          0
cpu0_L1I PREFETCH  REQUESTED:   30345629  ISSUED:   30345618  CROSSED:          0  USEFUL:    2212580  USELESS:     765558
cpu0_L1I AVERAGE iMISS LATENCY: 22.8977 cycles
cpu0_L1I AVERAGE dMISS LATENCY: 0 cycles
cpu0_L1I AVERAGE itMISS LATENCY: 0 cycles
cpu0_L1I AVERAGE dtMISS LATENCY: 0 cycles
cpu0_L1I PAGE CROSSINGS (TLB HIT):         0 
cpu0_L1I PAGE CROSSINGS (TLB MISS):         0 
cpu0_L1I AVERAGE MISS LATENCY: 22.8977 cycles
cpu0_ITLB TOTAL       ACCESS:   33152242  HIT:   30922759  MISS:    2229483  iACCESS:   33152242  iHIT:   30922759  iMISS:    2229483  dACCESS:          0  dHIT:          0  dMISS:          0  itACCESS:          0  itHIT:          0  itMISS:          0  dtACCESS:          0  dtHIT:          0  dtMISS:          0
cpu0_ITLB LOAD         ACCESS:   33152242  HIT:   30922759  MISS:    2229483  iACCESS:   33152242  iHIT:   30922759  iMISS:    2229483  dACCESS:          0  dHIT:          0  dMISS:          0  itACCESS:          0  itHIT:          0  itMISS:          0  dtACCESS:          0  dtHIT:          0  dtMISS:          0
cpu0_ITLB RFO          ACCESS:          0  HIT:          0  MISS:          0  iACCESS:          0  iHIT:          0  iMISS:          0  dACCESS:          0  dHIT:          0  dMISS:          0  itACCESS:          0  itHIT:          0  itMISS:          0  dtACCESS:          0  dtHIT:          0  dtMISS:          0
cpu0_ITLB PREFETCH     ACCESS:          0  HIT:          0  MISS:          0  iACCESS:          0  iHIT:          0  iMISS:          0  dACCESS:          0  dHIT:          0  dMISS:          0  itACCESS:          0  itHIT:          0  itMISS:          0  dtACCESS:          0  dtHIT:          0  dtMISS:          0
cpu0_ITLB WRITE        ACCESS:          0  HIT:          0  MISS:          0  iACCESS:          0  iHIT:          0  iMISS:          0  dACCESS:          0  dHIT:          0  dMISS:          0  itACCESS:          0  itHIT:          0  itMISS:          0  dtACCESS:          0  dtHIT:          0  dtMISS:          0
cpu0_ITLB TRANSLATION  ACCESS:          0  HIT:          0  MISS:          0  iACCESS:          0  iHIT:          0  iMISS:          0  dACCESS:          0  dHIT:          0  dMISS:          0  itACCESS:          0  itHIT:          0  itMISS:          0  dtACCESS:          0  dtHIT:          0  dtMISS:          0
cpu0_ITLB PREFETCH  REQUESTED:          0  ISSUED:          0  CROSSED:          0  USEFUL:     388551  USELESS:      78250
cpu0_ITLB AVERAGE iMISS LATENCY: 9.62832 cycles
cpu0_ITLB AVERAGE dMISS LATENCY: 0 cycles
cpu0_ITLB AVERAGE itMISS LATENCY: 0 cycles
cpu0_ITLB AVERAGE dtMISS LATENCY: 0 cycles
cpu0_ITLB PAGE CROSSINGS (TLB HIT):         0 
cpu0_ITLB PAGE CROSSINGS (TLB MISS):         0 
cpu0_ITLB AVERAGE MISS LATENCY: 9.62832 cycles
cpu0_DTLB TOTAL       ACCESS:   28802881  HIT:   25088486  MISS:    3714395  iACCESS:          0  iHIT:          0  iMISS:          0  dACCESS:   28802881  dHIT:   25088486  dMISS:    3714395  itACCESS:          0  itHIT:          0  itMISS:          0  dtACCESS:          0  dtHIT:          0  dtMISS:          0
cpu0_DTLB LOAD         ACCESS:   28802881  HIT:   25088486  MISS:    3714395  iACCESS:          0  iHIT:          0  iMISS:          0  dACCESS:   28802881  dHIT:   25088486  dMISS:    3714395  itACCESS:          0  itHIT:          0  itMISS:          0  dtACCESS:          0  dtHIT:          0  dtMISS:          0
cpu0_DTLB RFO          ACCESS:          0  HIT:          0  MISS:          0  iACCESS:          0  iHIT:          0  iMISS:          0  dACCESS:          0  dHIT:          0  dMISS:          0  itACCESS:          0  itHIT:          0  itMISS:          0  dtACCESS:          0  dtHIT:          0  dtMISS:          0
cpu0_DTLB PREFETCH     ACCESS:          0  HIT:          0  MISS:          0  iACCESS:          0  iHIT:          0  iMISS:          0  dACCESS:          0  dHIT:          0  dMISS:          0  itACCESS:          0  itHIT:          0  itMISS:          0  dtACCESS:          0  dtHIT:          0  dtMISS:          0
cpu0_DTLB WRITE        ACCESS:          0  HIT:          0  MISS:          0  iACCESS:          0  iHIT:          0  iMISS:          0  dACCESS:          0  dHIT:          0  dMISS:          0  itACCESS:          0  itHIT:          0  itMISS:          0  dtACCESS:          0  dtHIT:          0  dtMISS:          0
cpu0_DTLB TRANSLATION  ACCESS:          0  HIT:          0  MISS:          0  iACCESS:          0  iHIT:          0  iMISS:          0  dACCESS:          0  dHIT:          0  dMISS:          0  itACCESS:          0  itHIT:          0  itMISS:          0  dtACCESS:          0  dtHIT:          0  dtMISS:          0
cpu0_DTLB PREFETCH  REQUESTED:          0  ISSUED:          0  CROSSED:          0  USEFUL:          0  USELESS:          0
cpu0_DTLB AVERAGE iMISS LATENCY: 0 cycles
cpu0_DTLB AVERAGE dMISS LATENCY: 23.6751 cycles
cpu0_DTLB AVERAGE itMISS LATENCY: 0 cycles
cpu0_DTLB AVERAGE dtMISS LATENCY: 0 cycles
cpu0_DTLB PAGE CROSSINGS (TLB HIT):         0 
cpu0_DTLB PAGE CROSSINGS (TLB MISS):         0 
cpu0_DTLB AVERAGE MISS LATENCY: 23.6751 cycles
cpu0_STLB TOTAL       ACCESS:    2613141  HIT:    2248652  MISS:     364489  iACCESS:     466803  iHIT:     359531  iMISS:     107272  dACCESS:    2146338  dHIT:    1889121  dMISS:     257217  itACCESS:          0  itHIT:          0  itMISS:          0  dtACCESS:          0  dtHIT:          0  dtMISS:          0
cpu0_STLB LOAD         ACCESS:    2613141  HIT:    2248652  MISS:     364489  iACCESS:     466803  iHIT:     359531  iMISS:     107272  dACCESS:    2146338  dHIT:    1889121  dMISS:     257217  itACCESS:          0  itHIT:          0  itMISS:          0  dtACCESS:          0  dtHIT:          0  dtMISS:          0
cpu0_STLB RFO          ACCESS:          0  HIT:          0  MISS:          0  iACCESS:          0  iHIT:          0  iMISS:          0  dACCESS:          0  dHIT:          0  dMISS:          0  itACCESS:          0  itHIT:          0  itMISS:          0  dtACCESS:          0  dtHIT:          0  dtMISS:          0
cpu0_STLB PREFETCH     ACCESS:          0  HIT:          0  MISS:          0  iACCESS:          0  iHIT:          0  iMISS:          0  dACCESS:          0  dHIT:          0  dMISS:          0  itACCESS:          0  itHIT:          0  itMISS:          0  dtACCESS:          0  dtHIT:          0  dtMISS:          0
cpu0_STLB WRITE        ACCESS:          0  HIT:          0  MISS:          0  iACCESS:          0  iHIT:          0  iMISS:          0  dACCESS:          0  dHIT:          0  dMISS:          0  itACCESS:          0  itHIT:          0  itMISS:          0  dtACCESS:          0  dtHIT:          0  dtMISS:          0
cpu0_STLB TRANSLATION  ACCESS:          0  HIT:          0  MISS:          0  iACCESS:          0  iHIT:          0  iMISS:          0  dACCESS:          0  dHIT:          0  dMISS:          0  itACCESS:          0  itHIT:          0  itMISS:          0  dtACCESS:          0  dtHIT:          0  dtMISS:          0
cpu0_STLB PREFETCH  REQUESTED:          0  ISSUED:          0  CROSSED:          0  USEFUL:          0  USELESS:          0
cpu0_STLB AVERAGE iMISS LATENCY: 48.6716 cycles
cpu0_STLB AVERAGE dMISS LATENCY: 193.894 cycles
cpu0_STLB AVERAGE itMISS LATENCY: 0 cycles
cpu0_STLB AVERAGE dtMISS LATENCY: 0 cycles
cpu0_STLB PAGE CROSSINGS (TLB HIT):         0 
cpu0_STLB PAGE CROSSINGS (TLB MISS):         0 
cpu0_STLB AVERAGE MISS LATENCY: 242.565 cycles
cpu0_L1D TOTAL       ACCESS:   44496018  HIT:   39111047  MISS:    5384971  iACCESS:          0  iHIT:          0  iMISS:          0  dACCESS:   43957976  dHIT:   39076791  dMISS:    4881185  itACCESS:     120747  itHIT:      14421  itMISS:     106326  dtACCESS:     417295  dtHIT:      19835  dtMISS:     397460
cpu0_L1D LOAD         ACCESS:   20027389  HIT:   17847691  MISS:    2179698  iACCESS:          0  iHIT:          0  iMISS:          0  dACCESS:   20027389  dHIT:   17847691  dMISS:    2179698  itACCESS:          0  itHIT:          0  itMISS:          0  dtACCESS:          0  dtHIT:          0  dtMISS:          0
cpu0_L1D RFO          ACCESS:          0  HIT:          0  MISS:          0  iACCESS:          0  iHIT:          0  iMISS:          0  dACCESS:          0  dHIT:          0  dMISS:          0  itACCESS:          0  itHIT:          0  itMISS:          0  dtACCESS:          0  dtHIT:          0  dtMISS:          0
cpu0_L1D PREFETCH     ACCESS:   13764890  HIT:   11625324  MISS:    2139566  iACCESS:          0  iHIT:          0  iMISS:          0  dACCESS:   13764890  dHIT:   11625324  dMISS:    2139566  itACCESS:          0  itHIT:          0  itMISS:          0  dtACCESS:          0  dtHIT:          0  dtMISS:          0
cpu0_L1D WRITE        ACCESS:   10165697  HIT:    9603776  MISS:     561921  iACCESS:          0  iHIT:          0  iMISS:          0  dACCESS:   10165697  dHIT:    9603776  dMISS:     561921  itACCESS:          0  itHIT:          0  itMISS:          0  dtACCESS:          0  dtHIT:          0  dtMISS:          0
cpu0_L1D TRANSLATION  ACCESS:     538042  HIT:      34256  MISS:     503786  iACCESS:          0  iHIT:          0  iMISS:          0  dACCESS:          0  dHIT:          0  dMISS:          0  itACCESS:     120747  itHIT:      14421  itMISS:     106326  dtACCESS:     417295  dtHIT:      19835  dtMISS:     397460
cpu0_L1D PREFETCH  REQUESTED:   20027389  ISSUED:   18363279  CROSSED:          0  USEFUL:     357991  USELESS:     935571
cpu0_L1D AVERAGE iMISS LATENCY: 0 cycles
cpu0_L1D AVERAGE dMISS LATENCY: 50.4185 cycles
cpu0_L1D AVERAGE itMISS LATENCY: 3.10632 cycles
cpu0_L1D AVERAGE dtMISS LATENCY: 12.1412 cycles
cpu0_L1D PAGE CROSSINGS (TLB HIT):         0 
cpu0_L1D PAGE CROSSINGS (TLB MISS):         0 
cpu0_L1D AVERAGE MISS LATENCY: 65.6659 cycles
cpu0_L2C TOTAL       ACCESS:    8602309  HIT:    4107095  MISS:    4495214  iACCESS:    3793300  iHIT:    2255271  iMISS:    1538029  dACCESS:    4334212  dHIT:    1786414  dMISS:    2547798  itACCESS:     105800  itHIT:      19419  itMISS:      86381  dtACCESS:     368997  dtHIT:      45991  dtMISS:     323006
cpu0_L2C LOAD         ACCESS:    2067711  HIT:     986842  MISS:    1080869  iACCESS:     854120  iHIT:     526237  iMISS:     327883  dACCESS:    1213591  dHIT:     460605  dMISS:     752986  itACCESS:          0  itHIT:          0  itMISS:          0  dtACCESS:          0  dtHIT:          0  dtMISS:          0
cpu0_L2C RFO          ACCESS:     210740  HIT:      80343  MISS:     130397  iACCESS:          0  iHIT:          0  iMISS:          0  dACCESS:     210740  dHIT:      80343  dMISS:     130397  itACCESS:          0  itHIT:          0  itMISS:          0  dtACCESS:          0  dtHIT:          0  dtMISS:          0
cpu0_L2C PREFETCH     ACCESS:    5499041  HIT:    2642881  MISS:    2856160  iACCESS:    2939180  iHIT:    1729034  iMISS:    1210146  dACCESS:    2559861  dHIT:     913847  dMISS:    1646014  itACCESS:          0  itHIT:          0  itMISS:          0  dtACCESS:          0  dtHIT:          0  dtMISS:          0
cpu0_L2C WRITE        ACCESS:     350020  HIT:     331619  MISS:      18401  iACCESS:          0  iHIT:          0  iMISS:          0  dACCESS:     350020  dHIT:     331619  dMISS:      18401  itACCESS:          0  itHIT:          0  itMISS:          0  dtACCESS:          0  dtHIT:          0  dtMISS:          0
cpu0_L2C TRANSLATION  ACCESS:     474797  HIT:      65410  MISS:     409387  iACCESS:          0  iHIT:          0  iMISS:          0  dACCESS:          0  dHIT:          0  dMISS:          0  itACCESS:     105800  itHIT:      19419  itMISS:      86381  dtACCESS:     368997  dtHIT:      45991  dtMISS:     323006
cpu0_L2C PREFETCH  REQUESTED:    1514062  ISSUED:    1514061  CROSSED:          0  USEFUL:     360062  USELESS:     328949
cpu0_L2C AVERAGE iMISS LATENCY: 37.534 cycles
cpu0_L2C AVERAGE dMISS LATENCY: 74.7786 cycles
cpu0_L2C AVERAGE itMISS LATENCY: 3.48948 cycles
cpu0_L2C AVERAGE dtMISS LATENCY: 13.7289 cycles
cpu0_L2C PAGE CROSSINGS (TLB HIT):         0 
cpu0_L2C PAGE CROSSINGS (TLB MISS):         0 
cpu0_L2C AVERAGE MISS LATENCY: 129.531 cycles
LLC TOTAL       ACCESS:    4485986  HIT:    1580030  MISS:    2905956  iACCESS:    1447512  iHIT:     559008  iMISS:     888504  dACCESS:    2629087  dHIT:     977051  dMISS:    1652036  itACCESS:      86381  itHIT:       8229  itMISS:      78152  dtACCESS:     323006  dtHIT:      35742  dtMISS:     287264
LLC LOAD         ACCESS:    1075381  HIT:     405535  MISS:     669846  iACCESS:     326653  iHIT:     137238  iMISS:     189415  dACCESS:     748728  dHIT:     268297  dMISS:     480431  itACCESS:          0  itHIT:          0  itMISS:          0  dtACCESS:          0  dtHIT:          0  dtMISS:          0
LLC RFO          ACCESS:     130395  HIT:      44180  MISS:      86215  iACCESS:          0  iHIT:          0  iMISS:          0  dACCESS:     130395  dHIT:      44180  dMISS:      86215  itACCESS:          0  itHIT:          0  itMISS:          0  dtACCESS:          0  dtHIT:          0  dtMISS:          0
LLC PREFETCH     ACCESS:    2652538  HIT:     878921  MISS:    1773617  iACCESS:    1120859  iHIT:     421770  iMISS:     699089  dACCESS:    1531679  dHIT:     457151  dMISS:    1074528  itACCESS:          0  itHIT:          0  itMISS:          0  dtACCESS:          0  dtHIT:          0  dtMISS:          0
LLC WRITE        ACCESS:     218285  HIT:     207423  MISS:      10862  iACCESS:          0  iHIT:          0  iMISS:          0  dACCESS:     218285  dHIT:     207423  dMISS:      10862  itACCESS:          0  itHIT:          0  itMISS:          0  dtACCESS:          0  dtHIT:          0  dtMISS:          0
LLC TRANSLATION  ACCESS:     409387  HIT:      43971  MISS:     365416  iACCESS:          0  iHIT:          0  iMISS:          0  dACCESS:          0  dHIT:          0  dMISS:          0  itACCESS:      86381  itHIT:       8229  itMISS:      78152  dtACCESS:     323006  dtHIT:      35742  dtMISS:     287264
LLC PREFETCH  REQUESTED:          0  ISSUED:          0  CROSSED:          0  USEFUL:          0  USELESS:          0
LLC AVERAGE iMISS LATENCY: 48.2707 cycles
LLC AVERAGE dMISS LATENCY: 100.041 cycles
LLC AVERAGE itMISS LATENCY: 4.80889 cycles
LLC AVERAGE dtMISS LATENCY: 19.04 cycles
LLC PAGE CROSSINGS (TLB HIT):         0 
LLC PAGE CROSSINGS (TLB MISS):         0 
LLC AVERAGE MISS LATENCY: 172.161 cycles

PageTableWalker TOTAL       ACCESS:     185319  
PageTableWalker AVERAGE LATENCY: 6.38789 cycles
PageTableWalker TOTAL LATENCY: 1183796 cycles

DRAM Statistics
Channel 0
 RQ ROW_BUFFER_HIT:     614228
  ROW_BUFFER_MISS:    2270876
 AVG DBUS CONGESTED CYCLE:    3.64619
 WQ ROW_BUFFER_HIT:      64391
  ROW_BUFFER_MISS:      55305  FULL:          0

