last_page:0x200000000000000
VMEM_RES_CAP:0x100000
PAGE_SIZE:4096
LOG2_PAGE_SIZE:12
LOG2_PAGE_TABLE_SIZE:9
page_table_levels:5
WARNING: physical memory size is smaller than virtual memory size
FDiP enabled with aggresivity 16

*** ChampSim Multicore Out-of-Order Simulator ***

Warmup Instructions: 50000000
Simulation Instructions: 100000000
Number of CPUs: 1
Small page size: 4096
Large page size: 2097152

CPU 0 Bimodal branch predictor
Basic BTB sets: 1024 ways: 8 indirect buffer size: 4096 RAS size: 64
Instruction page size distrubution: 0
Loading instruction page size distribution from /home/bsc/bsc018186/scratch/itp_asplos25_AE/dump/smt_srv12_ap_srv224_ap_1024i.pdst
Data page size distrubution: 0
Loading data page size distribution from /home/bsc/bsc018186/scratch/itp_asplos25_AE/dump/smt_srv12_ap_srv224_ap_1024i.pdst
cpu0_L2C IP-based stride prefetcher
cpu0_L2C is using xPTP/LRU
	TLB_LOWER_STRESS_THRESHOLD:1
	TLB_UPPER_STRESS_THRESHOLD:4
	MIN_EVICTION_POSITION:4
cpu0_L1D next line prefetcher
cpu0_STLB using iTP with max lru@8
cpu0_STLB using iTP with instr@0 and data@2
Init sat counter with 3 bits (max:50).
cpu0_L1I next line prefetcher
Off-chip DRAM Size: 4 GiB Channels: 1 Width: 64-bit Data Rate: 3200 MT/s
Heartbeat CPU 0 instructions: 10000003 cycles: 2500418 heartbeat IPC: 3.99934 cumulative IPC: 3.99934 (Simulation time: 0 hr 0 min 37 sec) 
Heartbeat CPU 0 instructions: 20000001 cycles: 5000470 heartbeat IPC: 3.99992 cumulative IPC: 3.99963 (Simulation time: 0 hr 1 min 16 sec) 
Heartbeat CPU 0 instructions: 30000002 cycles: 7500994 heartbeat IPC: 3.99917 cumulative IPC: 3.99948 (Simulation time: 0 hr 1 min 56 sec) 
Heartbeat CPU 0 instructions: 40000000 cycles: 10047204 heartbeat IPC: 3.92741 cumulative IPC: 3.98121 (Simulation time: 0 hr 2 min 36 sec) 
Heartbeat CPU 0 instructions: 50000001 cycles: 12607706 heartbeat IPC: 3.90549 cumulative IPC: 3.96583 (Simulation time: 0 hr 3 min 17 sec) 
Warmup finished CPU 0 instructions: 50000001 cycles: 12607707 cumulative IPC: 3.96583 (Simulation time: 0 hr 3 min 17 sec) 

Warmup complete CPU 0 instructions: 50000001 cycles: 12607707 (Simulation time: 0 hr 3 min 17 sec) 

Heartbeat CPU 0 instructions: 60000002 cycles: 29251999 heartbeat IPC: 0.600807 cumulative IPC: 0.600807 (Simulation time: 0 hr 4 min 26 sec) 
Heartbeat CPU 0 instructions: 70000003 cycles: 56163221 heartbeat IPC: 0.371593 cumulative IPC: 0.459185 (Simulation time: 0 hr 5 min 46 sec) 
Heartbeat CPU 0 instructions: 80000001 cycles: 82836236 heartbeat IPC: 0.374911 cumulative IPC: 0.427177 (Simulation time: 0 hr 7 min 6 sec) 
Heartbeat CPU 0 instructions: 90000001 cycles: 108022651 heartbeat IPC: 0.39704 cumulative IPC: 0.419222 (Simulation time: 0 hr 8 min 23 sec) 
Heartbeat CPU 0 instructions: 100000000 cycles: 134320503 heartbeat IPC: 0.38026 cumulative IPC: 0.410804 (Simulation time: 0 hr 9 min 42 sec) 
Heartbeat CPU 0 instructions: 110000002 cycles: 160714953 heartbeat IPC: 0.378868 cumulative IPC: 0.405112 (Simulation time: 0 hr 11 min 2 sec) 
Heartbeat CPU 0 instructions: 120000000 cycles: 186929173 heartbeat IPC: 0.381473 cumulative IPC: 0.401557 (Simulation time: 0 hr 12 min 21 sec) 
Heartbeat CPU 0 instructions: 130000000 cycles: 214299902 heartbeat IPC: 0.365354 cumulative IPC: 0.396645 (Simulation time: 0 hr 13 min 41 sec) 
Heartbeat CPU 0 instructions: 140000000 cycles: 241371882 heartbeat IPC: 0.369386 cumulative IPC: 0.393419 (Simulation time: 0 hr 15 min 2 sec) 
Heartbeat CPU 0 instructions: 150000002 cycles: 268351964 heartbeat IPC: 0.370644 cumulative IPC: 0.391016 (Simulation time: 0 hr 16 min 22 sec) 
Simulation finished CPU 0 instructions: 100000001 cycles: 255744258 cumulative IPC: 0.391016 (Simulation time: 0 hr 16 min 22 sec) 

Simulation complete CPU 0 instructions: 100000001 cycles: 255744258 (Simulation time: 0 hr 16 min 22 sec) 


ChampSim completed all CPUs

Saving instructions large page distribution to /home/bsc/bsc018186/scratch/itp_asplos25_AE/dump/smt_srv12_ap_srv224_ap_1024i.pdst...
Saving data large page distribution to /home/bsc/bsc018186/scratch/itp_asplos25_AE/dump/smt_srv12_ap_srv224_ap_1024i.pdst...
=== Simulation ===
CPU 0 runs /gpfs/projects/bsc18/MN4/bsc18/romol/ChampSim/traces/qualcomm_srv/smt_srv12_ap_srv224_ap_1024i.champsimtrace.xz

Region of Interest Statistics

CPU 0 cumulative IPC: 0.391016 instructions: 100000001 cycles: 255744258
CPU 0 Branch Prediction Accuracy: 76.3527% MPKI: 44.0973 Average ROB Occupancy at Mispredict: 11.1876
Branch type MPKI
BRANCH_DIRECT_JUMP: 1.33596
BRANCH_INDIRECT: 22.914
BRANCH_CONDITIONAL: 12.8311
BRANCH_DIRECT_CALL: 2.51381
BRANCH_INDIRECT_CALL: 1.13488
BRANCH_RETURN: 3.36757

Instructions large pages: 0
Instructions small pages: 14953
Large page distribution for instructions: 0%

Data large pages: 0
Data small pages: 13161
Large page distribution for data: 0%

cpu0_L1I TOTAL       ACCESS:   39905208  HIT:   31549359  MISS:    8355849  iACCESS:   39905208  iHIT:   31549359  iMISS:    8355849  dACCESS:          0  dHIT:          0  dMISS:          0  itACCESS:          0  itHIT:          0  itMISS:          0  dtACCESS:          0  dtHIT:          0  dtMISS:          0
cpu0_L1I LOAD         ACCESS:   11726217  HIT:    9460485  MISS:    2265732  iACCESS:   11726217  iHIT:    9460485  iMISS:    2265732  dACCESS:          0  dHIT:          0  dMISS:          0  itACCESS:          0  itHIT:          0  itMISS:          0  dtACCESS:          0  dtHIT:          0  dtMISS:          0
cpu0_L1I RFO          ACCESS:          0  HIT:          0  MISS:          0  iACCESS:          0  iHIT:          0  iMISS:          0  dACCESS:          0  dHIT:          0  dMISS:          0  itACCESS:          0  itHIT:          0  itMISS:          0  dtACCESS:          0  dtHIT:          0  dtMISS:          0
cpu0_L1I PREFETCH     ACCESS:   28178991  HIT:   22088874  MISS:    6090117  iACCESS:   28178991  iHIT:   22088874  iMISS:    6090117  dACCESS:          0  dHIT:          0  dMISS:          0  itACCESS:          0  itHIT:          0  itMISS:          0  dtACCESS:          0  dtHIT:          0  dtMISS:          0
cpu0_L1I WRITE        ACCESS:          0  HIT:          0  MISS:          0  iACCESS:          0  iHIT:          0  iMISS:          0  dACCESS:          0  dHIT:          0  dMISS:          0  itACCESS:          0  itHIT:          0  itMISS:          0  dtACCESS:          0  dtHIT:          0  dtMISS:          0
cpu0_L1I TRANSLATION  ACCESS:          0  HIT:          0  MISS:          0  iACCESS:          0  iHIT:          0  iMISS:          0  dACCESS:          0  dHIT:          0  dMISS:          0  itACCESS:          0  itHIT:          0  itMISS:          0  dtACCESS:          0  dtHIT:          0  dtMISS:          0
cpu0_L1I PREFETCH  REQUESTED:   30908131  ISSUED:   30908001  CROSSED:          0  USEFUL:    2085764  USELESS:     715922
cpu0_L1I AVERAGE iMISS LATENCY: 22.246 cycles
cpu0_L1I AVERAGE dMISS LATENCY: 0 cycles
cpu0_L1I AVERAGE itMISS LATENCY: 0 cycles
cpu0_L1I AVERAGE dtMISS LATENCY: 0 cycles
cpu0_L1I PAGE CROSSINGS (TLB HIT):         0 
cpu0_L1I PAGE CROSSINGS (TLB MISS):         0 
cpu0_L1I AVERAGE MISS LATENCY: 22.246 cycles
cpu0_ITLB TOTAL       ACCESS:   33570305  HIT:   31499126  MISS:    2071179  iACCESS:   33570305  iHIT:   31499126  iMISS:    2071179  dACCESS:          0  dHIT:          0  dMISS:          0  itACCESS:          0  itHIT:          0  itMISS:          0  dtACCESS:          0  dtHIT:          0  dtMISS:          0
cpu0_ITLB LOAD         ACCESS:   33570305  HIT:   31499126  MISS:    2071179  iACCESS:   33570305  iHIT:   31499126  iMISS:    2071179  dACCESS:          0  dHIT:          0  dMISS:          0  itACCESS:          0  itHIT:          0  itMISS:          0  dtACCESS:          0  dtHIT:          0  dtMISS:          0
cpu0_ITLB RFO          ACCESS:          0  HIT:          0  MISS:          0  iACCESS:          0  iHIT:          0  iMISS:          0  dACCESS:          0  dHIT:          0  dMISS:          0  itACCESS:          0  itHIT:          0  itMISS:          0  dtACCESS:          0  dtHIT:          0  dtMISS:          0
cpu0_ITLB PREFETCH     ACCESS:          0  HIT:          0  MISS:          0  iACCESS:          0  iHIT:          0  iMISS:          0  dACCESS:          0  dHIT:          0  dMISS:          0  itACCESS:          0  itHIT:          0  itMISS:          0  dtACCESS:          0  dtHIT:          0  dtMISS:          0
cpu0_ITLB WRITE        ACCESS:          0  HIT:          0  MISS:          0  iACCESS:          0  iHIT:          0  iMISS:          0  dACCESS:          0  dHIT:          0  dMISS:          0  itACCESS:          0  itHIT:          0  itMISS:          0  dtACCESS:          0  dtHIT:          0  dtMISS:          0
cpu0_ITLB TRANSLATION  ACCESS:          0  HIT:          0  MISS:          0  iACCESS:          0  iHIT:          0  iMISS:          0  dACCESS:          0  dHIT:          0  dMISS:          0  itACCESS:          0  itHIT:          0  itMISS:          0  dtACCESS:          0  dtHIT:          0  dtMISS:          0
cpu0_ITLB PREFETCH  REQUESTED:          0  ISSUED:          0  CROSSED:          0  USEFUL:     366345  USELESS:      75333
cpu0_ITLB AVERAGE iMISS LATENCY: 5.98493 cycles
cpu0_ITLB AVERAGE dMISS LATENCY: 0 cycles
cpu0_ITLB AVERAGE itMISS LATENCY: 0 cycles
cpu0_ITLB AVERAGE dtMISS LATENCY: 0 cycles
cpu0_ITLB PAGE CROSSINGS (TLB HIT):         0 
cpu0_ITLB PAGE CROSSINGS (TLB MISS):         0 
cpu0_ITLB AVERAGE MISS LATENCY: 5.98493 cycles
cpu0_DTLB TOTAL       ACCESS:   29794818  HIT:   25179249  MISS:    4615569  iACCESS:          0  iHIT:          0  iMISS:          0  dACCESS:   29794818  dHIT:   25179249  dMISS:    4615569  itACCESS:          0  itHIT:          0  itMISS:          0  dtACCESS:          0  dtHIT:          0  dtMISS:          0
cpu0_DTLB LOAD         ACCESS:   29794818  HIT:   25179249  MISS:    4615569  iACCESS:          0  iHIT:          0  iMISS:          0  dACCESS:   29794818  dHIT:   25179249  dMISS:    4615569  itACCESS:          0  itHIT:          0  itMISS:          0  dtACCESS:          0  dtHIT:          0  dtMISS:          0
cpu0_DTLB RFO          ACCESS:          0  HIT:          0  MISS:          0  iACCESS:          0  iHIT:          0  iMISS:          0  dACCESS:          0  dHIT:          0  dMISS:          0  itACCESS:          0  itHIT:          0  itMISS:          0  dtACCESS:          0  dtHIT:          0  dtMISS:          0
cpu0_DTLB PREFETCH     ACCESS:          0  HIT:          0  MISS:          0  iACCESS:          0  iHIT:          0  iMISS:          0  dACCESS:          0  dHIT:          0  dMISS:          0  itACCESS:          0  itHIT:          0  itMISS:          0  dtACCESS:          0  dtHIT:          0  dtMISS:          0
cpu0_DTLB WRITE        ACCESS:          0  HIT:          0  MISS:          0  iACCESS:          0  iHIT:          0  iMISS:          0  dACCESS:          0  dHIT:          0  dMISS:          0  itACCESS:          0  itHIT:          0  itMISS:          0  dtACCESS:          0  dtHIT:          0  dtMISS:          0
cpu0_DTLB TRANSLATION  ACCESS:          0  HIT:          0  MISS:          0  iACCESS:          0  iHIT:          0  iMISS:          0  dACCESS:          0  dHIT:          0  dMISS:          0  itACCESS:          0  itHIT:          0  itMISS:          0  dtACCESS:          0  dtHIT:          0  dtMISS:          0
cpu0_DTLB PREFETCH  REQUESTED:          0  ISSUED:          0  CROSSED:          0  USEFUL:          0  USELESS:          0
cpu0_DTLB AVERAGE iMISS LATENCY: 0 cycles
cpu0_DTLB AVERAGE dMISS LATENCY: 14.6845 cycles
cpu0_DTLB AVERAGE itMISS LATENCY: 0 cycles
cpu0_DTLB AVERAGE dtMISS LATENCY: 0 cycles
cpu0_DTLB PAGE CROSSINGS (TLB HIT):         0 
cpu0_DTLB PAGE CROSSINGS (TLB MISS):         0 
cpu0_DTLB AVERAGE MISS LATENCY: 14.6845 cycles
cpu0_STLB TOTAL       ACCESS:    3004331  HIT:    2666465  MISS:     337866  iACCESS:     441684  iHIT:     385802  iMISS:      55882  dACCESS:    2562647  dHIT:    2280663  dMISS:     281984  itACCESS:          0  itHIT:          0  itMISS:          0  dtACCESS:          0  dtHIT:          0  dtMISS:          0
cpu0_STLB LOAD         ACCESS:    3004331  HIT:    2666465  MISS:     337866  iACCESS:     441684  iHIT:     385802  iMISS:      55882  dACCESS:    2562647  dHIT:    2280663  dMISS:     281984  itACCESS:          0  itHIT:          0  itMISS:          0  dtACCESS:          0  dtHIT:          0  dtMISS:          0
cpu0_STLB RFO          ACCESS:          0  HIT:          0  MISS:          0  iACCESS:          0  iHIT:          0  iMISS:          0  dACCESS:          0  dHIT:          0  dMISS:          0  itACCESS:          0  itHIT:          0  itMISS:          0  dtACCESS:          0  dtHIT:          0  dtMISS:          0
cpu0_STLB PREFETCH     ACCESS:          0  HIT:          0  MISS:          0  iACCESS:          0  iHIT:          0  iMISS:          0  dACCESS:          0  dHIT:          0  dMISS:          0  itACCESS:          0  itHIT:          0  itMISS:          0  dtACCESS:          0  dtHIT:          0  dtMISS:          0
cpu0_STLB WRITE        ACCESS:          0  HIT:          0  MISS:          0  iACCESS:          0  iHIT:          0  iMISS:          0  dACCESS:          0  dHIT:          0  dMISS:          0  itACCESS:          0  itHIT:          0  itMISS:          0  dtACCESS:          0  dtHIT:          0  dtMISS:          0
cpu0_STLB TRANSLATION  ACCESS:          0  HIT:          0  MISS:          0  iACCESS:          0  iHIT:          0  iMISS:          0  dACCESS:          0  dHIT:          0  dMISS:          0  itACCESS:          0  itHIT:          0  itMISS:          0  dtACCESS:          0  dtHIT:          0  dtMISS:          0
cpu0_STLB PREFETCH  REQUESTED:          0  ISSUED:          0  CROSSED:          0  USEFUL:          0  USELESS:          0
cpu0_STLB AVERAGE iMISS LATENCY: 26.4079 cycles
cpu0_STLB AVERAGE dMISS LATENCY: 139.323 cycles
cpu0_STLB AVERAGE itMISS LATENCY: 0 cycles
cpu0_STLB AVERAGE dtMISS LATENCY: 0 cycles
cpu0_STLB PAGE CROSSINGS (TLB HIT):         0 
cpu0_STLB PAGE CROSSINGS (TLB MISS):         0 
cpu0_STLB AVERAGE MISS LATENCY: 165.73 cycles
cpu0_L1D TOTAL       ACCESS:   46304707  HIT:   39577055  MISS:    6727652  iACCESS:          0  iHIT:          0  iMISS:          0  dACCESS:   45786462  dHIT:   39550689  dMISS:    6235773  itACCESS:      65879  itHIT:       5059  itMISS:      60820  dtACCESS:     452366  dtHIT:      21307  dtMISS:     431059
cpu0_L1D LOAD         ACCESS:   21449071  HIT:   18282329  MISS:    3166742  iACCESS:          0  iHIT:          0  iMISS:          0  dACCESS:   21449071  dHIT:   18282329  dMISS:    3166742  itACCESS:          0  itHIT:          0  itMISS:          0  dtACCESS:          0  dtHIT:          0  dtMISS:          0
cpu0_L1D RFO          ACCESS:          0  HIT:          0  MISS:          0  iACCESS:          0  iHIT:          0  iMISS:          0  dACCESS:          0  dHIT:          0  dMISS:          0  itACCESS:          0  itHIT:          0  itMISS:          0  dtACCESS:          0  dtHIT:          0  dtMISS:          0
cpu0_L1D PREFETCH     ACCESS:   14288710  HIT:   11774692  MISS:    2514018  iACCESS:          0  iHIT:          0  iMISS:          0  dACCESS:   14288710  dHIT:   11774692  dMISS:    2514018  itACCESS:          0  itHIT:          0  itMISS:          0  dtACCESS:          0  dtHIT:          0  dtMISS:          0
cpu0_L1D WRITE        ACCESS:   10048681  HIT:    9493668  MISS:     555013  iACCESS:          0  iHIT:          0  iMISS:          0  dACCESS:   10048681  dHIT:    9493668  dMISS:     555013  itACCESS:          0  itHIT:          0  itMISS:          0  dtACCESS:          0  dtHIT:          0  dtMISS:          0
cpu0_L1D TRANSLATION  ACCESS:     518245  HIT:      26366  MISS:     491879  iACCESS:          0  iHIT:          0  iMISS:          0  dACCESS:          0  dHIT:          0  dMISS:          0  itACCESS:      65879  itHIT:       5059  itMISS:      60820  dtACCESS:     452366  dtHIT:      21307  dtMISS:     431059
cpu0_L1D PREFETCH  REQUESTED:   21449071  ISSUED:   18696428  CROSSED:          0  USEFUL:     344148  USELESS:     987301
cpu0_L1D AVERAGE iMISS LATENCY: 0 cycles
cpu0_L1D AVERAGE dMISS LATENCY: 38.8141 cycles
cpu0_L1D AVERAGE itMISS LATENCY: 1.22654 cycles
cpu0_L1D AVERAGE dtMISS LATENCY: 6.18431 cycles
cpu0_L1D PAGE CROSSINGS (TLB HIT):         0 
cpu0_L1D PAGE CROSSINGS (TLB MISS):         0 
cpu0_L1D AVERAGE MISS LATENCY: 46.2249 cycles
cpu0_L2C TOTAL       ACCESS:    9000739  HIT:    2804351  MISS:    6196388  iACCESS:    3547425  iHIT:    1350740  iMISS:    2196685  dACCESS:    4987801  dHIT:    1251477  dMISS:    3736324  itACCESS:      60172  itHIT:      14049  itMISS:      46123  dtACCESS:     405341  dtHIT:     188085  dtMISS:     217256
cpu0_L2C LOAD         ACCESS:    2660017  HIT:     798907  MISS:    1861110  iACCESS:     781181  iHIT:     266466  iMISS:     514715  dACCESS:    1878836  dHIT:     532441  dMISS:    1346395  itACCESS:          0  itHIT:          0  itMISS:          0  dtACCESS:          0  dtHIT:          0  dtMISS:          0
cpu0_L2C RFO          ACCESS:     216619  HIT:      33197  MISS:     183422  iACCESS:          0  iHIT:          0  iMISS:          0  dACCESS:     216619  dHIT:      33197  dMISS:     183422  itACCESS:          0  itHIT:          0  itMISS:          0  dtACCESS:          0  dtHIT:          0  dtMISS:          0
cpu0_L2C PREFETCH     ACCESS:    5329310  HIT:    1647130  MISS:    3682180  iACCESS:    2766244  iHIT:    1084274  iMISS:    1681970  dACCESS:    2563066  dHIT:     562856  dMISS:    2000210  itACCESS:          0  itHIT:          0  itMISS:          0  dtACCESS:          0  dtHIT:          0  dtMISS:          0
cpu0_L2C WRITE        ACCESS:     329280  HIT:     122983  MISS:     206297  iACCESS:          0  iHIT:          0  iMISS:          0  dACCESS:     329280  dHIT:     122983  dMISS:     206297  itACCESS:          0  itHIT:          0  itMISS:          0  dtACCESS:          0  dtHIT:          0  dtMISS:          0
cpu0_L2C TRANSLATION  ACCESS:     465513  HIT:     202134  MISS:     263379  iACCESS:          0  iHIT:          0  iMISS:          0  dACCESS:          0  dHIT:          0  dMISS:          0  itACCESS:      60172  itHIT:      14049  itMISS:      46123  dtACCESS:     405341  dtHIT:     188085  dtMISS:     217256
cpu0_L2C PREFETCH  REQUESTED:    1452351  ISSUED:    1452345  CROSSED:          0  USEFUL:     365056  USELESS:     421632
cpu0_L2C AVERAGE iMISS LATENCY: 25.1003 cycles
cpu0_L2C AVERAGE dMISS LATENCY: 49.8 cycles
cpu0_L2C AVERAGE itMISS LATENCY: 1.2366 cycles
cpu0_L2C AVERAGE dtMISS LATENCY: 6.08773 cycles
cpu0_L2C PAGE CROSSINGS (TLB HIT):         0 
cpu0_L2C PAGE CROSSINGS (TLB MISS):         0 
cpu0_L2C AVERAGE MISS LATENCY: 82.2245 cycles
LLC TOTAL       ACCESS:    6046333  HIT:    3690304  MISS:    2356029  iACCESS:    2112888  iHIT:    1377484  iMISS:     735404  dACCESS:    3670066  dHIT:    2265444  dMISS:    1404622  itACCESS:      46123  itHIT:       8114  itMISS:      38009  dtACCESS:     217256  dtHIT:      39262  dtMISS:     177994
LLC LOAD         ACCESS:    1855640  HIT:    1300443  MISS:     555197  iACCESS:     513315  iHIT:     359341  iMISS:     153974  dACCESS:    1342325  dHIT:     941102  dMISS:     401223  itACCESS:          0  itHIT:          0  itMISS:          0  dtACCESS:          0  dtHIT:          0  dtMISS:          0
LLC RFO          ACCESS:     183414  HIT:     104141  MISS:      79273  iACCESS:          0  iHIT:          0  iMISS:          0  dACCESS:     183414  dHIT:     104141  dMISS:      79273  itACCESS:          0  itHIT:          0  itMISS:          0  dtACCESS:          0  dtHIT:          0  dtMISS:          0
LLC PREFETCH     ACCESS:    3485465  HIT:    1983575  MISS:    1501890  iACCESS:    1599573  iHIT:    1018143  iMISS:     581430  dACCESS:    1885892  dHIT:     965432  dMISS:     920460  itACCESS:          0  itHIT:          0  itMISS:          0  dtACCESS:          0  dtHIT:          0  dtMISS:          0
LLC WRITE        ACCESS:     258435  HIT:     254769  MISS:       3666  iACCESS:          0  iHIT:          0  iMISS:          0  dACCESS:     258435  dHIT:     254769  dMISS:       3666  itACCESS:          0  itHIT:          0  itMISS:          0  dtACCESS:          0  dtHIT:          0  dtMISS:          0
LLC TRANSLATION  ACCESS:     263379  HIT:      47376  MISS:     216003  iACCESS:          0  iHIT:          0  iMISS:          0  dACCESS:          0  dHIT:          0  dMISS:          0  itACCESS:      46123  itHIT:       8114  itMISS:      38009  dtACCESS:     217256  dtHIT:      39262  dtMISS:     177994
LLC PREFETCH  REQUESTED:          0  ISSUED:          0  CROSSED:          0  USEFUL:          0  USELESS:          0
LLC AVERAGE iMISS LATENCY: 48.5672 cycles
LLC AVERAGE dMISS LATENCY: 103.359 cycles
LLC AVERAGE itMISS LATENCY: 2.86563 cycles
LLC AVERAGE dtMISS LATENCY: 14.1909 cycles
LLC PAGE CROSSINGS (TLB HIT):         0 
LLC PAGE CROSSINGS (TLB MISS):         0 
LLC AVERAGE MISS LATENCY: 168.983 cycles

PageTableWalker TOTAL       ACCESS:     150549  
PageTableWalker AVERAGE LATENCY: 6.15044 cycles
PageTableWalker TOTAL LATENCY: 925942 cycles

DRAM Statistics
Channel 0
 RQ ROW_BUFFER_HIT:     549589
  ROW_BUFFER_MISS:    1793963
 AVG DBUS CONGESTED CYCLE:    3.65279
 WQ ROW_BUFFER_HIT:      58707
  ROW_BUFFER_MISS:      56886  FULL:          0

