last_page:0x200000000000000
VMEM_RES_CAP:0x100000
PAGE_SIZE:4096
LOG2_PAGE_SIZE:12
LOG2_PAGE_TABLE_SIZE:9
page_table_levels:5
WARNING: physical memory size is smaller than virtual memory size
FDiP enabled with aggresivity 16

*** ChampSim Multicore Out-of-Order Simulator ***

Warmup Instructions: 50000000
Simulation Instructions: 100000000
Number of CPUs: 1
Small page size: 4096
Large page size: 2097152

CPU 0 Bimodal branch predictor
Basic BTB sets: 1024 ways: 8 indirect buffer size: 4096 RAS size: 64
Instruction page size distrubution: 0
Loading instruction page size distribution from /home/bsc/bsc018186/scratch/itp_asplos25_AE/dump/smt_srv12_ap_srv442_ap_1024i.pdst
Data page size distrubution: 0
Loading data page size distribution from /home/bsc/bsc018186/scratch/itp_asplos25_AE/dump/smt_srv12_ap_srv442_ap_1024i.pdst
cpu0_L2C IP-based stride prefetcher
cpu0_L1D next line prefetcher
cpu0_STLB using iTP with max lru@8
cpu0_STLB using iTP with instr@0 and data@2
Init sat counter with 3 bits (max:50).
cpu0_L1I next line prefetcher
Off-chip DRAM Size: 4 GiB Channels: 1 Width: 64-bit Data Rate: 3200 MT/s
Heartbeat CPU 0 instructions: 10000002 cycles: 2500322 heartbeat IPC: 3.99949 cumulative IPC: 3.99949 (Simulation time: 0 hr 0 min 35 sec) 
Heartbeat CPU 0 instructions: 20000001 cycles: 5000358 heartbeat IPC: 3.99995 cumulative IPC: 3.99972 (Simulation time: 0 hr 1 min 14 sec) 
Heartbeat CPU 0 instructions: 30000003 cycles: 7500781 heartbeat IPC: 3.99933 cumulative IPC: 3.99959 (Simulation time: 0 hr 1 min 53 sec) 
Heartbeat CPU 0 instructions: 40000002 cycles: 10000867 heartbeat IPC: 3.99987 cumulative IPC: 3.99966 (Simulation time: 0 hr 2 min 31 sec) 
Heartbeat CPU 0 instructions: 50000000 cycles: 12500996 heartbeat IPC: 3.9998 cumulative IPC: 3.99969 (Simulation time: 0 hr 3 min 10 sec) 
Warmup finished CPU 0 instructions: 50000000 cycles: 12500997 cumulative IPC: 3.99969 (Simulation time: 0 hr 3 min 10 sec) 

Warmup complete CPU 0 instructions: 50000000 cycles: 12500997 (Simulation time: 0 hr 3 min 10 sec) 

Heartbeat CPU 0 instructions: 60000000 cycles: 40171823 heartbeat IPC: 0.361392 cumulative IPC: 0.361392 (Simulation time: 0 hr 4 min 29 sec) 
Heartbeat CPU 0 instructions: 70000004 cycles: 66900626 heartbeat IPC: 0.374129 cumulative IPC: 0.36765 (Simulation time: 0 hr 5 min 48 sec) 
Heartbeat CPU 0 instructions: 80000001 cycles: 94299485 heartbeat IPC: 0.364979 cumulative IPC: 0.366755 (Simulation time: 0 hr 7 min 7 sec) 
Heartbeat CPU 0 instructions: 90000000 cycles: 120607759 heartbeat IPC: 0.380109 cumulative IPC: 0.370005 (Simulation time: 0 hr 8 min 23 sec) 
Heartbeat CPU 0 instructions: 100000001 cycles: 147680319 heartbeat IPC: 0.369378 cumulative IPC: 0.36988 (Simulation time: 0 hr 9 min 49 sec) 
Heartbeat CPU 0 instructions: 110000003 cycles: 174842303 heartbeat IPC: 0.368162 cumulative IPC: 0.369592 (Simulation time: 0 hr 11 min 8 sec) 
Heartbeat CPU 0 instructions: 120000002 cycles: 201057601 heartbeat IPC: 0.381457 cumulative IPC: 0.371242 (Simulation time: 0 hr 12 min 26 sec) 
Heartbeat CPU 0 instructions: 130000000 cycles: 229402117 heartbeat IPC: 0.352802 cumulative IPC: 0.368832 (Simulation time: 0 hr 13 min 46 sec) 
Heartbeat CPU 0 instructions: 140000000 cycles: 256484038 heartbeat IPC: 0.369251 cumulative IPC: 0.368879 (Simulation time: 0 hr 15 min 5 sec) 
Heartbeat CPU 0 instructions: 150000002 cycles: 283448941 heartbeat IPC: 0.370853 cumulative IPC: 0.369075 (Simulation time: 0 hr 16 min 23 sec) 
Simulation finished CPU 0 instructions: 100000002 cycles: 270947945 cumulative IPC: 0.369075 (Simulation time: 0 hr 16 min 23 sec) 

Simulation complete CPU 0 instructions: 100000002 cycles: 270947945 (Simulation time: 0 hr 16 min 23 sec) 


ChampSim completed all CPUs

Saving instructions large page distribution to /home/bsc/bsc018186/scratch/itp_asplos25_AE/dump/smt_srv12_ap_srv442_ap_1024i.pdst...
Saving data large page distribution to /home/bsc/bsc018186/scratch/itp_asplos25_AE/dump/smt_srv12_ap_srv442_ap_1024i.pdst...
=== Simulation ===
CPU 0 runs /gpfs/projects/bsc18/MN4/bsc18/romol/ChampSim/traces/qualcomm_srv/smt_srv12_ap_srv442_ap_1024i.champsimtrace.xz

Region of Interest Statistics

CPU 0 cumulative IPC: 0.369075 instructions: 100000002 cycles: 270947945
CPU 0 Branch Prediction Accuracy: 75.7426% MPKI: 43.9697 Average ROB Occupancy at Mispredict: 10.7781
Branch type MPKI
BRANCH_DIRECT_JUMP: 1.386
BRANCH_INDIRECT: 23.1713
BRANCH_CONDITIONAL: 12.2361
BRANCH_DIRECT_CALL: 2.58697
BRANCH_INDIRECT_CALL: 1.12083
BRANCH_RETURN: 3.46852

Instructions large pages: 0
Instructions small pages: 11516
Large page distribution for instructions: 0%

Data large pages: 0
Data small pages: 9858
Large page distribution for data: 0%

cpu0_L1I TOTAL       ACCESS:   39414775  HIT:   30029207  MISS:    9385568  iACCESS:   39414775  iHIT:   30029207  iMISS:    9385568  dACCESS:          0  dHIT:          0  dMISS:          0  itACCESS:          0  itHIT:          0  itMISS:          0  dtACCESS:          0  dtHIT:          0  dtMISS:          0
cpu0_L1I LOAD         ACCESS:   11745145  HIT:    9178909  MISS:    2566236  iACCESS:   11745145  iHIT:    9178909  iMISS:    2566236  dACCESS:          0  dHIT:          0  dMISS:          0  itACCESS:          0  itHIT:          0  itMISS:          0  dtACCESS:          0  dtHIT:          0  dtMISS:          0
cpu0_L1I RFO          ACCESS:          0  HIT:          0  MISS:          0  iACCESS:          0  iHIT:          0  iMISS:          0  dACCESS:          0  dHIT:          0  dMISS:          0  itACCESS:          0  itHIT:          0  itMISS:          0  dtACCESS:          0  dtHIT:          0  dtMISS:          0
cpu0_L1I PREFETCH     ACCESS:   27669630  HIT:   20850298  MISS:    6819332  iACCESS:   27669630  iHIT:   20850298  iMISS:    6819332  dACCESS:          0  dHIT:          0  dMISS:          0  itACCESS:          0  itHIT:          0  itMISS:          0  dtACCESS:          0  dtHIT:          0  dtMISS:          0
cpu0_L1I WRITE        ACCESS:          0  HIT:          0  MISS:          0  iACCESS:          0  iHIT:          0  iMISS:          0  dACCESS:          0  dHIT:          0  dMISS:          0  itACCESS:          0  itHIT:          0  itMISS:          0  dtACCESS:          0  dtHIT:          0  dtMISS:          0
cpu0_L1I TRANSLATION  ACCESS:          0  HIT:          0  MISS:          0  iACCESS:          0  iHIT:          0  iMISS:          0  dACCESS:          0  dHIT:          0  dMISS:          0  itACCESS:          0  itHIT:          0  itMISS:          0  dtACCESS:          0  dtHIT:          0  dtMISS:          0
cpu0_L1I PREFETCH  REQUESTED:   30263993  ISSUED:   30262925  CROSSED:          0  USEFUL:    2238312  USELESS:     784024
cpu0_L1I AVERAGE iMISS LATENCY: 22.4899 cycles
cpu0_L1I AVERAGE dMISS LATENCY: 0 cycles
cpu0_L1I AVERAGE itMISS LATENCY: 0 cycles
cpu0_L1I AVERAGE dtMISS LATENCY: 0 cycles
cpu0_L1I PAGE CROSSINGS (TLB HIT):         0 
cpu0_L1I PAGE CROSSINGS (TLB MISS):         0 
cpu0_L1I AVERAGE MISS LATENCY: 22.4899 cycles
cpu0_ITLB TOTAL       ACCESS:   33140720  HIT:   30852823  MISS:    2287897  iACCESS:   33140720  iHIT:   30852823  iMISS:    2287897  dACCESS:          0  dHIT:          0  dMISS:          0  itACCESS:          0  itHIT:          0  itMISS:          0  dtACCESS:          0  dtHIT:          0  dtMISS:          0
cpu0_ITLB LOAD         ACCESS:   33140720  HIT:   30852823  MISS:    2287897  iACCESS:   33140720  iHIT:   30852823  iMISS:    2287897  dACCESS:          0  dHIT:          0  dMISS:          0  itACCESS:          0  itHIT:          0  itMISS:          0  dtACCESS:          0  dtHIT:          0  dtMISS:          0
cpu0_ITLB RFO          ACCESS:          0  HIT:          0  MISS:          0  iACCESS:          0  iHIT:          0  iMISS:          0  dACCESS:          0  dHIT:          0  dMISS:          0  itACCESS:          0  itHIT:          0  itMISS:          0  dtACCESS:          0  dtHIT:          0  dtMISS:          0
cpu0_ITLB PREFETCH     ACCESS:          0  HIT:          0  MISS:          0  iACCESS:          0  iHIT:          0  iMISS:          0  dACCESS:          0  dHIT:          0  dMISS:          0  itACCESS:          0  itHIT:          0  itMISS:          0  dtACCESS:          0  dtHIT:          0  dtMISS:          0
cpu0_ITLB WRITE        ACCESS:          0  HIT:          0  MISS:          0  iACCESS:          0  iHIT:          0  iMISS:          0  dACCESS:          0  dHIT:          0  dMISS:          0  itACCESS:          0  itHIT:          0  itMISS:          0  dtACCESS:          0  dtHIT:          0  dtMISS:          0
cpu0_ITLB TRANSLATION  ACCESS:          0  HIT:          0  MISS:          0  iACCESS:          0  iHIT:          0  iMISS:          0  dACCESS:          0  dHIT:          0  dMISS:          0  itACCESS:          0  itHIT:          0  itMISS:          0  dtACCESS:          0  dtHIT:          0  dtMISS:          0
cpu0_ITLB PREFETCH  REQUESTED:          0  ISSUED:          0  CROSSED:          0  USEFUL:     396411  USELESS:      84067
cpu0_ITLB AVERAGE iMISS LATENCY: 5.16344 cycles
cpu0_ITLB AVERAGE dMISS LATENCY: 0 cycles
cpu0_ITLB AVERAGE itMISS LATENCY: 0 cycles
cpu0_ITLB AVERAGE dtMISS LATENCY: 0 cycles
cpu0_ITLB PAGE CROSSINGS (TLB HIT):         0 
cpu0_ITLB PAGE CROSSINGS (TLB MISS):         0 
cpu0_ITLB AVERAGE MISS LATENCY: 5.16344 cycles
cpu0_DTLB TOTAL       ACCESS:   28983553  HIT:   25418970  MISS:    3564583  iACCESS:          0  iHIT:          0  iMISS:          0  dACCESS:   28983553  dHIT:   25418970  dMISS:    3564583  itACCESS:          0  itHIT:          0  itMISS:          0  dtACCESS:          0  dtHIT:          0  dtMISS:          0
cpu0_DTLB LOAD         ACCESS:   28983553  HIT:   25418970  MISS:    3564583  iACCESS:          0  iHIT:          0  iMISS:          0  dACCESS:   28983553  dHIT:   25418970  dMISS:    3564583  itACCESS:          0  itHIT:          0  itMISS:          0  dtACCESS:          0  dtHIT:          0  dtMISS:          0
cpu0_DTLB RFO          ACCESS:          0  HIT:          0  MISS:          0  iACCESS:          0  iHIT:          0  iMISS:          0  dACCESS:          0  dHIT:          0  dMISS:          0  itACCESS:          0  itHIT:          0  itMISS:          0  dtACCESS:          0  dtHIT:          0  dtMISS:          0
cpu0_DTLB PREFETCH     ACCESS:          0  HIT:          0  MISS:          0  iACCESS:          0  iHIT:          0  iMISS:          0  dACCESS:          0  dHIT:          0  dMISS:          0  itACCESS:          0  itHIT:          0  itMISS:          0  dtACCESS:          0  dtHIT:          0  dtMISS:          0
cpu0_DTLB WRITE        ACCESS:          0  HIT:          0  MISS:          0  iACCESS:          0  iHIT:          0  iMISS:          0  dACCESS:          0  dHIT:          0  dMISS:          0  itACCESS:          0  itHIT:          0  itMISS:          0  dtACCESS:          0  dtHIT:          0  dtMISS:          0
cpu0_DTLB TRANSLATION  ACCESS:          0  HIT:          0  MISS:          0  iACCESS:          0  iHIT:          0  iMISS:          0  dACCESS:          0  dHIT:          0  dMISS:          0  itACCESS:          0  itHIT:          0  itMISS:          0  dtACCESS:          0  dtHIT:          0  dtMISS:          0
cpu0_DTLB PREFETCH  REQUESTED:          0  ISSUED:          0  CROSSED:          0  USEFUL:          0  USELESS:          0
cpu0_DTLB AVERAGE iMISS LATENCY: 0 cycles
cpu0_DTLB AVERAGE dMISS LATENCY: 19.1647 cycles
cpu0_DTLB AVERAGE itMISS LATENCY: 0 cycles
cpu0_DTLB AVERAGE dtMISS LATENCY: 0 cycles
cpu0_DTLB PAGE CROSSINGS (TLB HIT):         0 
cpu0_DTLB PAGE CROSSINGS (TLB MISS):         0 
cpu0_DTLB AVERAGE MISS LATENCY: 19.1647 cycles
cpu0_STLB TOTAL       ACCESS:    2563065  HIT:    2199498  MISS:     363567  iACCESS:     480481  iHIT:     429900  iMISS:      50581  dACCESS:    2082584  dHIT:    1769598  dMISS:     312986  itACCESS:          0  itHIT:          0  itMISS:          0  dtACCESS:          0  dtHIT:          0  dtMISS:          0
cpu0_STLB LOAD         ACCESS:    2563065  HIT:    2199498  MISS:     363567  iACCESS:     480481  iHIT:     429900  iMISS:      50581  dACCESS:    2082584  dHIT:    1769598  dMISS:     312986  itACCESS:          0  itHIT:          0  itMISS:          0  dtACCESS:          0  dtHIT:          0  dtMISS:          0
cpu0_STLB RFO          ACCESS:          0  HIT:          0  MISS:          0  iACCESS:          0  iHIT:          0  iMISS:          0  dACCESS:          0  dHIT:          0  dMISS:          0  itACCESS:          0  itHIT:          0  itMISS:          0  dtACCESS:          0  dtHIT:          0  dtMISS:          0
cpu0_STLB PREFETCH     ACCESS:          0  HIT:          0  MISS:          0  iACCESS:          0  iHIT:          0  iMISS:          0  dACCESS:          0  dHIT:          0  dMISS:          0  itACCESS:          0  itHIT:          0  itMISS:          0  dtACCESS:          0  dtHIT:          0  dtMISS:          0
cpu0_STLB WRITE        ACCESS:          0  HIT:          0  MISS:          0  iACCESS:          0  iHIT:          0  iMISS:          0  dACCESS:          0  dHIT:          0  dMISS:          0  itACCESS:          0  itHIT:          0  itMISS:          0  dtACCESS:          0  dtHIT:          0  dtMISS:          0
cpu0_STLB TRANSLATION  ACCESS:          0  HIT:          0  MISS:          0  iACCESS:          0  iHIT:          0  iMISS:          0  dACCESS:          0  dHIT:          0  dMISS:          0  itACCESS:          0  itHIT:          0  itMISS:          0  dtACCESS:          0  dtHIT:          0  dtMISS:          0
cpu0_STLB PREFETCH  REQUESTED:          0  ISSUED:          0  CROSSED:          0  USEFUL:          0  USELESS:          0
cpu0_STLB AVERAGE iMISS LATENCY: 22.1331 cycles
cpu0_STLB AVERAGE dMISS LATENCY: 141.734 cycles
cpu0_STLB AVERAGE itMISS LATENCY: 0 cycles
cpu0_STLB AVERAGE dtMISS LATENCY: 0 cycles
cpu0_STLB PAGE CROSSINGS (TLB HIT):         0 
cpu0_STLB PAGE CROSSINGS (TLB MISS):         0 
cpu0_STLB AVERAGE MISS LATENCY: 163.867 cycles
cpu0_L1D TOTAL       ACCESS:   45151026  HIT:   39242884  MISS:    5908142  iACCESS:          0  iHIT:          0  iMISS:          0  dACCESS:   44580649  dHIT:   39215178  dMISS:    5365471  itACCESS:      62628  itHIT:       4373  itMISS:      58255  dtACCESS:     507749  dtHIT:      23333  dtMISS:     484416
cpu0_L1D LOAD         ACCESS:   20372949  HIT:   17975598  MISS:    2397351  iACCESS:          0  iHIT:          0  iMISS:          0  dACCESS:   20372949  dHIT:   17975598  dMISS:    2397351  itACCESS:          0  itHIT:          0  itMISS:          0  dtACCESS:          0  dtHIT:          0  dtMISS:          0
cpu0_L1D RFO          ACCESS:          0  HIT:          0  MISS:          0  iACCESS:          0  iHIT:          0  iMISS:          0  dACCESS:          0  dHIT:          0  dMISS:          0  itACCESS:          0  itHIT:          0  itMISS:          0  dtACCESS:          0  dtHIT:          0  dtMISS:          0
cpu0_L1D PREFETCH     ACCESS:   14034769  HIT:   11656713  MISS:    2378056  iACCESS:          0  iHIT:          0  iMISS:          0  dACCESS:   14034769  dHIT:   11656713  dMISS:    2378056  itACCESS:          0  itHIT:          0  itMISS:          0  dtACCESS:          0  dtHIT:          0  dtMISS:          0
cpu0_L1D WRITE        ACCESS:   10172931  HIT:    9582867  MISS:     590064  iACCESS:          0  iHIT:          0  iMISS:          0  dACCESS:   10172931  dHIT:    9582867  dMISS:     590064  itACCESS:          0  itHIT:          0  itMISS:          0  dtACCESS:          0  dtHIT:          0  dtMISS:          0
cpu0_L1D TRANSLATION  ACCESS:     570377  HIT:      27706  MISS:     542671  iACCESS:          0  iHIT:          0  iMISS:          0  dACCESS:          0  dHIT:          0  dMISS:          0  itACCESS:      62628  itHIT:       4373  itMISS:      58255  dtACCESS:     507749  dtHIT:      23333  dtMISS:     484416
cpu0_L1D PREFETCH  REQUESTED:   20372949  ISSUED:   18593519  CROSSED:          0  USEFUL:     362349  USELESS:     940411
cpu0_L1D AVERAGE iMISS LATENCY: 0 cycles
cpu0_L1D AVERAGE dMISS LATENCY: 50.0014 cycles
cpu0_L1D AVERAGE itMISS LATENCY: 1.25281 cycles
cpu0_L1D AVERAGE dtMISS LATENCY: 7.82283 cycles
cpu0_L1D PAGE CROSSINGS (TLB HIT):         0 
cpu0_L1D PAGE CROSSINGS (TLB MISS):         0 
cpu0_L1D AVERAGE MISS LATENCY: 59.077 cycles
cpu0_L2C TOTAL       ACCESS:    8723568  HIT:    1593703  MISS:    7129865  iACCESS:    3851750  iHIT:     830167  iMISS:    3021583  dACCESS:    4367146  dHIT:     562382  dMISS:    3804764  itACCESS:      56595  itHIT:      14618  itMISS:      41977  dtACCESS:     448077  dtHIT:     186536  dtMISS:     261541
cpu0_L2C LOAD         ACCESS:    2087234  HIT:     222133  MISS:    1865101  iACCESS:     865815  iHIT:     119601  iMISS:     746214  dACCESS:    1221419  dHIT:     102532  dMISS:    1118887  itACCESS:          0  itHIT:          0  itMISS:          0  dtACCESS:          0  dtHIT:          0  dtMISS:          0
cpu0_L2C RFO          ACCESS:     217245  HIT:      30028  MISS:     187217  iACCESS:          0  iHIT:          0  iMISS:          0  dACCESS:     217245  dHIT:      30028  dMISS:     187217  itACCESS:          0  itHIT:          0  itMISS:          0  dtACCESS:          0  dtHIT:          0  dtMISS:          0
cpu0_L2C PREFETCH     ACCESS:    5572292  HIT:    1033692  MISS:    4538600  iACCESS:    2985935  iHIT:     710566  iMISS:    2275369  dACCESS:    2586357  dHIT:     323126  dMISS:    2263231  itACCESS:          0  itHIT:          0  itMISS:          0  dtACCESS:          0  dtHIT:          0  dtMISS:          0
cpu0_L2C WRITE        ACCESS:     342125  HIT:     106696  MISS:     235429  iACCESS:          0  iHIT:          0  iMISS:          0  dACCESS:     342125  dHIT:     106696  dMISS:     235429  itACCESS:          0  itHIT:          0  itMISS:          0  dtACCESS:          0  dtHIT:          0  dtMISS:          0
cpu0_L2C TRANSLATION  ACCESS:     504672  HIT:     201154  MISS:     303518  iACCESS:          0  iHIT:          0  iMISS:          0  dACCESS:          0  dHIT:          0  dMISS:          0  itACCESS:      56595  itHIT:      14618  itMISS:      41977  dtACCESS:     448077  dtHIT:     186536  dtMISS:     261541
cpu0_L2C PREFETCH  REQUESTED:    1540577  ISSUED:    1540570  CROSSED:          0  USEFUL:     421121  USELESS:     483363
cpu0_L2C AVERAGE iMISS LATENCY: 24.8268 cycles
cpu0_L2C AVERAGE dMISS LATENCY: 49.7704 cycles
cpu0_L2C AVERAGE itMISS LATENCY: 0.96054 cycles
cpu0_L2C AVERAGE dtMISS LATENCY: 5.87713 cycles
cpu0_L2C PAGE CROSSINGS (TLB HIT):         0 
cpu0_L2C PAGE CROSSINGS (TLB MISS):         0 
cpu0_L2C AVERAGE MISS LATENCY: 81.4348 cycles
LLC TOTAL       ACCESS:    6952641  HIT:    4335880  MISS:    2616761  iACCESS:    2935779  iHIT:    2167640  iMISS:     768139  dACCESS:    3713344  dHIT:    2091605  dMISS:    1621739  itACCESS:      41977  itHIT:       7975  itMISS:      34002  dtACCESS:     261541  dtHIT:      68660  dtMISS:     192881
LLC LOAD         ACCESS:    1857450  HIT:    1212215  MISS:     645235  iACCESS:     744791  iHIT:     585865  iMISS:     158926  dACCESS:    1112659  dHIT:     626350  dMISS:     486309  itACCESS:          0  itHIT:          0  itMISS:          0  dtACCESS:          0  dtHIT:          0  dtMISS:          0
LLC RFO          ACCESS:     187196  HIT:      92997  MISS:      94199  iACCESS:          0  iHIT:          0  iMISS:          0  dACCESS:     187196  dHIT:      92997  dMISS:      94199  itACCESS:          0  itHIT:          0  itMISS:          0  dtACCESS:          0  dtHIT:          0  dtMISS:          0
LLC PREFETCH     ACCESS:    4341664  HIT:    2699496  MISS:    1642168  iACCESS:    2190988  iHIT:    1581775  iMISS:     609213  dACCESS:    2150676  dHIT:    1117721  dMISS:    1032955  itACCESS:          0  itHIT:          0  itMISS:          0  dtACCESS:          0  dtHIT:          0  dtMISS:          0
LLC WRITE        ACCESS:     262813  HIT:     254537  MISS:       8276  iACCESS:          0  iHIT:          0  iMISS:          0  dACCESS:     262813  dHIT:     254537  dMISS:       8276  itACCESS:          0  itHIT:          0  itMISS:          0  dtACCESS:          0  dtHIT:          0  dtMISS:          0
LLC TRANSLATION  ACCESS:     303518  HIT:      76635  MISS:     226883  iACCESS:          0  iHIT:          0  iMISS:          0  dACCESS:          0  dHIT:          0  dMISS:          0  itACCESS:      41977  itHIT:       7975  itMISS:      34002  dtACCESS:     261541  dtHIT:      68660  dtMISS:     192881
LLC PREFETCH  REQUESTED:          0  ISSUED:          0  CROSSED:          0  USEFUL:          0  USELESS:          0
LLC AVERAGE iMISS LATENCY: 45.8905 cycles
LLC AVERAGE dMISS LATENCY: 110.86 cycles
LLC AVERAGE itMISS LATENCY: 2.30057 cycles
LLC AVERAGE dtMISS LATENCY: 14.0466 cycles
LLC PAGE CROSSINGS (TLB HIT):         0 
LLC PAGE CROSSINGS (TLB MISS):         0 
LLC AVERAGE MISS LATENCY: 173.098 cycles

PageTableWalker TOTAL       ACCESS:     170754  
PageTableWalker AVERAGE LATENCY: 6.16968 cycles
PageTableWalker TOTAL LATENCY: 1053496 cycles

DRAM Statistics
Channel 0
 RQ ROW_BUFFER_HIT:     594019
  ROW_BUFFER_MISS:    1995639
 AVG DBUS CONGESTED CYCLE:    3.65277
 WQ ROW_BUFFER_HIT:      64346
  ROW_BUFFER_MISS:      62088  FULL:          0

