last_page:0x200000000000000
VMEM_RES_CAP:0x100000
PAGE_SIZE:4096
LOG2_PAGE_SIZE:12
LOG2_PAGE_TABLE_SIZE:9
page_table_levels:5
WARNING: physical memory size is smaller than virtual memory size
FDiP enabled with aggresivity 16

*** ChampSim Multicore Out-of-Order Simulator ***

Warmup Instructions: 50000000
Simulation Instructions: 100000000
Number of CPUs: 1
Small page size: 4096
Large page size: 2097152

CPU 0 Bimodal branch predictor
Basic BTB sets: 1024 ways: 8 indirect buffer size: 4096 RAS size: 64
Instruction page size distrubution: 0
Loading instruction page size distribution from /home/bsc/bsc018186/scratch/itp_asplos25_AE/dump/smt_srv12_ap_srv73_ap_1024i.pdst
Data page size distrubution: 0
Loading data page size distribution from /home/bsc/bsc018186/scratch/itp_asplos25_AE/dump/smt_srv12_ap_srv73_ap_1024i.pdst
cpu0_L2C IP-based stride prefetcher
cpu0_L1D next line prefetcher
cpu0_L1I next line prefetcher
Off-chip DRAM Size: 4 GiB Channels: 1 Width: 64-bit Data Rate: 3200 MT/s
Heartbeat CPU 0 instructions: 10000000 cycles: 2500717 heartbeat IPC: 3.99886 cumulative IPC: 3.99886 (Simulation time: 0 hr 0 min 45 sec) 
Heartbeat CPU 0 instructions: 20000002 cycles: 5001065 heartbeat IPC: 3.99945 cumulative IPC: 3.99915 (Simulation time: 0 hr 1 min 32 sec) 
Heartbeat CPU 0 instructions: 30000003 cycles: 7501664 heartbeat IPC: 3.99905 cumulative IPC: 3.99912 (Simulation time: 0 hr 2 min 16 sec) 
Heartbeat CPU 0 instructions: 40000003 cycles: 10002003 heartbeat IPC: 3.99946 cumulative IPC: 3.9992 (Simulation time: 0 hr 3 min 4 sec) 
Heartbeat CPU 0 instructions: 50000003 cycles: 12503005 heartbeat IPC: 3.9984 cumulative IPC: 3.99904 (Simulation time: 0 hr 3 min 53 sec) 
Warmup finished CPU 0 instructions: 50000003 cycles: 12503006 cumulative IPC: 3.99904 (Simulation time: 0 hr 3 min 53 sec) 

Warmup complete CPU 0 instructions: 50000003 cycles: 12503006 (Simulation time: 0 hr 3 min 53 sec) 

Heartbeat CPU 0 instructions: 60000001 cycles: 37006767 heartbeat IPC: 0.408101 cumulative IPC: 0.408101 (Simulation time: 0 hr 5 min 23 sec) 
Heartbeat CPU 0 instructions: 70000003 cycles: 59234345 heartbeat IPC: 0.449892 cumulative IPC: 0.427979 (Simulation time: 0 hr 6 min 44 sec) 
Heartbeat CPU 0 instructions: 80000001 cycles: 82513781 heartbeat IPC: 0.429564 cumulative IPC: 0.428506 (Simulation time: 0 hr 8 min 12 sec) 
Heartbeat CPU 0 instructions: 90000000 cycles: 109135697 heartbeat IPC: 0.375631 cumulative IPC: 0.413939 (Simulation time: 0 hr 9 min 41 sec) 
Heartbeat CPU 0 instructions: 100000000 cycles: 138597612 heartbeat IPC: 0.339422 cumulative IPC: 0.396528 (Simulation time: 0 hr 11 min 14 sec) 
Heartbeat CPU 0 instructions: 110000002 cycles: 168391386 heartbeat IPC: 0.335641 cumulative IPC: 0.384891 (Simulation time: 0 hr 12 min 45 sec) 
Heartbeat CPU 0 instructions: 120000001 cycles: 196117455 heartbeat IPC: 0.360672 cumulative IPC: 0.381234 (Simulation time: 0 hr 14 min 12 sec) 
Heartbeat CPU 0 instructions: 130000004 cycles: 214239607 heartbeat IPC: 0.551812 cumulative IPC: 0.396557 (Simulation time: 0 hr 15 min 32 sec) 
Heartbeat CPU 0 instructions: 140000000 cycles: 235185445 heartbeat IPC: 0.477422 cumulative IPC: 0.404163 (Simulation time: 0 hr 16 min 52 sec) 
Heartbeat CPU 0 instructions: 150000002 cycles: 263834511 heartbeat IPC: 0.349052 cumulative IPC: 0.397881 (Simulation time: 0 hr 18 min 23 sec) 
Simulation finished CPU 0 instructions: 100000004 cycles: 251331507 cumulative IPC: 0.397881 (Simulation time: 0 hr 18 min 23 sec) 

Simulation complete CPU 0 instructions: 100000004 cycles: 251331507 (Simulation time: 0 hr 18 min 23 sec) 


ChampSim completed all CPUs

Saving instructions large page distribution to /home/bsc/bsc018186/scratch/itp_asplos25_AE/dump/smt_srv12_ap_srv73_ap_1024i.pdst...
Saving data large page distribution to /home/bsc/bsc018186/scratch/itp_asplos25_AE/dump/smt_srv12_ap_srv73_ap_1024i.pdst...
=== Simulation ===
CPU 0 runs /gpfs/projects/bsc18/MN4/bsc18/romol/ChampSim/traces/qualcomm_srv/smt_srv12_ap_srv73_ap_1024i.champsimtrace.xz

Region of Interest Statistics

CPU 0 cumulative IPC: 0.397881 instructions: 100000004 cycles: 251331507
CPU 0 Branch Prediction Accuracy: 77.5128% MPKI: 43.838 Average ROB Occupancy at Mispredict: 10.869
Branch type MPKI
BRANCH_DIRECT_JUMP: 1.16918
BRANCH_INDIRECT: 23.1063
BRANCH_CONDITIONAL: 12.637
BRANCH_DIRECT_CALL: 2.15754
BRANCH_INDIRECT_CALL: 1.79687
BRANCH_RETURN: 2.97121

Instructions large pages: 0
Instructions small pages: 12334
Large page distribution for instructions: 0%

Data large pages: 0
Data small pages: 10484
Large page distribution for data: 0%

cpu0_L1I TOTAL       ACCESS:   38510790  HIT:   31056772  MISS:    7454018  iACCESS:   38510790  iHIT:   31056772  iMISS:    7454018  dACCESS:          0  dHIT:          0  dMISS:          0  itACCESS:          0  itHIT:          0  itMISS:          0  dtACCESS:          0  dtHIT:          0  dtMISS:          0
cpu0_L1I LOAD         ACCESS:   10613698  HIT:    8579947  MISS:    2033751  iACCESS:   10613698  iHIT:    8579947  iMISS:    2033751  dACCESS:          0  dHIT:          0  dMISS:          0  itACCESS:          0  itHIT:          0  itMISS:          0  dtACCESS:          0  dtHIT:          0  dtMISS:          0
cpu0_L1I RFO          ACCESS:          0  HIT:          0  MISS:          0  iACCESS:          0  iHIT:          0  iMISS:          0  dACCESS:          0  dHIT:          0  dMISS:          0  itACCESS:          0  itHIT:          0  itMISS:          0  dtACCESS:          0  dtHIT:          0  dtMISS:          0
cpu0_L1I PREFETCH     ACCESS:   27897092  HIT:   22476825  MISS:    5420267  iACCESS:   27897092  iHIT:   22476825  iMISS:    5420267  dACCESS:          0  dHIT:          0  dMISS:          0  itACCESS:          0  itHIT:          0  itMISS:          0  dtACCESS:          0  dtHIT:          0  dtMISS:          0
cpu0_L1I WRITE        ACCESS:          0  HIT:          0  MISS:          0  iACCESS:          0  iHIT:          0  iMISS:          0  dACCESS:          0  dHIT:          0  dMISS:          0  itACCESS:          0  itHIT:          0  itMISS:          0  dtACCESS:          0  dtHIT:          0  dtMISS:          0
cpu0_L1I TRANSLATION  ACCESS:          0  HIT:          0  MISS:          0  iACCESS:          0  iHIT:          0  iMISS:          0  dACCESS:          0  dHIT:          0  dMISS:          0  itACCESS:          0  itHIT:          0  itMISS:          0  dtACCESS:          0  dtHIT:          0  dtMISS:          0
cpu0_L1I PREFETCH  REQUESTED:   30153746  ISSUED:   30152778  CROSSED:          0  USEFUL:    1800150  USELESS:     650040
cpu0_L1I AVERAGE iMISS LATENCY: 24.9064 cycles
cpu0_L1I AVERAGE dMISS LATENCY: 0 cycles
cpu0_L1I AVERAGE itMISS LATENCY: 0 cycles
cpu0_L1I AVERAGE dtMISS LATENCY: 0 cycles
cpu0_L1I PAGE CROSSINGS (TLB HIT):         0 
cpu0_L1I PAGE CROSSINGS (TLB MISS):         0 
cpu0_L1I AVERAGE MISS LATENCY: 24.9064 cycles
cpu0_ITLB TOTAL       ACCESS:   32486162  HIT:   30648912  MISS:    1837250  iACCESS:   32486162  iHIT:   30648912  iMISS:    1837250  dACCESS:          0  dHIT:          0  dMISS:          0  itACCESS:          0  itHIT:          0  itMISS:          0  dtACCESS:          0  dtHIT:          0  dtMISS:          0
cpu0_ITLB LOAD         ACCESS:   32486162  HIT:   30648912  MISS:    1837250  iACCESS:   32486162  iHIT:   30648912  iMISS:    1837250  dACCESS:          0  dHIT:          0  dMISS:          0  itACCESS:          0  itHIT:          0  itMISS:          0  dtACCESS:          0  dtHIT:          0  dtMISS:          0
cpu0_ITLB RFO          ACCESS:          0  HIT:          0  MISS:          0  iACCESS:          0  iHIT:          0  iMISS:          0  dACCESS:          0  dHIT:          0  dMISS:          0  itACCESS:          0  itHIT:          0  itMISS:          0  dtACCESS:          0  dtHIT:          0  dtMISS:          0
cpu0_ITLB PREFETCH     ACCESS:          0  HIT:          0  MISS:          0  iACCESS:          0  iHIT:          0  iMISS:          0  dACCESS:          0  dHIT:          0  dMISS:          0  itACCESS:          0  itHIT:          0  itMISS:          0  dtACCESS:          0  dtHIT:          0  dtMISS:          0
cpu0_ITLB WRITE        ACCESS:          0  HIT:          0  MISS:          0  iACCESS:          0  iHIT:          0  iMISS:          0  dACCESS:          0  dHIT:          0  dMISS:          0  itACCESS:          0  itHIT:          0  itMISS:          0  dtACCESS:          0  dtHIT:          0  dtMISS:          0
cpu0_ITLB TRANSLATION  ACCESS:          0  HIT:          0  MISS:          0  iACCESS:          0  iHIT:          0  iMISS:          0  dACCESS:          0  dHIT:          0  dMISS:          0  itACCESS:          0  itHIT:          0  itMISS:          0  dtACCESS:          0  dtHIT:          0  dtMISS:          0
cpu0_ITLB PREFETCH  REQUESTED:          0  ISSUED:          0  CROSSED:          0  USEFUL:     329455  USELESS:      67824
cpu0_ITLB AVERAGE iMISS LATENCY: 8.21747 cycles
cpu0_ITLB AVERAGE dMISS LATENCY: 0 cycles
cpu0_ITLB AVERAGE itMISS LATENCY: 0 cycles
cpu0_ITLB AVERAGE dtMISS LATENCY: 0 cycles
cpu0_ITLB PAGE CROSSINGS (TLB HIT):         0 
cpu0_ITLB PAGE CROSSINGS (TLB MISS):         0 
cpu0_ITLB AVERAGE MISS LATENCY: 8.21747 cycles
cpu0_DTLB TOTAL       ACCESS:   31386766  HIT:   26155159  MISS:    5231607  iACCESS:          0  iHIT:          0  iMISS:          0  dACCESS:   31386766  dHIT:   26155159  dMISS:    5231607  itACCESS:          0  itHIT:          0  itMISS:          0  dtACCESS:          0  dtHIT:          0  dtMISS:          0
cpu0_DTLB LOAD         ACCESS:   31386766  HIT:   26155159  MISS:    5231607  iACCESS:          0  iHIT:          0  iMISS:          0  dACCESS:   31386766  dHIT:   26155159  dMISS:    5231607  itACCESS:          0  itHIT:          0  itMISS:          0  dtACCESS:          0  dtHIT:          0  dtMISS:          0
cpu0_DTLB RFO          ACCESS:          0  HIT:          0  MISS:          0  iACCESS:          0  iHIT:          0  iMISS:          0  dACCESS:          0  dHIT:          0  dMISS:          0  itACCESS:          0  itHIT:          0  itMISS:          0  dtACCESS:          0  dtHIT:          0  dtMISS:          0
cpu0_DTLB PREFETCH     ACCESS:          0  HIT:          0  MISS:          0  iACCESS:          0  iHIT:          0  iMISS:          0  dACCESS:          0  dHIT:          0  dMISS:          0  itACCESS:          0  itHIT:          0  itMISS:          0  dtACCESS:          0  dtHIT:          0  dtMISS:          0
cpu0_DTLB WRITE        ACCESS:          0  HIT:          0  MISS:          0  iACCESS:          0  iHIT:          0  iMISS:          0  dACCESS:          0  dHIT:          0  dMISS:          0  itACCESS:          0  itHIT:          0  itMISS:          0  dtACCESS:          0  dtHIT:          0  dtMISS:          0
cpu0_DTLB TRANSLATION  ACCESS:          0  HIT:          0  MISS:          0  iACCESS:          0  iHIT:          0  iMISS:          0  dACCESS:          0  dHIT:          0  dMISS:          0  itACCESS:          0  itHIT:          0  itMISS:          0  dtACCESS:          0  dtHIT:          0  dtMISS:          0
cpu0_DTLB PREFETCH  REQUESTED:          0  ISSUED:          0  CROSSED:          0  USEFUL:          0  USELESS:          0
cpu0_DTLB AVERAGE iMISS LATENCY: 0 cycles
cpu0_DTLB AVERAGE dMISS LATENCY: 11.0187 cycles
cpu0_DTLB AVERAGE itMISS LATENCY: 0 cycles
cpu0_DTLB AVERAGE dtMISS LATENCY: 0 cycles
cpu0_DTLB PAGE CROSSINGS (TLB HIT):         0 
cpu0_DTLB PAGE CROSSINGS (TLB MISS):         0 
cpu0_DTLB AVERAGE MISS LATENCY: 11.0187 cycles
cpu0_STLB TOTAL       ACCESS:    3222002  HIT:    2935276  MISS:     286726  iACCESS:     397287  iHIT:     303688  iMISS:      93599  dACCESS:    2824715  dHIT:    2631588  dMISS:     193127  itACCESS:          0  itHIT:          0  itMISS:          0  dtACCESS:          0  dtHIT:          0  dtMISS:          0
cpu0_STLB LOAD         ACCESS:    3222002  HIT:    2935276  MISS:     286726  iACCESS:     397287  iHIT:     303688  iMISS:      93599  dACCESS:    2824715  dHIT:    2631588  dMISS:     193127  itACCESS:          0  itHIT:          0  itMISS:          0  dtACCESS:          0  dtHIT:          0  dtMISS:          0
cpu0_STLB RFO          ACCESS:          0  HIT:          0  MISS:          0  iACCESS:          0  iHIT:          0  iMISS:          0  dACCESS:          0  dHIT:          0  dMISS:          0  itACCESS:          0  itHIT:          0  itMISS:          0  dtACCESS:          0  dtHIT:          0  dtMISS:          0
cpu0_STLB PREFETCH     ACCESS:          0  HIT:          0  MISS:          0  iACCESS:          0  iHIT:          0  iMISS:          0  dACCESS:          0  dHIT:          0  dMISS:          0  itACCESS:          0  itHIT:          0  itMISS:          0  dtACCESS:          0  dtHIT:          0  dtMISS:          0
cpu0_STLB WRITE        ACCESS:          0  HIT:          0  MISS:          0  iACCESS:          0  iHIT:          0  iMISS:          0  dACCESS:          0  dHIT:          0  dMISS:          0  itACCESS:          0  itHIT:          0  itMISS:          0  dtACCESS:          0  dtHIT:          0  dtMISS:          0
cpu0_STLB TRANSLATION  ACCESS:          0  HIT:          0  MISS:          0  iACCESS:          0  iHIT:          0  iMISS:          0  dACCESS:          0  dHIT:          0  dMISS:          0  itACCESS:          0  itHIT:          0  itMISS:          0  dtACCESS:          0  dtHIT:          0  dtMISS:          0
cpu0_STLB PREFETCH  REQUESTED:          0  ISSUED:          0  CROSSED:          0  USEFUL:          0  USELESS:          0
cpu0_STLB AVERAGE iMISS LATENCY: 41.595 cycles
cpu0_STLB AVERAGE dMISS LATENCY: 121.514 cycles
cpu0_STLB AVERAGE itMISS LATENCY: 0 cycles
cpu0_STLB AVERAGE dtMISS LATENCY: 0 cycles
cpu0_STLB PAGE CROSSINGS (TLB HIT):         0 
cpu0_STLB PAGE CROSSINGS (TLB MISS):         0 
cpu0_STLB AVERAGE MISS LATENCY: 163.108 cycles
cpu0_L1D TOTAL       ACCESS:   50360502  HIT:   40926429  MISS:    9434073  iACCESS:          0  iHIT:          0  iMISS:          0  dACCESS:   49891848  dHIT:   40903033  dMISS:    8988815  itACCESS:     112586  itHIT:      10261  itMISS:     102325  dtACCESS:     356068  dtHIT:      13135  dtMISS:     342933
cpu0_L1D LOAD         ACCESS:   24117355  HIT:   19415345  MISS:    4702010  iACCESS:          0  iHIT:          0  iMISS:          0  dACCESS:   24117355  dHIT:   19415345  dMISS:    4702010  itACCESS:          0  itHIT:          0  itMISS:          0  dtACCESS:          0  dtHIT:          0  dtMISS:          0
cpu0_L1D RFO          ACCESS:          0  HIT:          0  MISS:          0  iACCESS:          0  iHIT:          0  iMISS:          0  dACCESS:          0  dHIT:          0  dMISS:          0  itACCESS:          0  itHIT:          0  itMISS:          0  dtACCESS:          0  dtHIT:          0  dtMISS:          0
cpu0_L1D PREFETCH     ACCESS:   15905805  HIT:   12418447  MISS:    3487358  iACCESS:          0  iHIT:          0  iMISS:          0  dACCESS:   15905805  dHIT:   12418447  dMISS:    3487358  itACCESS:          0  itHIT:          0  itMISS:          0  dtACCESS:          0  dtHIT:          0  dtMISS:          0
cpu0_L1D WRITE        ACCESS:    9868688  HIT:    9069241  MISS:     799447  iACCESS:          0  iHIT:          0  iMISS:          0  dACCESS:    9868688  dHIT:    9069241  dMISS:     799447  itACCESS:          0  itHIT:          0  itMISS:          0  dtACCESS:          0  dtHIT:          0  dtMISS:          0
cpu0_L1D TRANSLATION  ACCESS:     468654  HIT:      23396  MISS:     445258  iACCESS:          0  iHIT:          0  iMISS:          0  dACCESS:          0  dHIT:          0  dMISS:          0  itACCESS:     112586  itHIT:      10261  itMISS:     102325  dtACCESS:     356068  dtHIT:      13135  dtMISS:     342933
cpu0_L1D PREFETCH  REQUESTED:   24117355  ISSUED:   19847847  CROSSED:          0  USEFUL:     343482  USELESS:    1044973
cpu0_L1D AVERAGE iMISS LATENCY: 0 cycles
cpu0_L1D AVERAGE dMISS LATENCY: 31.0101 cycles
cpu0_L1D AVERAGE itMISS LATENCY: 1.16378 cycles
cpu0_L1D AVERAGE dtMISS LATENCY: 3.28564 cycles
cpu0_L1D PAGE CROSSINGS (TLB HIT):         0 
cpu0_L1D PAGE CROSSINGS (TLB MISS):         0 
cpu0_L1D AVERAGE MISS LATENCY: 35.4595 cycles
cpu0_L2C TOTAL       ACCESS:    9095198  HIT:    1959210  MISS:    7135988  iACCESS:    3113367  iHIT:     684925  iMISS:    2428442  dACCESS:    5614507  dHIT:    1139166  dMISS:    4475341  itACCESS:      94360  itHIT:      31137  itMISS:      63223  dtACCESS:     272964  dtHIT:     103982  dtMISS:     168982
cpu0_L2C LOAD         ACCESS:    3298291  HIT:     716218  MISS:    2582073  iACCESS:     690037  iHIT:     106370  iMISS:     583667  dACCESS:    2608254  dHIT:     609848  dMISS:    1998406  itACCESS:          0  itHIT:          0  itMISS:          0  dtACCESS:          0  dtHIT:          0  dtMISS:          0
cpu0_L2C RFO          ACCESS:     239685  HIT:      44381  MISS:     195304  iACCESS:          0  iHIT:          0  iMISS:          0  dACCESS:     239685  dHIT:      44381  dMISS:     195304  itACCESS:          0  itHIT:          0  itMISS:          0  dtACCESS:          0  dtHIT:          0  dtMISS:          0
cpu0_L2C PREFETCH     ACCESS:    4860273  HIT:     954899  MISS:    3905374  iACCESS:    2423330  iHIT:     578555  iMISS:    1844775  dACCESS:    2436943  dHIT:     376344  dMISS:    2060599  itACCESS:          0  itHIT:          0  itMISS:          0  dtACCESS:          0  dtHIT:          0  dtMISS:          0
cpu0_L2C WRITE        ACCESS:     329625  HIT:     108593  MISS:     221032  iACCESS:          0  iHIT:          0  iMISS:          0  dACCESS:     329625  dHIT:     108593  dMISS:     221032  itACCESS:          0  itHIT:          0  itMISS:          0  dtACCESS:          0  dtHIT:          0  dtMISS:          0
cpu0_L2C TRANSLATION  ACCESS:     367324  HIT:     135119  MISS:     232205  iACCESS:          0  iHIT:          0  iMISS:          0  dACCESS:          0  dHIT:          0  dMISS:          0  itACCESS:      94360  itHIT:      31137  itMISS:      63223  dtACCESS:     272964  dtHIT:     103982  dtMISS:     168982
cpu0_L2C PREFETCH  REQUESTED:    1229826  ISSUED:    1229826  CROSSED:          0  USEFUL:     321001  USELESS:     398143
cpu0_L2C AVERAGE iMISS LATENCY: 22.2986 cycles
cpu0_L2C AVERAGE dMISS LATENCY: 45.6921 cycles
cpu0_L2C AVERAGE itMISS LATENCY: 1.41036 cycles
cpu0_L2C AVERAGE dtMISS LATENCY: 3.9742 cycles
cpu0_L2C PAGE CROSSINGS (TLB HIT):         0 
cpu0_L2C PAGE CROSSINGS (TLB MISS):         0 
cpu0_L2C AVERAGE MISS LATENCY: 73.3751 cycles
LLC TOTAL       ACCESS:    6982230  HIT:    4700102  MISS:    2282128  iACCESS:    2358081  iHIT:    1640240  iMISS:     717841  dACCESS:    4391944  dHIT:    3006183  dMISS:    1385761  itACCESS:      63223  itHIT:      13748  itMISS:      49475  dtACCESS:     168982  dtHIT:      39931  dtMISS:     129051
LLC LOAD         ACCESS:    2576011  HIT:    2021668  MISS:     554343  iACCESS:     582615  iHIT:     434306  iMISS:     148309  dACCESS:    1993396  dHIT:    1587362  dMISS:     406034  itACCESS:          0  itHIT:          0  itMISS:          0  dtACCESS:          0  dtHIT:          0  dtMISS:          0
LLC RFO          ACCESS:     195284  HIT:     101074  MISS:      94210  iACCESS:          0  iHIT:          0  iMISS:          0  dACCESS:     195284  dHIT:     101074  dMISS:      94210  itACCESS:          0  itHIT:          0  itMISS:          0  dtACCESS:          0  dtHIT:          0  dtMISS:          0
LLC PREFETCH     ACCESS:    3725867  HIT:    2277232  MISS:    1448635  iACCESS:    1775465  iHIT:    1205933  iMISS:     569532  dACCESS:    1950402  dHIT:    1071299  dMISS:     879103  itACCESS:          0  itHIT:          0  itMISS:          0  dtACCESS:          0  dtHIT:          0  dtMISS:          0
LLC WRITE        ACCESS:     252863  HIT:     246449  MISS:       6414  iACCESS:          1  iHIT:          1  iMISS:          0  dACCESS:     252862  dHIT:     246448  dMISS:       6414  itACCESS:          0  itHIT:          0  itMISS:          0  dtACCESS:          0  dtHIT:          0  dtMISS:          0
LLC TRANSLATION  ACCESS:     232205  HIT:      53679  MISS:     178526  iACCESS:          0  iHIT:          0  iMISS:          0  dACCESS:          0  dHIT:          0  dMISS:          0  itACCESS:      63223  itHIT:      13748  itMISS:      49475  dtACCESS:     168982  dtHIT:      39931  dtMISS:     129051
LLC PREFETCH  REQUESTED:          0  ISSUED:          0  CROSSED:          0  USEFUL:          0  USELESS:          0
LLC AVERAGE iMISS LATENCY: 49.653 cycles
LLC AVERAGE dMISS LATENCY: 108.405 cycles
LLC AVERAGE itMISS LATENCY: 3.86379 cycles
LLC AVERAGE dtMISS LATENCY: 10.9696 cycles
LLC PAGE CROSSINGS (TLB HIT):         0 
LLC PAGE CROSSINGS (TLB MISS):         0 
LLC AVERAGE MISS LATENCY: 172.891 cycles

PageTableWalker TOTAL       ACCESS:     180944  
PageTableWalker AVERAGE LATENCY: 5.96987 cycles
PageTableWalker TOTAL LATENCY: 1080211 cycles

DRAM Statistics
Channel 0
 RQ ROW_BUFFER_HIT:     502990
  ROW_BUFFER_MISS:    1758507
 AVG DBUS CONGESTED CYCLE:    3.65685
 WQ ROW_BUFFER_HIT:      57594
  ROW_BUFFER_MISS:      56625  FULL:          0

