last_page:0x200000000000000
VMEM_RES_CAP:0x100000
PAGE_SIZE:4096
LOG2_PAGE_SIZE:12
LOG2_PAGE_TABLE_SIZE:9
page_table_levels:5
WARNING: physical memory size is smaller than virtual memory size
FDiP enabled with aggresivity 16

*** ChampSim Multicore Out-of-Order Simulator ***

Warmup Instructions: 50000000
Simulation Instructions: 100000000
Number of CPUs: 1
Small page size: 4096
Large page size: 2097152

CPU 0 Bimodal branch predictor
Basic BTB sets: 1024 ways: 8 indirect buffer size: 4096 RAS size: 64
Instruction page size distrubution: 0
Loading instruction page size distribution from /home/bsc/bsc018186/scratch/itp_asplos25_AE/dump/smt_srv207_ap_srv224_ap_1024i.pdst
Data page size distrubution: 0
Loading data page size distribution from /home/bsc/bsc018186/scratch/itp_asplos25_AE/dump/smt_srv207_ap_srv224_ap_1024i.pdst
cpu0_L2C IP-based stride prefetcher
cpu0_L1D next line prefetcher
cpu0_L1I next line prefetcher
Off-chip DRAM Size: 4 GiB Channels: 1 Width: 64-bit Data Rate: 3200 MT/s
Heartbeat CPU 0 instructions: 10000003 cycles: 2500934 heartbeat IPC: 3.99851 cumulative IPC: 3.99851 (Simulation time: 0 hr 0 min 42 sec) 
Heartbeat CPU 0 instructions: 20000001 cycles: 5001362 heartbeat IPC: 3.99932 cumulative IPC: 3.99892 (Simulation time: 0 hr 1 min 25 sec) 
Heartbeat CPU 0 instructions: 30000002 cycles: 7501687 heartbeat IPC: 3.99949 cumulative IPC: 3.99911 (Simulation time: 0 hr 2 min 8 sec) 
Heartbeat CPU 0 instructions: 40000003 cycles: 10048756 heartbeat IPC: 3.92609 cumulative IPC: 3.9806 (Simulation time: 0 hr 2 min 52 sec) 
Heartbeat CPU 0 instructions: 50000000 cycles: 12614130 heartbeat IPC: 3.89807 cumulative IPC: 3.96381 (Simulation time: 0 hr 3 min 37 sec) 
Warmup finished CPU 0 instructions: 50000000 cycles: 12614131 cumulative IPC: 3.96381 (Simulation time: 0 hr 3 min 37 sec) 

Warmup complete CPU 0 instructions: 50000000 cycles: 12614131 (Simulation time: 0 hr 3 min 37 sec) 

Heartbeat CPU 0 instructions: 60000002 cycles: 29430594 heartbeat IPC: 0.594656 cumulative IPC: 0.594656 (Simulation time: 0 hr 4 min 52 sec) 
Heartbeat CPU 0 instructions: 70000003 cycles: 57031881 heartbeat IPC: 0.362302 cumulative IPC: 0.450271 (Simulation time: 0 hr 6 min 20 sec) 
Heartbeat CPU 0 instructions: 80000002 cycles: 84789036 heartbeat IPC: 0.360268 cumulative IPC: 0.415657 (Simulation time: 0 hr 7 min 49 sec) 
Heartbeat CPU 0 instructions: 90000000 cycles: 113786756 heartbeat IPC: 0.344855 cumulative IPC: 0.395364 (Simulation time: 0 hr 9 min 19 sec) 
Heartbeat CPU 0 instructions: 100000000 cycles: 141142189 heartbeat IPC: 0.365559 cumulative IPC: 0.389021 (Simulation time: 0 hr 10 min 54 sec) 
Heartbeat CPU 0 instructions: 110000002 cycles: 168749700 heartbeat IPC: 0.362221 cumulative IPC: 0.384282 (Simulation time: 0 hr 12 min 30 sec) 
Heartbeat CPU 0 instructions: 120000000 cycles: 196196427 heartbeat IPC: 0.364343 cumulative IPC: 0.381301 (Simulation time: 0 hr 14 min 1 sec) 
Heartbeat CPU 0 instructions: 130000000 cycles: 223619169 heartbeat IPC: 0.364661 cumulative IPC: 0.379138 (Simulation time: 0 hr 15 min 37 sec) 
Heartbeat CPU 0 instructions: 140000002 cycles: 252497290 heartbeat IPC: 0.346283 cumulative IPC: 0.375183 (Simulation time: 0 hr 17 min 16 sec) 
Heartbeat CPU 0 instructions: 150000000 cycles: 279988864 heartbeat IPC: 0.363748 cumulative IPC: 0.374007 (Simulation time: 0 hr 18 min 48 sec) 
Simulation finished CPU 0 instructions: 100000000 cycles: 267374734 cumulative IPC: 0.374007 (Simulation time: 0 hr 18 min 48 sec) 

Simulation complete CPU 0 instructions: 100000000 cycles: 267374734 (Simulation time: 0 hr 18 min 48 sec) 


ChampSim completed all CPUs

Saving instructions large page distribution to /home/bsc/bsc018186/scratch/itp_asplos25_AE/dump/smt_srv207_ap_srv224_ap_1024i.pdst...
Saving data large page distribution to /home/bsc/bsc018186/scratch/itp_asplos25_AE/dump/smt_srv207_ap_srv224_ap_1024i.pdst...
=== Simulation ===
CPU 0 runs /gpfs/projects/bsc18/MN4/bsc18/romol/ChampSim/traces/qualcomm_srv/smt_srv207_ap_srv224_ap_1024i.champsimtrace.xz

Region of Interest Statistics

CPU 0 cumulative IPC: 0.374007 instructions: 100000000 cycles: 267374734
CPU 0 Branch Prediction Accuracy: 76.4132% MPKI: 43.7208 Average ROB Occupancy at Mispredict: 11.3488
Branch type MPKI
BRANCH_DIRECT_JUMP: 1.30138
BRANCH_INDIRECT: 23.3364
BRANCH_CONDITIONAL: 12.26
BRANCH_DIRECT_CALL: 2.41583
BRANCH_INDIRECT_CALL: 1.02441
BRANCH_RETURN: 3.38294

Instructions large pages: 0
Instructions small pages: 15027
Large page distribution for instructions: 0%

Data large pages: 0
Data small pages: 13570
Large page distribution for data: 0%

cpu0_L1I TOTAL       ACCESS:   39702143  HIT:   31115428  MISS:    8586715  iACCESS:   39702143  iHIT:   31115428  iMISS:    8586715  dACCESS:          0  dHIT:          0  dMISS:          0  itACCESS:          0  itHIT:          0  itMISS:          0  dtACCESS:          0  dtHIT:          0  dtMISS:          0
cpu0_L1I LOAD         ACCESS:   11561584  HIT:    9226854  MISS:    2334730  iACCESS:   11561584  iHIT:    9226854  iMISS:    2334730  dACCESS:          0  dHIT:          0  dMISS:          0  itACCESS:          0  itHIT:          0  itMISS:          0  dtACCESS:          0  dtHIT:          0  dtMISS:          0
cpu0_L1I RFO          ACCESS:          0  HIT:          0  MISS:          0  iACCESS:          0  iHIT:          0  iMISS:          0  dACCESS:          0  dHIT:          0  dMISS:          0  itACCESS:          0  itHIT:          0  itMISS:          0  dtACCESS:          0  dtHIT:          0  dtMISS:          0
cpu0_L1I PREFETCH     ACCESS:   28140559  HIT:   21888574  MISS:    6251985  iACCESS:   28140559  iHIT:   21888574  iMISS:    6251985  dACCESS:          0  dHIT:          0  dMISS:          0  itACCESS:          0  itHIT:          0  itMISS:          0  dtACCESS:          0  dtHIT:          0  dtMISS:          0
cpu0_L1I WRITE        ACCESS:          0  HIT:          0  MISS:          0  iACCESS:          0  iHIT:          0  iMISS:          0  dACCESS:          0  dHIT:          0  dMISS:          0  itACCESS:          0  itHIT:          0  itMISS:          0  dtACCESS:          0  dtHIT:          0  dtMISS:          0
cpu0_L1I TRANSLATION  ACCESS:          0  HIT:          0  MISS:          0  iACCESS:          0  iHIT:          0  iMISS:          0  dACCESS:          0  dHIT:          0  dMISS:          0  itACCESS:          0  itHIT:          0  itMISS:          0  dtACCESS:          0  dtHIT:          0  dtMISS:          0
cpu0_L1I PREFETCH  REQUESTED:   30678397  ISSUED:   30677067  CROSSED:          0  USEFUL:    2062876  USELESS:     728085
cpu0_L1I AVERAGE iMISS LATENCY: 23.9284 cycles
cpu0_L1I AVERAGE dMISS LATENCY: 0 cycles
cpu0_L1I AVERAGE itMISS LATENCY: 0 cycles
cpu0_L1I AVERAGE dtMISS LATENCY: 0 cycles
cpu0_L1I PAGE CROSSINGS (TLB HIT):         0 
cpu0_L1I PAGE CROSSINGS (TLB MISS):         0 
cpu0_L1I AVERAGE MISS LATENCY: 23.9284 cycles
cpu0_ITLB TOTAL       ACCESS:   33310992  HIT:   31220856  MISS:    2090136  iACCESS:   33310992  iHIT:   31220856  iMISS:    2090136  dACCESS:          0  dHIT:          0  dMISS:          0  itACCESS:          0  itHIT:          0  itMISS:          0  dtACCESS:          0  dtHIT:          0  dtMISS:          0
cpu0_ITLB LOAD         ACCESS:   33310992  HIT:   31220856  MISS:    2090136  iACCESS:   33310992  iHIT:   31220856  iMISS:    2090136  dACCESS:          0  dHIT:          0  dMISS:          0  itACCESS:          0  itHIT:          0  itMISS:          0  dtACCESS:          0  dtHIT:          0  dtMISS:          0
cpu0_ITLB RFO          ACCESS:          0  HIT:          0  MISS:          0  iACCESS:          0  iHIT:          0  iMISS:          0  dACCESS:          0  dHIT:          0  dMISS:          0  itACCESS:          0  itHIT:          0  itMISS:          0  dtACCESS:          0  dtHIT:          0  dtMISS:          0
cpu0_ITLB PREFETCH     ACCESS:          0  HIT:          0  MISS:          0  iACCESS:          0  iHIT:          0  iMISS:          0  dACCESS:          0  dHIT:          0  dMISS:          0  itACCESS:          0  itHIT:          0  itMISS:          0  dtACCESS:          0  dtHIT:          0  dtMISS:          0
cpu0_ITLB WRITE        ACCESS:          0  HIT:          0  MISS:          0  iACCESS:          0  iHIT:          0  iMISS:          0  dACCESS:          0  dHIT:          0  dMISS:          0  itACCESS:          0  itHIT:          0  itMISS:          0  dtACCESS:          0  dtHIT:          0  dtMISS:          0
cpu0_ITLB TRANSLATION  ACCESS:          0  HIT:          0  MISS:          0  iACCESS:          0  iHIT:          0  iMISS:          0  dACCESS:          0  dHIT:          0  dMISS:          0  itACCESS:          0  itHIT:          0  itMISS:          0  dtACCESS:          0  dtHIT:          0  dtMISS:          0
cpu0_ITLB PREFETCH  REQUESTED:          0  ISSUED:          0  CROSSED:          0  USEFUL:     368103  USELESS:      77185
cpu0_ITLB AVERAGE iMISS LATENCY: 8.11309 cycles
cpu0_ITLB AVERAGE dMISS LATENCY: 0 cycles
cpu0_ITLB AVERAGE itMISS LATENCY: 0 cycles
cpu0_ITLB AVERAGE dtMISS LATENCY: 0 cycles
cpu0_ITLB PAGE CROSSINGS (TLB HIT):         0 
cpu0_ITLB PAGE CROSSINGS (TLB MISS):         0 
cpu0_ITLB AVERAGE MISS LATENCY: 8.11309 cycles
cpu0_DTLB TOTAL       ACCESS:   30032857  HIT:   25379204  MISS:    4653653  iACCESS:          0  iHIT:          0  iMISS:          0  dACCESS:   30032857  dHIT:   25379204  dMISS:    4653653  itACCESS:          0  itHIT:          0  itMISS:          0  dtACCESS:          0  dtHIT:          0  dtMISS:          0
cpu0_DTLB LOAD         ACCESS:   30032857  HIT:   25379204  MISS:    4653653  iACCESS:          0  iHIT:          0  iMISS:          0  dACCESS:   30032857  dHIT:   25379204  dMISS:    4653653  itACCESS:          0  itHIT:          0  itMISS:          0  dtACCESS:          0  dtHIT:          0  dtMISS:          0
cpu0_DTLB RFO          ACCESS:          0  HIT:          0  MISS:          0  iACCESS:          0  iHIT:          0  iMISS:          0  dACCESS:          0  dHIT:          0  dMISS:          0  itACCESS:          0  itHIT:          0  itMISS:          0  dtACCESS:          0  dtHIT:          0  dtMISS:          0
cpu0_DTLB PREFETCH     ACCESS:          0  HIT:          0  MISS:          0  iACCESS:          0  iHIT:          0  iMISS:          0  dACCESS:          0  dHIT:          0  dMISS:          0  itACCESS:          0  itHIT:          0  itMISS:          0  dtACCESS:          0  dtHIT:          0  dtMISS:          0
cpu0_DTLB WRITE        ACCESS:          0  HIT:          0  MISS:          0  iACCESS:          0  iHIT:          0  iMISS:          0  dACCESS:          0  dHIT:          0  dMISS:          0  itACCESS:          0  itHIT:          0  itMISS:          0  dtACCESS:          0  dtHIT:          0  dtMISS:          0
cpu0_DTLB TRANSLATION  ACCESS:          0  HIT:          0  MISS:          0  iACCESS:          0  iHIT:          0  iMISS:          0  dACCESS:          0  dHIT:          0  dMISS:          0  itACCESS:          0  itHIT:          0  itMISS:          0  dtACCESS:          0  dtHIT:          0  dtMISS:          0
cpu0_DTLB PREFETCH  REQUESTED:          0  ISSUED:          0  CROSSED:          0  USEFUL:          0  USELESS:          0
cpu0_DTLB AVERAGE iMISS LATENCY: 0 cycles
cpu0_DTLB AVERAGE dMISS LATENCY: 13.795 cycles
cpu0_DTLB AVERAGE itMISS LATENCY: 0 cycles
cpu0_DTLB AVERAGE dtMISS LATENCY: 0 cycles
cpu0_DTLB PAGE CROSSINGS (TLB HIT):         0 
cpu0_DTLB PAGE CROSSINGS (TLB MISS):         0 
cpu0_DTLB AVERAGE MISS LATENCY: 13.795 cycles
cpu0_STLB TOTAL       ACCESS:    3028350  HIT:    2674871  MISS:     353479  iACCESS:     445302  iHIT:     339237  iMISS:     106065  dACCESS:    2583048  dHIT:    2335634  dMISS:     247414  itACCESS:          0  itHIT:          0  itMISS:          0  dtACCESS:          0  dtHIT:          0  dtMISS:          0
cpu0_STLB LOAD         ACCESS:    3028350  HIT:    2674871  MISS:     353479  iACCESS:     445302  iHIT:     339237  iMISS:     106065  dACCESS:    2583048  dHIT:    2335634  dMISS:     247414  itACCESS:          0  itHIT:          0  itMISS:          0  dtACCESS:          0  dtHIT:          0  dtMISS:          0
cpu0_STLB RFO          ACCESS:          0  HIT:          0  MISS:          0  iACCESS:          0  iHIT:          0  iMISS:          0  dACCESS:          0  dHIT:          0  dMISS:          0  itACCESS:          0  itHIT:          0  itMISS:          0  dtACCESS:          0  dtHIT:          0  dtMISS:          0
cpu0_STLB PREFETCH     ACCESS:          0  HIT:          0  MISS:          0  iACCESS:          0  iHIT:          0  iMISS:          0  dACCESS:          0  dHIT:          0  dMISS:          0  itACCESS:          0  itHIT:          0  itMISS:          0  dtACCESS:          0  dtHIT:          0  dtMISS:          0
cpu0_STLB WRITE        ACCESS:          0  HIT:          0  MISS:          0  iACCESS:          0  iHIT:          0  iMISS:          0  dACCESS:          0  dHIT:          0  dMISS:          0  itACCESS:          0  itHIT:          0  itMISS:          0  dtACCESS:          0  dtHIT:          0  dtMISS:          0
cpu0_STLB TRANSLATION  ACCESS:          0  HIT:          0  MISS:          0  iACCESS:          0  iHIT:          0  iMISS:          0  dACCESS:          0  dHIT:          0  dMISS:          0  itACCESS:          0  itHIT:          0  itMISS:          0  dtACCESS:          0  dtHIT:          0  dtMISS:          0
cpu0_STLB PREFETCH  REQUESTED:          0  ISSUED:          0  CROSSED:          0  USEFUL:          0  USELESS:          0
cpu0_STLB AVERAGE iMISS LATENCY: 37.9196 cycles
cpu0_STLB AVERAGE dMISS LATENCY: 122.711 cycles
cpu0_STLB AVERAGE itMISS LATENCY: 0 cycles
cpu0_STLB AVERAGE dtMISS LATENCY: 0 cycles
cpu0_STLB PAGE CROSSINGS (TLB HIT):         0 
cpu0_STLB PAGE CROSSINGS (TLB MISS):         0 
cpu0_STLB AVERAGE MISS LATENCY: 160.63 cycles
cpu0_L1D TOTAL       ACCESS:   46985312  HIT:   39912978  MISS:    7072334  iACCESS:          0  iHIT:          0  iMISS:          0  dACCESS:   46472635  dHIT:   39882350  dMISS:    6590285  itACCESS:     118873  itHIT:      12365  itMISS:     106508  dtACCESS:     393804  dtHIT:      18263  dtMISS:     375541
cpu0_L1D LOAD         ACCESS:   21805516  HIT:   18461745  MISS:    3343771  iACCESS:          0  iHIT:          0  iMISS:          0  dACCESS:   21805516  dHIT:   18461745  dMISS:    3343771  itACCESS:          0  itHIT:          0  itMISS:          0  dtACCESS:          0  dtHIT:          0  dtMISS:          0
cpu0_L1D RFO          ACCESS:          0  HIT:          0  MISS:          0  iACCESS:          0  iHIT:          0  iMISS:          0  dACCESS:          0  dHIT:          0  dMISS:          0  itACCESS:          0  itHIT:          0  itMISS:          0  dtACCESS:          0  dtHIT:          0  dtMISS:          0
cpu0_L1D PREFETCH     ACCESS:   14673336  HIT:   12000721  MISS:    2672615  iACCESS:          0  iHIT:          0  iMISS:          0  dACCESS:   14673336  dHIT:   12000721  dMISS:    2672615  itACCESS:          0  itHIT:          0  itMISS:          0  dtACCESS:          0  dtHIT:          0  dtMISS:          0
cpu0_L1D WRITE        ACCESS:    9993783  HIT:    9419884  MISS:     573899  iACCESS:          0  iHIT:          0  iMISS:          0  dACCESS:    9993783  dHIT:    9419884  dMISS:     573899  itACCESS:          0  itHIT:          0  itMISS:          0  dtACCESS:          0  dtHIT:          0  dtMISS:          0
cpu0_L1D TRANSLATION  ACCESS:     512677  HIT:      30628  MISS:     482049  iACCESS:          0  iHIT:          0  iMISS:          0  dACCESS:          0  dHIT:          0  dMISS:          0  itACCESS:     118873  itHIT:      12365  itMISS:     106508  dtACCESS:     393804  dtHIT:      18263  dtMISS:     375541
cpu0_L1D PREFETCH  REQUESTED:   21805516  ISSUED:   19003832  CROSSED:          0  USEFUL:     361070  USELESS:    1015847
cpu0_L1D AVERAGE iMISS LATENCY: 0 cycles
cpu0_L1D AVERAGE dMISS LATENCY: 40.7703 cycles
cpu0_L1D AVERAGE itMISS LATENCY: 1.75451 cycles
cpu0_L1D AVERAGE dtMISS LATENCY: 5.42142 cycles
cpu0_L1D PAGE CROSSINGS (TLB HIT):         0 
cpu0_L1D PAGE CROSSINGS (TLB MISS):         0 
cpu0_L1D AVERAGE MISS LATENCY: 47.9462 cycles
cpu0_L2C TOTAL       ACCESS:    9068448  HIT:    1861006  MISS:    7207442  iACCESS:    3544539  iHIT:     742724  iMISS:    2801815  dACCESS:    5065404  dHIT:     944370  dMISS:    4121034  itACCESS:     106243  itHIT:      34117  itMISS:      72126  dtACCESS:     352262  dtHIT:     139795  dtMISS:     212467
cpu0_L2C LOAD         ACCESS:    2706772  HIT:     547380  MISS:    2159392  iACCESS:     785541  iHIT:     104110  iMISS:     681431  dACCESS:    1921231  dHIT:     443270  dMISS:    1477961  itACCESS:          0  itHIT:          0  itMISS:          0  dtACCESS:          0  dtHIT:          0  dtMISS:          0
cpu0_L2C RFO          ACCESS:     224107  HIT:      32411  MISS:     191696  iACCESS:          0  iHIT:          0  iMISS:          0  dACCESS:     224107  dHIT:      32411  dMISS:     191696  itACCESS:          0  itHIT:          0  itMISS:          0  dtACCESS:          0  dtHIT:          0  dtMISS:          0
cpu0_L2C PREFETCH     ACCESS:    5341009  HIT:     999996  MISS:    4341013  iACCESS:    2758998  iHIT:     638614  iMISS:    2120384  dACCESS:    2582011  dHIT:     361382  dMISS:    2220629  itACCESS:          0  itHIT:          0  itMISS:          0  dtACCESS:          0  dtHIT:          0  dtMISS:          0
cpu0_L2C WRITE        ACCESS:     338055  HIT:     107307  MISS:     230748  iACCESS:          0  iHIT:          0  iMISS:          0  dACCESS:     338055  dHIT:     107307  dMISS:     230748  itACCESS:          0  itHIT:          0  itMISS:          0  dtACCESS:          0  dtHIT:          0  dtMISS:          0
cpu0_L2C TRANSLATION  ACCESS:     458505  HIT:     173912  MISS:     284593  iACCESS:          0  iHIT:          0  iMISS:          0  dACCESS:          0  dHIT:          0  dMISS:          0  itACCESS:     106243  itHIT:      34117  itMISS:      72126  dtACCESS:     352262  dtHIT:     139795  dtMISS:     212467
cpu0_L2C PREFETCH  REQUESTED:    1424145  ISSUED:    1424145  CROSSED:          0  USEFUL:     382443  USELESS:     462432
cpu0_L2C AVERAGE iMISS LATENCY: 24.2959 cycles
cpu0_L2C AVERAGE dMISS LATENCY: 47.0436 cycles
cpu0_L2C AVERAGE itMISS LATENCY: 1.57852 cycles
cpu0_L2C AVERAGE dtMISS LATENCY: 4.84824 cycles
cpu0_L2C PAGE CROSSINGS (TLB HIT):         0 
cpu0_L2C PAGE CROSSINGS (TLB MISS):         0 
cpu0_L2C AVERAGE MISS LATENCY: 77.7661 cycles
LLC TOTAL       ACCESS:    7035683  HIT:    4527702  MISS:    2507981  iACCESS:    2720528  iHIT:    1943369  iMISS:     777159  dACCESS:    4030562  dHIT:    2518500  dMISS:    1512062  itACCESS:      72126  itHIT:      15914  itMISS:      56212  dtACCESS:     212467  dtHIT:      49919  dtMISS:     162548
LLC LOAD         ACCESS:    2152909  HIT:    1542810  MISS:     610099  iACCESS:     680159  iHIT:     516311  iMISS:     163848  dACCESS:    1472750  dHIT:    1026499  dMISS:     446251  itACCESS:          0  itHIT:          0  itMISS:          0  dtACCESS:          0  dtHIT:          0  dtMISS:          0
LLC RFO          ACCESS:     191689  HIT:     110633  MISS:      81056  iACCESS:          0  iHIT:          0  iMISS:          0  dACCESS:     191689  dHIT:     110633  dMISS:      81056  itACCESS:          0  itHIT:          0  itMISS:          0  dtACCESS:          0  dtHIT:          0  dtMISS:          0
LLC PREFETCH     ACCESS:    4146807  HIT:    2555469  MISS:    1591338  iACCESS:    2040369  iHIT:    1427058  iMISS:     613311  dACCESS:    2106438  dHIT:    1128411  dMISS:     978027  itACCESS:          0  itHIT:          0  itMISS:          0  dtACCESS:          0  dtHIT:          0  dtMISS:          0
LLC WRITE        ACCESS:     259685  HIT:     252957  MISS:       6728  iACCESS:          0  iHIT:          0  iMISS:          0  dACCESS:     259685  dHIT:     252957  dMISS:       6728  itACCESS:          0  itHIT:          0  itMISS:          0  dtACCESS:          0  dtHIT:          0  dtMISS:          0
LLC TRANSLATION  ACCESS:     284593  HIT:      65833  MISS:     218760  iACCESS:          0  iHIT:          0  iMISS:          0  dACCESS:          0  dHIT:          0  dMISS:          0  itACCESS:      72126  itHIT:      15914  itMISS:      56212  dtACCESS:     212467  dtHIT:      49919  dtMISS:     162548
LLC PREFETCH  REQUESTED:          0  ISSUED:          0  CROSSED:          0  USEFUL:          0  USELESS:          0
LLC AVERAGE iMISS LATENCY: 48.7535 cycles
LLC AVERAGE dMISS LATENCY: 106.693 cycles
LLC AVERAGE itMISS LATENCY: 3.96936 cycles
LLC AVERAGE dtMISS LATENCY: 12.2647 cycles
LLC PAGE CROSSINGS (TLB HIT):         0 
LLC PAGE CROSSINGS (TLB MISS):         0 
LLC AVERAGE MISS LATENCY: 171.68 cycles

PageTableWalker TOTAL       ACCESS:     163107  
PageTableWalker AVERAGE LATENCY: 6.01647 cycles
PageTableWalker TOTAL LATENCY: 981327 cycles

DRAM Statistics
Channel 0
 RQ ROW_BUFFER_HIT:     556370
  ROW_BUFFER_MISS:    1933621
 AVG DBUS CONGESTED CYCLE:    3.64992
 WQ ROW_BUFFER_HIT:      59448
  ROW_BUFFER_MISS:      56465  FULL:          0

