last_page:0x200000000000000
VMEM_RES_CAP:0x100000
PAGE_SIZE:4096
LOG2_PAGE_SIZE:12
LOG2_PAGE_TABLE_SIZE:9
page_table_levels:5
WARNING: physical memory size is smaller than virtual memory size
FDiP enabled with aggresivity 16

*** ChampSim Multicore Out-of-Order Simulator ***

Warmup Instructions: 50000000
Simulation Instructions: 100000000
Number of CPUs: 1
Small page size: 4096
Large page size: 2097152

CPU 0 Bimodal branch predictor
Basic BTB sets: 1024 ways: 8 indirect buffer size: 4096 RAS size: 64
Instruction page size distrubution: 0
Loading instruction page size distribution from /home/bsc/bsc018186/scratch/itp_asplos25_AE/dump/smt_srv207_ap_srv224_ap_1024i.pdst
Data page size distrubution: 0
Loading data page size distribution from /home/bsc/bsc018186/scratch/itp_asplos25_AE/dump/smt_srv207_ap_srv224_ap_1024i.pdst
cpu0_L2C IP-based stride prefetcher
cpu0_L2C is using PTP replacement policy:
	TLB_STRESS_THRESHOLD:0
	PTE_EVICTION_RATIO:0
cpu0_L1D next line prefetcher
cpu0_L1I next line prefetcher
Off-chip DRAM Size: 4 GiB Channels: 1 Width: 64-bit Data Rate: 3200 MT/s
Heartbeat CPU 0 instructions: 10000000 cycles: 2500950 heartbeat IPC: 3.99849 cumulative IPC: 3.99849 (Simulation time: 0 hr 0 min 44 sec) 
Heartbeat CPU 0 instructions: 20000001 cycles: 5001275 heartbeat IPC: 3.99949 cumulative IPC: 3.99899 (Simulation time: 0 hr 1 min 31 sec) 
Heartbeat CPU 0 instructions: 30000000 cycles: 7501617 heartbeat IPC: 3.99946 cumulative IPC: 3.99914 (Simulation time: 0 hr 2 min 17 sec) 
Heartbeat CPU 0 instructions: 40000000 cycles: 10048331 heartbeat IPC: 3.92663 cumulative IPC: 3.98077 (Simulation time: 0 hr 3 min 5 sec) 
Heartbeat CPU 0 instructions: 50000000 cycles: 12612818 heartbeat IPC: 3.89942 cumulative IPC: 3.96423 (Simulation time: 0 hr 3 min 54 sec) 
Warmup finished CPU 0 instructions: 50000000 cycles: 12612819 cumulative IPC: 3.96423 (Simulation time: 0 hr 3 min 54 sec) 

Warmup complete CPU 0 instructions: 50000000 cycles: 12612819 (Simulation time: 0 hr 3 min 54 sec) 

Heartbeat CPU 0 instructions: 60000002 cycles: 29390479 heartbeat IPC: 0.596031 cumulative IPC: 0.596031 (Simulation time: 0 hr 5 min 14 sec) 
Heartbeat CPU 0 instructions: 70000003 cycles: 59068514 heartbeat IPC: 0.33695 cumulative IPC: 0.430518 (Simulation time: 0 hr 6 min 50 sec) 
Heartbeat CPU 0 instructions: 80000002 cycles: 89139348 heartbeat IPC: 0.332549 cumulative IPC: 0.392021 (Simulation time: 0 hr 8 min 26 sec) 
Heartbeat CPU 0 instructions: 90000000 cycles: 120538476 heartbeat IPC: 0.318481 cumulative IPC: 0.370626 (Simulation time: 0 hr 10 min 6 sec) 
Heartbeat CPU 0 instructions: 100000000 cycles: 150006399 heartbeat IPC: 0.339353 cumulative IPC: 0.363919 (Simulation time: 0 hr 11 min 43 sec) 
Heartbeat CPU 0 instructions: 110000002 cycles: 179889325 heartbeat IPC: 0.33464 cumulative IPC: 0.358688 (Simulation time: 0 hr 13 min 21 sec) 
Heartbeat CPU 0 instructions: 120000000 cycles: 209546955 heartbeat IPC: 0.337182 cumulative IPC: 0.355449 (Simulation time: 0 hr 14 min 58 sec) 
Heartbeat CPU 0 instructions: 130000000 cycles: 239084171 heartbeat IPC: 0.338556 cumulative IPC: 0.353246 (Simulation time: 0 hr 16 min 36 sec) 
Heartbeat CPU 0 instructions: 140000002 cycles: 270309790 heartbeat IPC: 0.32025 cumulative IPC: 0.349248 (Simulation time: 0 hr 18 min 18 sec) 
Heartbeat CPU 0 instructions: 150000000 cycles: 299977581 heartbeat IPC: 0.337066 cumulative IPC: 0.34799 (Simulation time: 0 hr 19 min 45 sec) 
Simulation finished CPU 0 instructions: 100000000 cycles: 287364763 cumulative IPC: 0.34799 (Simulation time: 0 hr 19 min 45 sec) 

Simulation complete CPU 0 instructions: 100000000 cycles: 287364763 (Simulation time: 0 hr 19 min 45 sec) 


ChampSim completed all CPUs

Saving instructions large page distribution to /home/bsc/bsc018186/scratch/itp_asplos25_AE/dump/smt_srv207_ap_srv224_ap_1024i.pdst...
Saving data large page distribution to /home/bsc/bsc018186/scratch/itp_asplos25_AE/dump/smt_srv207_ap_srv224_ap_1024i.pdst...
=== Simulation ===
CPU 0 runs /gpfs/projects/bsc18/MN4/bsc18/romol/ChampSim/traces/qualcomm_srv/smt_srv207_ap_srv224_ap_1024i.champsimtrace.xz

Region of Interest Statistics

CPU 0 cumulative IPC: 0.34799 instructions: 100000000 cycles: 287364763
CPU 0 Branch Prediction Accuracy: 76.4132% MPKI: 43.7209 Average ROB Occupancy at Mispredict: 11.4605
Branch type MPKI
BRANCH_DIRECT_JUMP: 1.30139
BRANCH_INDIRECT: 23.3364
BRANCH_CONDITIONAL: 12.26
BRANCH_DIRECT_CALL: 2.41583
BRANCH_INDIRECT_CALL: 1.02441
BRANCH_RETURN: 3.38294

Instructions large pages: 0
Instructions small pages: 15027
Large page distribution for instructions: 0%

Data large pages: 0
Data small pages: 13570
Large page distribution for data: 0%

cpu0_L1I TOTAL       ACCESS:   39357899  HIT:   31229621  MISS:    8128278  iACCESS:   39357899  iHIT:   31229621  iMISS:    8128278  dACCESS:          0  dHIT:          0  dMISS:          0  itACCESS:          0  itHIT:          0  itMISS:          0  dtACCESS:          0  dtHIT:          0  dtMISS:          0
cpu0_L1I LOAD         ACCESS:   11477367  HIT:    9257541  MISS:    2219826  iACCESS:   11477367  iHIT:    9257541  iMISS:    2219826  dACCESS:          0  dHIT:          0  dMISS:          0  itACCESS:          0  itHIT:          0  itMISS:          0  dtACCESS:          0  dtHIT:          0  dtMISS:          0
cpu0_L1I RFO          ACCESS:          0  HIT:          0  MISS:          0  iACCESS:          0  iHIT:          0  iMISS:          0  dACCESS:          0  dHIT:          0  dMISS:          0  itACCESS:          0  itHIT:          0  itMISS:          0  dtACCESS:          0  dtHIT:          0  dtMISS:          0
cpu0_L1I PREFETCH     ACCESS:   27880532  HIT:   21972080  MISS:    5908452  iACCESS:   27880532  iHIT:   21972080  iMISS:    5908452  dACCESS:          0  dHIT:          0  dMISS:          0  itACCESS:          0  itHIT:          0  itMISS:          0  dtACCESS:          0  dtHIT:          0  dtMISS:          0
cpu0_L1I WRITE        ACCESS:          0  HIT:          0  MISS:          0  iACCESS:          0  iHIT:          0  iMISS:          0  dACCESS:          0  dHIT:          0  dMISS:          0  itACCESS:          0  itHIT:          0  itMISS:          0  dtACCESS:          0  dtHIT:          0  dtMISS:          0
cpu0_L1I TRANSLATION  ACCESS:          0  HIT:          0  MISS:          0  iACCESS:          0  iHIT:          0  iMISS:          0  dACCESS:          0  dHIT:          0  dMISS:          0  itACCESS:          0  itHIT:          0  itMISS:          0  dtACCESS:          0  dtHIT:          0  dtMISS:          0
cpu0_L1I PREFETCH  REQUESTED:   30602663  ISSUED:   30602655  CROSSED:          0  USEFUL:    2056910  USELESS:     730708
cpu0_L1I AVERAGE iMISS LATENCY: 24.1634 cycles
cpu0_L1I AVERAGE dMISS LATENCY: 0 cycles
cpu0_L1I AVERAGE itMISS LATENCY: 0 cycles
cpu0_L1I AVERAGE dtMISS LATENCY: 0 cycles
cpu0_L1I PAGE CROSSINGS (TLB HIT):         0 
cpu0_L1I PAGE CROSSINGS (TLB MISS):         0 
cpu0_L1I AVERAGE MISS LATENCY: 24.1634 cycles
cpu0_ITLB TOTAL       ACCESS:   33224030  HIT:   31123358  MISS:    2100672  iACCESS:   33224030  iHIT:   31123358  iMISS:    2100672  dACCESS:          0  dHIT:          0  dMISS:          0  itACCESS:          0  itHIT:          0  itMISS:          0  dtACCESS:          0  dtHIT:          0  dtMISS:          0
cpu0_ITLB LOAD         ACCESS:   33224030  HIT:   31123358  MISS:    2100672  iACCESS:   33224030  iHIT:   31123358  iMISS:    2100672  dACCESS:          0  dHIT:          0  dMISS:          0  itACCESS:          0  itHIT:          0  itMISS:          0  dtACCESS:          0  dtHIT:          0  dtMISS:          0
cpu0_ITLB RFO          ACCESS:          0  HIT:          0  MISS:          0  iACCESS:          0  iHIT:          0  iMISS:          0  dACCESS:          0  dHIT:          0  dMISS:          0  itACCESS:          0  itHIT:          0  itMISS:          0  dtACCESS:          0  dtHIT:          0  dtMISS:          0
cpu0_ITLB PREFETCH     ACCESS:          0  HIT:          0  MISS:          0  iACCESS:          0  iHIT:          0  iMISS:          0  dACCESS:          0  dHIT:          0  dMISS:          0  itACCESS:          0  itHIT:          0  itMISS:          0  dtACCESS:          0  dtHIT:          0  dtMISS:          0
cpu0_ITLB WRITE        ACCESS:          0  HIT:          0  MISS:          0  iACCESS:          0  iHIT:          0  iMISS:          0  dACCESS:          0  dHIT:          0  dMISS:          0  itACCESS:          0  itHIT:          0  itMISS:          0  dtACCESS:          0  dtHIT:          0  dtMISS:          0
cpu0_ITLB TRANSLATION  ACCESS:          0  HIT:          0  MISS:          0  iACCESS:          0  iHIT:          0  iMISS:          0  dACCESS:          0  dHIT:          0  dMISS:          0  itACCESS:          0  itHIT:          0  itMISS:          0  dtACCESS:          0  dtHIT:          0  dtMISS:          0
cpu0_ITLB PREFETCH  REQUESTED:          0  ISSUED:          0  CROSSED:          0  USEFUL:     367719  USELESS:      77560
cpu0_ITLB AVERAGE iMISS LATENCY: 10.3458 cycles
cpu0_ITLB AVERAGE dMISS LATENCY: 0 cycles
cpu0_ITLB AVERAGE itMISS LATENCY: 0 cycles
cpu0_ITLB AVERAGE dtMISS LATENCY: 0 cycles
cpu0_ITLB PAGE CROSSINGS (TLB HIT):         0 
cpu0_ITLB PAGE CROSSINGS (TLB MISS):         0 
cpu0_ITLB AVERAGE MISS LATENCY: 10.3458 cycles
cpu0_DTLB TOTAL       ACCESS:   30002072  HIT:   25318213  MISS:    4683859  iACCESS:          0  iHIT:          0  iMISS:          0  dACCESS:   30002072  dHIT:   25318213  dMISS:    4683859  itACCESS:          0  itHIT:          0  itMISS:          0  dtACCESS:          0  dtHIT:          0  dtMISS:          0
cpu0_DTLB LOAD         ACCESS:   30002072  HIT:   25318213  MISS:    4683859  iACCESS:          0  iHIT:          0  iMISS:          0  dACCESS:   30002072  dHIT:   25318213  dMISS:    4683859  itACCESS:          0  itHIT:          0  itMISS:          0  dtACCESS:          0  dtHIT:          0  dtMISS:          0
cpu0_DTLB RFO          ACCESS:          0  HIT:          0  MISS:          0  iACCESS:          0  iHIT:          0  iMISS:          0  dACCESS:          0  dHIT:          0  dMISS:          0  itACCESS:          0  itHIT:          0  itMISS:          0  dtACCESS:          0  dtHIT:          0  dtMISS:          0
cpu0_DTLB PREFETCH     ACCESS:          0  HIT:          0  MISS:          0  iACCESS:          0  iHIT:          0  iMISS:          0  dACCESS:          0  dHIT:          0  dMISS:          0  itACCESS:          0  itHIT:          0  itMISS:          0  dtACCESS:          0  dtHIT:          0  dtMISS:          0
cpu0_DTLB WRITE        ACCESS:          0  HIT:          0  MISS:          0  iACCESS:          0  iHIT:          0  iMISS:          0  dACCESS:          0  dHIT:          0  dMISS:          0  itACCESS:          0  itHIT:          0  itMISS:          0  dtACCESS:          0  dtHIT:          0  dtMISS:          0
cpu0_DTLB TRANSLATION  ACCESS:          0  HIT:          0  MISS:          0  iACCESS:          0  iHIT:          0  iMISS:          0  dACCESS:          0  dHIT:          0  dMISS:          0  itACCESS:          0  itHIT:          0  itMISS:          0  dtACCESS:          0  dtHIT:          0  dtMISS:          0
cpu0_DTLB PREFETCH  REQUESTED:          0  ISSUED:          0  CROSSED:          0  USEFUL:          0  USELESS:          0
cpu0_DTLB AVERAGE iMISS LATENCY: 0 cycles
cpu0_DTLB AVERAGE dMISS LATENCY: 19.1749 cycles
cpu0_DTLB AVERAGE itMISS LATENCY: 0 cycles
cpu0_DTLB AVERAGE dtMISS LATENCY: 0 cycles
cpu0_DTLB PAGE CROSSINGS (TLB HIT):         0 
cpu0_DTLB PAGE CROSSINGS (TLB MISS):         0 
cpu0_DTLB AVERAGE MISS LATENCY: 19.1749 cycles
cpu0_STLB TOTAL       ACCESS:    3028111  HIT:    2674654  MISS:     353457  iACCESS:     445293  iHIT:     339236  iMISS:     106057  dACCESS:    2582818  dHIT:    2335418  dMISS:     247400  itACCESS:          0  itHIT:          0  itMISS:          0  dtACCESS:          0  dtHIT:          0  dtMISS:          0
cpu0_STLB LOAD         ACCESS:    3028111  HIT:    2674654  MISS:     353457  iACCESS:     445293  iHIT:     339236  iMISS:     106057  dACCESS:    2582818  dHIT:    2335418  dMISS:     247400  itACCESS:          0  itHIT:          0  itMISS:          0  dtACCESS:          0  dtHIT:          0  dtMISS:          0
cpu0_STLB RFO          ACCESS:          0  HIT:          0  MISS:          0  iACCESS:          0  iHIT:          0  iMISS:          0  dACCESS:          0  dHIT:          0  dMISS:          0  itACCESS:          0  itHIT:          0  itMISS:          0  dtACCESS:          0  dtHIT:          0  dtMISS:          0
cpu0_STLB PREFETCH     ACCESS:          0  HIT:          0  MISS:          0  iACCESS:          0  iHIT:          0  iMISS:          0  dACCESS:          0  dHIT:          0  dMISS:          0  itACCESS:          0  itHIT:          0  itMISS:          0  dtACCESS:          0  dtHIT:          0  dtMISS:          0
cpu0_STLB WRITE        ACCESS:          0  HIT:          0  MISS:          0  iACCESS:          0  iHIT:          0  iMISS:          0  dACCESS:          0  dHIT:          0  dMISS:          0  itACCESS:          0  itHIT:          0  itMISS:          0  dtACCESS:          0  dtHIT:          0  dtMISS:          0
cpu0_STLB TRANSLATION  ACCESS:          0  HIT:          0  MISS:          0  iACCESS:          0  iHIT:          0  iMISS:          0  dACCESS:          0  dHIT:          0  dMISS:          0  itACCESS:          0  itHIT:          0  itMISS:          0  dtACCESS:          0  dtHIT:          0  dtMISS:          0
cpu0_STLB PREFETCH  REQUESTED:          0  ISSUED:          0  CROSSED:          0  USEFUL:          0  USELESS:          0
cpu0_STLB AVERAGE iMISS LATENCY: 51.418 cycles
cpu0_STLB AVERAGE dMISS LATENCY: 195.125 cycles
cpu0_STLB AVERAGE itMISS LATENCY: 0 cycles
cpu0_STLB AVERAGE dtMISS LATENCY: 0 cycles
cpu0_STLB PAGE CROSSINGS (TLB HIT):         0 
cpu0_STLB PAGE CROSSINGS (TLB MISS):         0 
cpu0_STLB AVERAGE MISS LATENCY: 246.542 cycles
cpu0_L1D TOTAL       ACCESS:   46501706  HIT:   39901910  MISS:    6599796  iACCESS:          0  iHIT:          0  iMISS:          0  dACCESS:   45986692  dHIT:   39871392  dMISS:    6115300  itACCESS:     119019  itHIT:      12362  itMISS:     106657  dtACCESS:     395995  dtHIT:      18156  dtMISS:     377839
cpu0_L1D LOAD         ACCESS:   21547947  HIT:   18443195  MISS:    3104752  iACCESS:          0  iHIT:          0  iMISS:          0  dACCESS:   21547947  dHIT:   18443195  dMISS:    3104752  itACCESS:          0  itHIT:          0  itMISS:          0  dtACCESS:          0  dtHIT:          0  dtMISS:          0
cpu0_L1D RFO          ACCESS:          0  HIT:          0  MISS:          0  iACCESS:          0  iHIT:          0  iMISS:          0  dACCESS:          0  dHIT:          0  dMISS:          0  itACCESS:          0  itHIT:          0  itMISS:          0  dtACCESS:          0  dtHIT:          0  dtMISS:          0
cpu0_L1D PREFETCH     ACCESS:   14444726  HIT:   12002335  MISS:    2442391  iACCESS:          0  iHIT:          0  iMISS:          0  dACCESS:   14444726  dHIT:   12002335  dMISS:    2442391  itACCESS:          0  itHIT:          0  itMISS:          0  dtACCESS:          0  dtHIT:          0  dtMISS:          0
cpu0_L1D WRITE        ACCESS:    9994019  HIT:    9425862  MISS:     568157  iACCESS:          0  iHIT:          0  iMISS:          0  dACCESS:    9994019  dHIT:    9425862  dMISS:     568157  itACCESS:          0  itHIT:          0  itMISS:          0  dtACCESS:          0  dtHIT:          0  dtMISS:          0
cpu0_L1D TRANSLATION  ACCESS:     515014  HIT:      30518  MISS:     484496  iACCESS:          0  iHIT:          0  iMISS:          0  dACCESS:          0  dHIT:          0  dMISS:          0  itACCESS:     119019  itHIT:      12362  itMISS:     106657  dtACCESS:     395995  dtHIT:      18156  dtMISS:     377839
cpu0_L1D PREFETCH  REQUESTED:   21547947  ISSUED:   19021085  CROSSED:          0  USEFUL:     360618  USELESS:    1048190
cpu0_L1D AVERAGE iMISS LATENCY: 0 cycles
cpu0_L1D AVERAGE dMISS LATENCY: 41.9984 cycles
cpu0_L1D AVERAGE itMISS LATENCY: 2.60301 cycles
cpu0_L1D AVERAGE dtMISS LATENCY: 9.6752 cycles
cpu0_L1D PAGE CROSSINGS (TLB HIT):         0 
cpu0_L1D PAGE CROSSINGS (TLB MISS):         0 
cpu0_L1D AVERAGE MISS LATENCY: 54.2766 cycles
cpu0_L2C TOTAL       ACCESS:    9114630  HIT:    4962829  MISS:    4151801  iACCESS:    3547351  iHIT:    2153011  iMISS:    1394340  dACCESS:    5108857  dHIT:    2754420  dMISS:    2354437  itACCESS:     106236  itHIT:      18489  itMISS:      87747  dtACCESS:     352186  dtHIT:      36909  dtMISS:     315277
cpu0_L2C LOAD         ACCESS:    2726991  HIT:    1730591  MISS:     996400  iACCESS:     793128  iHIT:     500193  iMISS:     292935  dACCESS:    1933863  dHIT:    1230398  dMISS:     703465  itACCESS:          0  itHIT:          0  itMISS:          0  dtACCESS:          0  dtHIT:          0  dtMISS:          0
cpu0_L2C RFO          ACCESS:     224343  HIT:     103507  MISS:     120836  iACCESS:          0  iHIT:          0  iMISS:          0  dACCESS:     224343  dHIT:     103507  dMISS:     120836  itACCESS:          0  itHIT:          0  itMISS:          0  dtACCESS:          0  dtHIT:          0  dtMISS:          0
cpu0_L2C PREFETCH     ACCESS:    5366025  HIT:    2737675  MISS:    2628350  iACCESS:    2754223  iHIT:    1652818  iMISS:    1101405  dACCESS:    2611802  dHIT:    1084857  dMISS:    1526945  itACCESS:          0  itHIT:          0  itMISS:          0  dtACCESS:          0  dtHIT:          0  dtMISS:          0
cpu0_L2C WRITE        ACCESS:     338849  HIT:     335658  MISS:       3191  iACCESS:          0  iHIT:          0  iMISS:          0  dACCESS:     338849  dHIT:     335658  dMISS:       3191  itACCESS:          0  itHIT:          0  itMISS:          0  dtACCESS:          0  dtHIT:          0  dtMISS:          0
cpu0_L2C TRANSLATION  ACCESS:     458422  HIT:      55398  MISS:     403024  iACCESS:          0  iHIT:          0  iMISS:          0  dACCESS:          0  dHIT:          0  dMISS:          0  itACCESS:     106236  itHIT:      18489  itMISS:      87747  dtACCESS:     352186  dtHIT:      36909  dtMISS:     315277
cpu0_L2C PREFETCH  REQUESTED:    1421443  ISSUED:    1421405  CROSSED:          0  USEFUL:     326814  USELESS:     300414
cpu0_L2C AVERAGE iMISS LATENCY: 40.13 cycles
cpu0_L2C AVERAGE dMISS LATENCY: 78.926 cycles
cpu0_L2C AVERAGE itMISS LATENCY: 3.88559 cycles
cpu0_L2C AVERAGE dtMISS LATENCY: 14.5357 cycles
cpu0_L2C PAGE CROSSINGS (TLB HIT):         0 
cpu0_L2C PAGE CROSSINGS (TLB MISS):         0 
cpu0_L2C AVERAGE MISS LATENCY: 137.478 cycles
LLC TOTAL       ACCESS:    4154693  HIT:    1286601  MISS:    2868092  iACCESS:    1313426  iHIT:     426838  iMISS:     886588  dACCESS:    2438243  dHIT:     820223  dMISS:    1618020  itACCESS:      87747  itHIT:       6513  itMISS:      81234  dtACCESS:     315277  dtHIT:      33027  dtMISS:     282250
LLC LOAD         ACCESS:     990795  HIT:     324233  MISS:     666562  iACCESS:     291788  iHIT:     101968  iMISS:     189820  dACCESS:     699007  dHIT:     222265  dMISS:     476742  itACCESS:          0  itHIT:          0  itMISS:          0  dtACCESS:          0  dtHIT:          0  dtMISS:          0
LLC RFO          ACCESS:     120827  HIT:      39169  MISS:      81658  iACCESS:          0  iHIT:          0  iMISS:          0  dACCESS:     120827  dHIT:      39169  dMISS:      81658  itACCESS:          0  itHIT:          0  itMISS:          0  dtACCESS:          0  dtHIT:          0  dtMISS:          0
LLC PREFETCH     ACCESS:    2443352  HIT:     696651  MISS:    1746701  iACCESS:    1021638  iHIT:     324870  iMISS:     696768  dACCESS:    1421714  dHIT:     371781  dMISS:    1049933  itACCESS:          0  itHIT:          0  itMISS:          0  dtACCESS:          0  dtHIT:          0  dtMISS:          0
LLC WRITE        ACCESS:     196695  HIT:     187008  MISS:       9687  iACCESS:          0  iHIT:          0  iMISS:          0  dACCESS:     196695  dHIT:     187008  dMISS:       9687  itACCESS:          0  itHIT:          0  itMISS:          0  dtACCESS:          0  dtHIT:          0  dtMISS:          0
LLC TRANSLATION  ACCESS:     403024  HIT:      39540  MISS:     363484  iACCESS:          0  iHIT:          0  iMISS:          0  dACCESS:          0  dHIT:          0  dMISS:          0  itACCESS:      87747  itHIT:       6513  itMISS:      81234  dtACCESS:     315277  dtHIT:      33027  dtMISS:     282250
LLC PREFETCH  REQUESTED:          0  ISSUED:          0  CROSSED:          0  USEFUL:          0  USELESS:          0
LLC AVERAGE iMISS LATENCY: 49.0663 cycles
LLC AVERAGE dMISS LATENCY: 99.5873 cycles
LLC AVERAGE itMISS LATENCY: 5.01783 cycles
LLC AVERAGE dtMISS LATENCY: 18.8682 cycles
LLC PAGE CROSSINGS (TLB HIT):         0 
LLC PAGE CROSSINGS (TLB MISS):         0 
LLC AVERAGE MISS LATENCY: 172.54 cycles

PageTableWalker TOTAL       ACCESS:     163094  
PageTableWalker AVERAGE LATENCY: 6.57223 cycles
PageTableWalker TOTAL LATENCY: 1071891 cycles

DRAM Statistics
Channel 0
 RQ ROW_BUFFER_HIT:     607851
  ROW_BUFFER_MISS:    2240020
 AVG DBUS CONGESTED CYCLE:    3.64683
 WQ ROW_BUFFER_HIT:      59700
  ROW_BUFFER_MISS:      49983  FULL:          0

