last_page:0x200000000000000
VMEM_RES_CAP:0x100000
PAGE_SIZE:4096
LOG2_PAGE_SIZE:12
LOG2_PAGE_TABLE_SIZE:9
page_table_levels:5
WARNING: physical memory size is smaller than virtual memory size
FDiP enabled with aggresivity 16

*** ChampSim Multicore Out-of-Order Simulator ***

Warmup Instructions: 50000000
Simulation Instructions: 100000000
Number of CPUs: 1
Small page size: 4096
Large page size: 2097152

CPU 0 Bimodal branch predictor
Basic BTB sets: 1024 ways: 8 indirect buffer size: 4096 RAS size: 64
Instruction page size distrubution: 0
Loading instruction page size distribution from /home/bsc/bsc018186/scratch/itp_asplos25_AE/dump/smt_srv207_ap_srv346_ap_1024i.pdst
Data page size distrubution: 0
Loading data page size distribution from /home/bsc/bsc018186/scratch/itp_asplos25_AE/dump/smt_srv207_ap_srv346_ap_1024i.pdst
cpu0_L2C IP-based stride prefetcher
cpu0_L1D next line prefetcher
cpu0_L1I next line prefetcher
Off-chip DRAM Size: 4 GiB Channels: 1 Width: 64-bit Data Rate: 3200 MT/s
Heartbeat CPU 0 instructions: 10000002 cycles: 2500853 heartbeat IPC: 3.99864 cumulative IPC: 3.99864 (Simulation time: 0 hr 0 min 38 sec) 
Heartbeat CPU 0 instructions: 20000002 cycles: 5001313 heartbeat IPC: 3.99927 cumulative IPC: 3.99896 (Simulation time: 0 hr 1 min 17 sec) 
Heartbeat CPU 0 instructions: 30000003 cycles: 7501573 heartbeat IPC: 3.99959 cumulative IPC: 3.99917 (Simulation time: 0 hr 1 min 57 sec) 
Heartbeat CPU 0 instructions: 40000001 cycles: 10001940 heartbeat IPC: 3.99942 cumulative IPC: 3.99923 (Simulation time: 0 hr 2 min 38 sec) 
Heartbeat CPU 0 instructions: 50000003 cycles: 12502302 heartbeat IPC: 3.99943 cumulative IPC: 3.99927 (Simulation time: 0 hr 3 min 19 sec) 
Warmup finished CPU 0 instructions: 50000003 cycles: 12502303 cumulative IPC: 3.99927 (Simulation time: 0 hr 3 min 19 sec) 

Warmup complete CPU 0 instructions: 50000003 cycles: 12502303 (Simulation time: 0 hr 3 min 19 sec) 

Heartbeat CPU 0 instructions: 60000000 cycles: 42584823 heartbeat IPC: 0.332419 cumulative IPC: 0.332419 (Simulation time: 0 hr 4 min 44 sec) 
Heartbeat CPU 0 instructions: 70000003 cycles: 72297342 heartbeat IPC: 0.336559 cumulative IPC: 0.334476 (Simulation time: 0 hr 6 min 9 sec) 
Heartbeat CPU 0 instructions: 80000001 cycles: 103840533 heartbeat IPC: 0.317026 cumulative IPC: 0.32845 (Simulation time: 0 hr 7 min 36 sec) 
Heartbeat CPU 0 instructions: 90000000 cycles: 133308391 heartbeat IPC: 0.339353 cumulative IPC: 0.33111 (Simulation time: 0 hr 9 min 0 sec) 
Heartbeat CPU 0 instructions: 100000003 cycles: 162901149 heartbeat IPC: 0.337921 cumulative IPC: 0.33245 (Simulation time: 0 hr 10 min 24 sec) 
Heartbeat CPU 0 instructions: 110000001 cycles: 192744193 heartbeat IPC: 0.335087 cumulative IPC: 0.332886 (Simulation time: 0 hr 11 min 50 sec) 
Heartbeat CPU 0 instructions: 120000000 cycles: 222240119 heartbeat IPC: 0.33903 cumulative IPC: 0.333751 (Simulation time: 0 hr 13 min 14 sec) 
Heartbeat CPU 0 instructions: 130000002 cycles: 251441861 heartbeat IPC: 0.342446 cumulative IPC: 0.334813 (Simulation time: 0 hr 14 min 41 sec) 
Heartbeat CPU 0 instructions: 140000002 cycles: 281824920 heartbeat IPC: 0.329131 cumulative IPC: 0.334172 (Simulation time: 0 hr 16 min 11 sec) 
Heartbeat CPU 0 instructions: 150000000 cycles: 311054243 heartbeat IPC: 0.342123 cumulative IPC: 0.334951 (Simulation time: 0 hr 17 min 38 sec) 
Simulation finished CPU 0 instructions: 100000002 cycles: 298551942 cumulative IPC: 0.334951 (Simulation time: 0 hr 17 min 38 sec) 

Simulation complete CPU 0 instructions: 100000002 cycles: 298551942 (Simulation time: 0 hr 17 min 38 sec) 


ChampSim completed all CPUs

Saving instructions large page distribution to /home/bsc/bsc018186/scratch/itp_asplos25_AE/dump/smt_srv207_ap_srv346_ap_1024i.pdst...
Saving data large page distribution to /home/bsc/bsc018186/scratch/itp_asplos25_AE/dump/smt_srv207_ap_srv346_ap_1024i.pdst...
=== Simulation ===
CPU 0 runs /gpfs/projects/bsc18/MN4/bsc18/romol/ChampSim/traces/qualcomm_srv/smt_srv207_ap_srv346_ap_1024i.champsimtrace.xz

Region of Interest Statistics

CPU 0 cumulative IPC: 0.334951 instructions: 100000002 cycles: 298551942
CPU 0 Branch Prediction Accuracy: 75.4377% MPKI: 44.1056 Average ROB Occupancy at Mispredict: 11.4652
Branch type MPKI
BRANCH_DIRECT_JUMP: 1.34654
BRANCH_INDIRECT: 23.3342
BRANCH_CONDITIONAL: 12.4584
BRANCH_DIRECT_CALL: 2.53532
BRANCH_INDIRECT_CALL: 0.94028
BRANCH_RETURN: 3.49091

Instructions large pages: 0
Instructions small pages: 14696
Large page distribution for instructions: 0%

Data large pages: 0
Data small pages: 13288
Large page distribution for data: 0%

cpu0_L1I TOTAL       ACCESS:   38890330  HIT:   30229053  MISS:    8661277  iACCESS:   38890330  iHIT:   30229053  iMISS:    8661277  dACCESS:          0  dHIT:          0  dMISS:          0  itACCESS:          0  itHIT:          0  itMISS:          0  dtACCESS:          0  dtHIT:          0  dtMISS:          0
cpu0_L1I LOAD         ACCESS:   11575527  HIT:    9205905  MISS:    2369622  iACCESS:   11575527  iHIT:    9205905  iMISS:    2369622  dACCESS:          0  dHIT:          0  dMISS:          0  itACCESS:          0  itHIT:          0  itMISS:          0  dtACCESS:          0  dtHIT:          0  dtMISS:          0
cpu0_L1I RFO          ACCESS:          0  HIT:          0  MISS:          0  iACCESS:          0  iHIT:          0  iMISS:          0  dACCESS:          0  dHIT:          0  dMISS:          0  itACCESS:          0  itHIT:          0  itMISS:          0  dtACCESS:          0  dtHIT:          0  dtMISS:          0
cpu0_L1I PREFETCH     ACCESS:   27314803  HIT:   21023148  MISS:    6291655  iACCESS:   27314803  iHIT:   21023148  iMISS:    6291655  dACCESS:          0  dHIT:          0  dMISS:          0  itACCESS:          0  itHIT:          0  itMISS:          0  dtACCESS:          0  dtHIT:          0  dtMISS:          0
cpu0_L1I WRITE        ACCESS:          0  HIT:          0  MISS:          0  iACCESS:          0  iHIT:          0  iMISS:          0  dACCESS:          0  dHIT:          0  dMISS:          0  itACCESS:          0  itHIT:          0  itMISS:          0  dtACCESS:          0  dtHIT:          0  dtMISS:          0
cpu0_L1I TRANSLATION  ACCESS:          0  HIT:          0  MISS:          0  iACCESS:          0  iHIT:          0  iMISS:          0  dACCESS:          0  dHIT:          0  dMISS:          0  itACCESS:          0  itHIT:          0  itMISS:          0  dtACCESS:          0  dtHIT:          0  dtMISS:          0
cpu0_L1I PREFETCH  REQUESTED:   30091060  ISSUED:   30090914  CROSSED:          0  USEFUL:    2180969  USELESS:     774859
cpu0_L1I AVERAGE iMISS LATENCY: 24.1834 cycles
cpu0_L1I AVERAGE dMISS LATENCY: 0 cycles
cpu0_L1I AVERAGE itMISS LATENCY: 0 cycles
cpu0_L1I AVERAGE dtMISS LATENCY: 0 cycles
cpu0_L1I PAGE CROSSINGS (TLB HIT):         0 
cpu0_L1I PAGE CROSSINGS (TLB MISS):         0 
cpu0_L1I AVERAGE MISS LATENCY: 24.1834 cycles
cpu0_ITLB TOTAL       ACCESS:   32904566  HIT:   30682234  MISS:    2222332  iACCESS:   32904566  iHIT:   30682234  iMISS:    2222332  dACCESS:          0  dHIT:          0  dMISS:          0  itACCESS:          0  itHIT:          0  itMISS:          0  dtACCESS:          0  dtHIT:          0  dtMISS:          0
cpu0_ITLB LOAD         ACCESS:   32904566  HIT:   30682234  MISS:    2222332  iACCESS:   32904566  iHIT:   30682234  iMISS:    2222332  dACCESS:          0  dHIT:          0  dMISS:          0  itACCESS:          0  itHIT:          0  itMISS:          0  dtACCESS:          0  dtHIT:          0  dtMISS:          0
cpu0_ITLB RFO          ACCESS:          0  HIT:          0  MISS:          0  iACCESS:          0  iHIT:          0  iMISS:          0  dACCESS:          0  dHIT:          0  dMISS:          0  itACCESS:          0  itHIT:          0  itMISS:          0  dtACCESS:          0  dtHIT:          0  dtMISS:          0
cpu0_ITLB PREFETCH     ACCESS:          0  HIT:          0  MISS:          0  iACCESS:          0  iHIT:          0  iMISS:          0  dACCESS:          0  dHIT:          0  dMISS:          0  itACCESS:          0  itHIT:          0  itMISS:          0  dtACCESS:          0  dtHIT:          0  dtMISS:          0
cpu0_ITLB WRITE        ACCESS:          0  HIT:          0  MISS:          0  iACCESS:          0  iHIT:          0  iMISS:          0  dACCESS:          0  dHIT:          0  dMISS:          0  itACCESS:          0  itHIT:          0  itMISS:          0  dtACCESS:          0  dtHIT:          0  dtMISS:          0
cpu0_ITLB TRANSLATION  ACCESS:          0  HIT:          0  MISS:          0  iACCESS:          0  iHIT:          0  iMISS:          0  dACCESS:          0  dHIT:          0  dMISS:          0  itACCESS:          0  itHIT:          0  itMISS:          0  dtACCESS:          0  dtHIT:          0  dtMISS:          0
cpu0_ITLB PREFETCH  REQUESTED:          0  ISSUED:          0  CROSSED:          0  USEFUL:     390832  USELESS:      79590
cpu0_ITLB AVERAGE iMISS LATENCY: 10.1582 cycles
cpu0_ITLB AVERAGE dMISS LATENCY: 0 cycles
cpu0_ITLB AVERAGE itMISS LATENCY: 0 cycles
cpu0_ITLB AVERAGE dtMISS LATENCY: 0 cycles
cpu0_ITLB PAGE CROSSINGS (TLB HIT):         0 
cpu0_ITLB PAGE CROSSINGS (TLB MISS):         0 
cpu0_ITLB AVERAGE MISS LATENCY: 10.1582 cycles
cpu0_DTLB TOTAL       ACCESS:   29100187  HIT:   25534097  MISS:    3566090  iACCESS:          0  iHIT:          0  iMISS:          0  dACCESS:   29100187  dHIT:   25534097  dMISS:    3566090  itACCESS:          0  itHIT:          0  itMISS:          0  dtACCESS:          0  dtHIT:          0  dtMISS:          0
cpu0_DTLB LOAD         ACCESS:   29100187  HIT:   25534097  MISS:    3566090  iACCESS:          0  iHIT:          0  iMISS:          0  dACCESS:   29100187  dHIT:   25534097  dMISS:    3566090  itACCESS:          0  itHIT:          0  itMISS:          0  dtACCESS:          0  dtHIT:          0  dtMISS:          0
cpu0_DTLB RFO          ACCESS:          0  HIT:          0  MISS:          0  iACCESS:          0  iHIT:          0  iMISS:          0  dACCESS:          0  dHIT:          0  dMISS:          0  itACCESS:          0  itHIT:          0  itMISS:          0  dtACCESS:          0  dtHIT:          0  dtMISS:          0
cpu0_DTLB PREFETCH     ACCESS:          0  HIT:          0  MISS:          0  iACCESS:          0  iHIT:          0  iMISS:          0  dACCESS:          0  dHIT:          0  dMISS:          0  itACCESS:          0  itHIT:          0  itMISS:          0  dtACCESS:          0  dtHIT:          0  dtMISS:          0
cpu0_DTLB WRITE        ACCESS:          0  HIT:          0  MISS:          0  iACCESS:          0  iHIT:          0  iMISS:          0  dACCESS:          0  dHIT:          0  dMISS:          0  itACCESS:          0  itHIT:          0  itMISS:          0  dtACCESS:          0  dtHIT:          0  dtMISS:          0
cpu0_DTLB TRANSLATION  ACCESS:          0  HIT:          0  MISS:          0  iACCESS:          0  iHIT:          0  iMISS:          0  dACCESS:          0  dHIT:          0  dMISS:          0  itACCESS:          0  itHIT:          0  itMISS:          0  dtACCESS:          0  dtHIT:          0  dtMISS:          0
cpu0_DTLB PREFETCH  REQUESTED:          0  ISSUED:          0  CROSSED:          0  USEFUL:          0  USELESS:          0
cpu0_DTLB AVERAGE iMISS LATENCY: 0 cycles
cpu0_DTLB AVERAGE dMISS LATENCY: 25.3829 cycles
cpu0_DTLB AVERAGE itMISS LATENCY: 0 cycles
cpu0_DTLB AVERAGE dtMISS LATENCY: 0 cycles
cpu0_DTLB PAGE CROSSINGS (TLB HIT):         0 
cpu0_DTLB PAGE CROSSINGS (TLB MISS):         0 
cpu0_DTLB AVERAGE MISS LATENCY: 25.3829 cycles
cpu0_STLB TOTAL       ACCESS:    2557407  HIT:    2185336  MISS:     372071  iACCESS:     470431  iHIT:     360135  iMISS:     110296  dACCESS:    2086976  dHIT:    1825201  dMISS:     261775  itACCESS:          0  itHIT:          0  itMISS:          0  dtACCESS:          0  dtHIT:          0  dtMISS:          0
cpu0_STLB LOAD         ACCESS:    2557407  HIT:    2185336  MISS:     372071  iACCESS:     470431  iHIT:     360135  iMISS:     110296  dACCESS:    2086976  dHIT:    1825201  dMISS:     261775  itACCESS:          0  itHIT:          0  itMISS:          0  dtACCESS:          0  dtHIT:          0  dtMISS:          0
cpu0_STLB RFO          ACCESS:          0  HIT:          0  MISS:          0  iACCESS:          0  iHIT:          0  iMISS:          0  dACCESS:          0  dHIT:          0  dMISS:          0  itACCESS:          0  itHIT:          0  itMISS:          0  dtACCESS:          0  dtHIT:          0  dtMISS:          0
cpu0_STLB PREFETCH     ACCESS:          0  HIT:          0  MISS:          0  iACCESS:          0  iHIT:          0  iMISS:          0  dACCESS:          0  dHIT:          0  dMISS:          0  itACCESS:          0  itHIT:          0  itMISS:          0  dtACCESS:          0  dtHIT:          0  dtMISS:          0
cpu0_STLB WRITE        ACCESS:          0  HIT:          0  MISS:          0  iACCESS:          0  iHIT:          0  iMISS:          0  dACCESS:          0  dHIT:          0  dMISS:          0  itACCESS:          0  itHIT:          0  itMISS:          0  dtACCESS:          0  dtHIT:          0  dtMISS:          0
cpu0_STLB TRANSLATION  ACCESS:          0  HIT:          0  MISS:          0  iACCESS:          0  iHIT:          0  iMISS:          0  dACCESS:          0  dHIT:          0  dMISS:          0  itACCESS:          0  itHIT:          0  itMISS:          0  dtACCESS:          0  dtHIT:          0  dtMISS:          0
cpu0_STLB PREFETCH  REQUESTED:          0  ISSUED:          0  CROSSED:          0  USEFUL:          0  USELESS:          0
cpu0_STLB AVERAGE iMISS LATENCY: 50.5729 cycles
cpu0_STLB AVERAGE dMISS LATENCY: 198.138 cycles
cpu0_STLB AVERAGE itMISS LATENCY: 0 cycles
cpu0_STLB AVERAGE dtMISS LATENCY: 0 cycles
cpu0_STLB PAGE CROSSINGS (TLB HIT):         0 
cpu0_STLB PAGE CROSSINGS (TLB MISS):         0 
cpu0_STLB AVERAGE MISS LATENCY: 248.711 cycles
cpu0_L1D TOTAL       ACCESS:   45030864  HIT:   39513942  MISS:    5516922  iACCESS:          0  iHIT:          0  iMISS:          0  dACCESS:   44481934  dHIT:   39479143  dMISS:    5002791  itACCESS:     123867  itHIT:      14406  itMISS:     109461  dtACCESS:     425063  dtHIT:      20393  dtMISS:     404670
cpu0_L1D LOAD         ACCESS:   20376770  HIT:   18133947  MISS:    2242823  iACCESS:          0  iHIT:          0  iMISS:          0  dACCESS:   20376770  dHIT:   18133947  dMISS:    2242823  itACCESS:          0  itHIT:          0  itMISS:          0  dtACCESS:          0  dtHIT:          0  dtMISS:          0
cpu0_L1D RFO          ACCESS:          0  HIT:          0  MISS:          0  iACCESS:          0  iHIT:          0  iMISS:          0  dACCESS:          0  dHIT:          0  dMISS:          0  itACCESS:          0  itHIT:          0  itMISS:          0  dtACCESS:          0  dtHIT:          0  dtMISS:          0
cpu0_L1D PREFETCH     ACCESS:   14002488  HIT:   11807972  MISS:    2194516  iACCESS:          0  iHIT:          0  iMISS:          0  dACCESS:   14002488  dHIT:   11807972  dMISS:    2194516  itACCESS:          0  itHIT:          0  itMISS:          0  dtACCESS:          0  dtHIT:          0  dtMISS:          0
cpu0_L1D WRITE        ACCESS:   10102676  HIT:    9537224  MISS:     565452  iACCESS:          0  iHIT:          0  iMISS:          0  dACCESS:   10102676  dHIT:    9537224  dMISS:     565452  itACCESS:          0  itHIT:          0  itMISS:          0  dtACCESS:          0  dtHIT:          0  dtMISS:          0
cpu0_L1D TRANSLATION  ACCESS:     548930  HIT:      34799  MISS:     514131  iACCESS:          0  iHIT:          0  iMISS:          0  dACCESS:          0  dHIT:          0  dMISS:          0  itACCESS:     123867  itHIT:      14406  itMISS:     109461  dtACCESS:     425063  dtHIT:      20393  dtMISS:     404670
cpu0_L1D PREFETCH  REQUESTED:   20376770  ISSUED:   18687685  CROSSED:          0  USEFUL:     376416  USELESS:     952616
cpu0_L1D AVERAGE iMISS LATENCY: 0 cycles
cpu0_L1D AVERAGE dMISS LATENCY: 51.272 cycles
cpu0_L1D AVERAGE itMISS LATENCY: 3.22333 cycles
cpu0_L1D AVERAGE dtMISS LATENCY: 12.392 cycles
cpu0_L1D PAGE CROSSINGS (TLB HIT):         0 
cpu0_L1D PAGE CROSSINGS (TLB MISS):         0 
cpu0_L1D AVERAGE MISS LATENCY: 66.8872 cycles
cpu0_L2C TOTAL       ACCESS:    8627222  HIT:    4204064  MISS:    4423158  iACCESS:    3766522  iHIT:    2280284  iMISS:    1486238  dACCESS:    4379290  dHIT:    1866274  dMISS:    2513016  itACCESS:     109160  itHIT:      19256  itMISS:      89904  dtACCESS:     372250  dtHIT:      38250  dtMISS:     334000
cpu0_L2C LOAD         ACCESS:    2086652  HIT:    1024947  MISS:    1061705  iACCESS:     846826  iHIT:     536753  iMISS:     310073  dACCESS:    1239826  dHIT:     488194  dMISS:     751632  itACCESS:          0  itHIT:          0  itMISS:          0  dtACCESS:          0  dtHIT:          0  dtMISS:          0
cpu0_L2C RFO          ACCESS:     219031  HIT:      89731  MISS:     129300  iACCESS:          0  iHIT:          0  iMISS:          0  dACCESS:     219031  dHIT:      89731  dMISS:     129300  itACCESS:          0  itHIT:          0  itMISS:          0  dtACCESS:          0  dtHIT:          0  dtMISS:          0
cpu0_L2C PREFETCH     ACCESS:    5490254  HIT:    2685702  MISS:    2804552  iACCESS:    2919696  iHIT:    1743531  iMISS:    1176165  dACCESS:    2570558  dHIT:     942171  dMISS:    1628387  itACCESS:          0  itHIT:          0  itMISS:          0  dtACCESS:          0  dtHIT:          0  dtMISS:          0
cpu0_L2C WRITE        ACCESS:     349875  HIT:     346178  MISS:       3697  iACCESS:          0  iHIT:          0  iMISS:          0  dACCESS:     349875  dHIT:     346178  dMISS:       3697  itACCESS:          0  itHIT:          0  itMISS:          0  dtACCESS:          0  dtHIT:          0  dtMISS:          0
cpu0_L2C TRANSLATION  ACCESS:     481410  HIT:      57506  MISS:     423904  iACCESS:          0  iHIT:          0  iMISS:          0  dACCESS:          0  dHIT:          0  dMISS:          0  itACCESS:     109160  itHIT:      19256  itMISS:      89904  dtACCESS:     372250  dtHIT:      38250  dtMISS:     334000
cpu0_L2C PREFETCH  REQUESTED:    1481901  ISSUED:    1481896  CROSSED:          0  USEFUL:     349198  USELESS:     322538
cpu0_L2C AVERAGE iMISS LATENCY: 40.152 cycles
cpu0_L2C AVERAGE dMISS LATENCY: 79.092 cycles
cpu0_L2C AVERAGE itMISS LATENCY: 3.77728 cycles
cpu0_L2C AVERAGE dtMISS LATENCY: 14.6183 cycles
cpu0_L2C PAGE CROSSINGS (TLB HIT):         0 
cpu0_L2C PAGE CROSSINGS (TLB MISS):         0 
cpu0_L2C AVERAGE MISS LATENCY: 137.64 cycles
LLC TOTAL       ACCESS:    4430104  HIT:    1386815  MISS:    3043289  iACCESS:    1399564  iHIT:     460397  iMISS:     939167  dACCESS:    2606636  dHIT:     885884  dMISS:    1720752  itACCESS:      89904  itHIT:       6976  itMISS:      82928  dtACCESS:     334000  dtHIT:      33558  dtMISS:     300442
LLC LOAD         ACCESS:    1055939  HIT:     347633  MISS:     708306  iACCESS:     308891  iHIT:     108933  iMISS:     199958  dACCESS:     747048  dHIT:     238700  dMISS:     508348  itACCESS:          0  itHIT:          0  itMISS:          0  dtACCESS:          0  dtHIT:          0  dtMISS:          0
LLC RFO          ACCESS:     129298  HIT:      40860  MISS:      88438  iACCESS:          0  iHIT:          0  iMISS:          0  dACCESS:     129298  dHIT:      40860  dMISS:      88438  itACCESS:          0  itHIT:          0  itMISS:          0  dtACCESS:          0  dtHIT:          0  dtMISS:          0
LLC PREFETCH     ACCESS:    2608708  HIT:     756307  MISS:    1852401  iACCESS:    1090673  iHIT:     351464  iMISS:     739209  dACCESS:    1518035  dHIT:     404843  dMISS:    1113192  itACCESS:          0  itHIT:          0  itMISS:          0  dtACCESS:          0  dtHIT:          0  dtMISS:          0
LLC WRITE        ACCESS:     212255  HIT:     201481  MISS:      10774  iACCESS:          0  iHIT:          0  iMISS:          0  dACCESS:     212255  dHIT:     201481  dMISS:      10774  itACCESS:          0  itHIT:          0  itMISS:          0  dtACCESS:          0  dtHIT:          0  dtMISS:          0
LLC TRANSLATION  ACCESS:     423904  HIT:      40534  MISS:     383370  iACCESS:          0  iHIT:          0  iMISS:          0  dACCESS:          0  dHIT:          0  dMISS:          0  itACCESS:      89904  itHIT:       6976  itMISS:      82928  dtACCESS:     334000  dtHIT:      33558  dtMISS:     300442
LLC PREFETCH  REQUESTED:          0  ISSUED:          0  CROSSED:          0  USEFUL:          0  USELESS:          0
LLC AVERAGE iMISS LATENCY: 49.2997 cycles
LLC AVERAGE dMISS LATENCY: 100.086 cycles
LLC AVERAGE itMISS LATENCY: 4.90423 cycles
LLC AVERAGE dtMISS LATENCY: 19.0759 cycles
LLC PAGE CROSSINGS (TLB HIT):         0 
LLC PAGE CROSSINGS (TLB MISS):         0 
LLC AVERAGE MISS LATENCY: 173.365 cycles

PageTableWalker TOTAL       ACCESS:     180869  
PageTableWalker AVERAGE LATENCY: 6.60369 cycles
PageTableWalker TOTAL LATENCY: 1194402 cycles

DRAM Statistics
Channel 0
 RQ ROW_BUFFER_HIT:     623429
  ROW_BUFFER_MISS:    2399401
 AVG DBUS CONGESTED CYCLE:    3.64565
 WQ ROW_BUFFER_HIT:      65082
  ROW_BUFFER_MISS:      55035  FULL:          0

