last_page:0x200000000000000
VMEM_RES_CAP:0x100000
PAGE_SIZE:4096
LOG2_PAGE_SIZE:12
LOG2_PAGE_TABLE_SIZE:9
page_table_levels:5
WARNING: physical memory size is smaller than virtual memory size
FDiP enabled with aggresivity 16

*** ChampSim Multicore Out-of-Order Simulator ***

Warmup Instructions: 50000000
Simulation Instructions: 100000000
Number of CPUs: 1
Small page size: 4096
Large page size: 2097152

CPU 0 Bimodal branch predictor
Basic BTB sets: 1024 ways: 8 indirect buffer size: 4096 RAS size: 64
Instruction page size distrubution: 0
Loading instruction page size distribution from /home/bsc/bsc018186/scratch/itp_asplos25_AE/dump/smt_srv540_ap_srv194_ap_1024i.pdst
Data page size distrubution: 0
Loading data page size distribution from /home/bsc/bsc018186/scratch/itp_asplos25_AE/dump/smt_srv540_ap_srv194_ap_1024i.pdst
cpu0_L2C IP-based stride prefetcher
cpu0_L2C is using PTP replacement policy:
	TLB_STRESS_THRESHOLD:0
	PTE_EVICTION_RATIO:0
cpu0_L1D next line prefetcher
cpu0_L1I next line prefetcher
Off-chip DRAM Size: 4 GiB Channels: 1 Width: 64-bit Data Rate: 3200 MT/s
Heartbeat CPU 0 instructions: 10000002 cycles: 2500566 heartbeat IPC: 3.9991 cumulative IPC: 3.9991 (Simulation time: 0 hr 0 min 39 sec) 
Heartbeat CPU 0 instructions: 20000002 cycles: 5000758 heartbeat IPC: 3.9997 cumulative IPC: 3.9994 (Simulation time: 0 hr 1 min 20 sec) 
Heartbeat CPU 0 instructions: 30000003 cycles: 7501114 heartbeat IPC: 3.99944 cumulative IPC: 3.99941 (Simulation time: 0 hr 2 min 4 sec) 
Heartbeat CPU 0 instructions: 40000000 cycles: 10001780 heartbeat IPC: 3.99894 cumulative IPC: 3.99929 (Simulation time: 0 hr 2 min 51 sec) 
Heartbeat CPU 0 instructions: 50000001 cycles: 12577481 heartbeat IPC: 3.88244 cumulative IPC: 3.97536 (Simulation time: 0 hr 3 min 35 sec) 
Warmup finished CPU 0 instructions: 50000001 cycles: 12577482 cumulative IPC: 3.97536 (Simulation time: 0 hr 3 min 35 sec) 

Warmup complete CPU 0 instructions: 50000001 cycles: 12577482 (Simulation time: 0 hr 3 min 35 sec) 

Heartbeat CPU 0 instructions: 60000003 cycles: 29051746 heartbeat IPC: 0.607008 cumulative IPC: 0.607008 (Simulation time: 0 hr 4 min 55 sec) 
Heartbeat CPU 0 instructions: 70000001 cycles: 49742821 heartbeat IPC: 0.483301 cumulative IPC: 0.538136 (Simulation time: 0 hr 6 min 21 sec) 
Heartbeat CPU 0 instructions: 80000002 cycles: 81874311 heartbeat IPC: 0.311222 cumulative IPC: 0.432921 (Simulation time: 0 hr 8 min 2 sec) 
Heartbeat CPU 0 instructions: 90000000 cycles: 113311306 heartbeat IPC: 0.318097 cumulative IPC: 0.397087 (Simulation time: 0 hr 9 min 44 sec) 
Heartbeat CPU 0 instructions: 100000001 cycles: 145528015 heartbeat IPC: 0.310398 cumulative IPC: 0.37608 (Simulation time: 0 hr 11 min 25 sec) 
Heartbeat CPU 0 instructions: 110000000 cycles: 175707271 heartbeat IPC: 0.331354 cumulative IPC: 0.367806 (Simulation time: 0 hr 13 min 5 sec) 
Heartbeat CPU 0 instructions: 120000003 cycles: 208225774 heartbeat IPC: 0.307518 cumulative IPC: 0.357785 (Simulation time: 0 hr 14 min 47 sec) 
Heartbeat CPU 0 instructions: 130000001 cycles: 240198007 heartbeat IPC: 0.312772 cumulative IPC: 0.351463 (Simulation time: 0 hr 16 min 28 sec) 
Heartbeat CPU 0 instructions: 140000002 cycles: 273025843 heartbeat IPC: 0.30462 cumulative IPC: 0.345558 (Simulation time: 0 hr 18 min 1 sec) 
Heartbeat CPU 0 instructions: 150000001 cycles: 304803422 heartbeat IPC: 0.314688 cumulative IPC: 0.342201 (Simulation time: 0 hr 19 min 39 sec) 
Simulation finished CPU 0 instructions: 100000000 cycles: 292225941 cumulative IPC: 0.342201 (Simulation time: 0 hr 19 min 39 sec) 

Simulation complete CPU 0 instructions: 100000000 cycles: 292225941 (Simulation time: 0 hr 19 min 39 sec) 


ChampSim completed all CPUs

Saving instructions large page distribution to /home/bsc/bsc018186/scratch/itp_asplos25_AE/dump/smt_srv540_ap_srv194_ap_1024i.pdst...
Saving data large page distribution to /home/bsc/bsc018186/scratch/itp_asplos25_AE/dump/smt_srv540_ap_srv194_ap_1024i.pdst...
=== Simulation ===
CPU 0 runs /gpfs/projects/bsc18/MN4/bsc18/romol/ChampSim/traces/qualcomm_srv/smt_srv540_ap_srv194_ap_1024i.champsimtrace.xz

Region of Interest Statistics

CPU 0 cumulative IPC: 0.342201 instructions: 100000000 cycles: 292225941
CPU 0 Branch Prediction Accuracy: 76.976% MPKI: 43.8381 Average ROB Occupancy at Mispredict: 10.7819
Branch type MPKI
BRANCH_DIRECT_JUMP: 1.35578
BRANCH_INDIRECT: 23.1014
BRANCH_CONDITIONAL: 12.2343
BRANCH_DIRECT_CALL: 2.59587
BRANCH_INDIRECT_CALL: 1.11219
BRANCH_RETURN: 3.43865

Instructions large pages: 0
Instructions small pages: 10995
Large page distribution for instructions: 0%

Data large pages: 0
Data small pages: 9231
Large page distribution for data: 0%

cpu0_L1I TOTAL       ACCESS:   39680361  HIT:   31464586  MISS:    8215775  iACCESS:   39680361  iHIT:   31464586  iMISS:    8215775  dACCESS:          0  dHIT:          0  dMISS:          0  itACCESS:          0  itHIT:          0  itMISS:          0  dtACCESS:          0  dtHIT:          0  dtMISS:          0
cpu0_L1I LOAD         ACCESS:   11403593  HIT:    9157561  MISS:    2246032  iACCESS:   11403593  iHIT:    9157561  iMISS:    2246032  dACCESS:          0  dHIT:          0  dMISS:          0  itACCESS:          0  itHIT:          0  itMISS:          0  dtACCESS:          0  dtHIT:          0  dtMISS:          0
cpu0_L1I RFO          ACCESS:          0  HIT:          0  MISS:          0  iACCESS:          0  iHIT:          0  iMISS:          0  dACCESS:          0  dHIT:          0  dMISS:          0  itACCESS:          0  itHIT:          0  itMISS:          0  dtACCESS:          0  dtHIT:          0  dtMISS:          0
cpu0_L1I PREFETCH     ACCESS:   28276768  HIT:   22307025  MISS:    5969743  iACCESS:   28276768  iHIT:   22307025  iMISS:    5969743  dACCESS:          0  dHIT:          0  dMISS:          0  itACCESS:          0  itHIT:          0  itMISS:          0  dtACCESS:          0  dtHIT:          0  dtMISS:          0
cpu0_L1I WRITE        ACCESS:          0  HIT:          0  MISS:          0  iACCESS:          0  iHIT:          0  iMISS:          0  dACCESS:          0  dHIT:          0  dMISS:          0  itACCESS:          0  itHIT:          0  itMISS:          0  dtACCESS:          0  dtHIT:          0  dtMISS:          0
cpu0_L1I TRANSLATION  ACCESS:          0  HIT:          0  MISS:          0  iACCESS:          0  iHIT:          0  iMISS:          0  dACCESS:          0  dHIT:          0  dMISS:          0  itACCESS:          0  itHIT:          0  itMISS:          0  dtACCESS:          0  dtHIT:          0  dtMISS:          0
cpu0_L1I PREFETCH  REQUESTED:   30909752  ISSUED:   30909750  CROSSED:          0  USEFUL:    2073151  USELESS:     744205
cpu0_L1I AVERAGE iMISS LATENCY: 25.0161 cycles
cpu0_L1I AVERAGE dMISS LATENCY: 0 cycles
cpu0_L1I AVERAGE itMISS LATENCY: 0 cycles
cpu0_L1I AVERAGE dtMISS LATENCY: 0 cycles
cpu0_L1I PAGE CROSSINGS (TLB HIT):         0 
cpu0_L1I PAGE CROSSINGS (TLB MISS):         0 
cpu0_L1I AVERAGE MISS LATENCY: 25.0161 cycles
cpu0_ITLB TOTAL       ACCESS:   33566878  HIT:   31419652  MISS:    2147226  iACCESS:   33566878  iHIT:   31419652  iMISS:    2147226  dACCESS:          0  dHIT:          0  dMISS:          0  itACCESS:          0  itHIT:          0  itMISS:          0  dtACCESS:          0  dtHIT:          0  dtMISS:          0
cpu0_ITLB LOAD         ACCESS:   33566878  HIT:   31419652  MISS:    2147226  iACCESS:   33566878  iHIT:   31419652  iMISS:    2147226  dACCESS:          0  dHIT:          0  dMISS:          0  itACCESS:          0  itHIT:          0  itMISS:          0  dtACCESS:          0  dtHIT:          0  dtMISS:          0
cpu0_ITLB RFO          ACCESS:          0  HIT:          0  MISS:          0  iACCESS:          0  iHIT:          0  iMISS:          0  dACCESS:          0  dHIT:          0  dMISS:          0  itACCESS:          0  itHIT:          0  itMISS:          0  dtACCESS:          0  dtHIT:          0  dtMISS:          0
cpu0_ITLB PREFETCH     ACCESS:          0  HIT:          0  MISS:          0  iACCESS:          0  iHIT:          0  iMISS:          0  dACCESS:          0  dHIT:          0  dMISS:          0  itACCESS:          0  itHIT:          0  itMISS:          0  dtACCESS:          0  dtHIT:          0  dtMISS:          0
cpu0_ITLB WRITE        ACCESS:          0  HIT:          0  MISS:          0  iACCESS:          0  iHIT:          0  iMISS:          0  dACCESS:          0  dHIT:          0  dMISS:          0  itACCESS:          0  itHIT:          0  itMISS:          0  dtACCESS:          0  dtHIT:          0  dtMISS:          0
cpu0_ITLB TRANSLATION  ACCESS:          0  HIT:          0  MISS:          0  iACCESS:          0  iHIT:          0  iMISS:          0  dACCESS:          0  dHIT:          0  dMISS:          0  itACCESS:          0  itHIT:          0  itMISS:          0  dtACCESS:          0  dtHIT:          0  dtMISS:          0
cpu0_ITLB PREFETCH  REQUESTED:          0  ISSUED:          0  CROSSED:          0  USEFUL:     376010  USELESS:      81066
cpu0_ITLB AVERAGE iMISS LATENCY: 10.8256 cycles
cpu0_ITLB AVERAGE dMISS LATENCY: 0 cycles
cpu0_ITLB AVERAGE itMISS LATENCY: 0 cycles
cpu0_ITLB AVERAGE dtMISS LATENCY: 0 cycles
cpu0_ITLB PAGE CROSSINGS (TLB HIT):         0 
cpu0_ITLB PAGE CROSSINGS (TLB MISS):         0 
cpu0_ITLB AVERAGE MISS LATENCY: 10.8256 cycles
cpu0_DTLB TOTAL       ACCESS:   30295796  HIT:   25036312  MISS:    5259484  iACCESS:          0  iHIT:          0  iMISS:          0  dACCESS:   30295796  dHIT:   25036312  dMISS:    5259484  itACCESS:          0  itHIT:          0  itMISS:          0  dtACCESS:          0  dtHIT:          0  dtMISS:          0
cpu0_DTLB LOAD         ACCESS:   30295796  HIT:   25036312  MISS:    5259484  iACCESS:          0  iHIT:          0  iMISS:          0  dACCESS:   30295796  dHIT:   25036312  dMISS:    5259484  itACCESS:          0  itHIT:          0  itMISS:          0  dtACCESS:          0  dtHIT:          0  dtMISS:          0
cpu0_DTLB RFO          ACCESS:          0  HIT:          0  MISS:          0  iACCESS:          0  iHIT:          0  iMISS:          0  dACCESS:          0  dHIT:          0  dMISS:          0  itACCESS:          0  itHIT:          0  itMISS:          0  dtACCESS:          0  dtHIT:          0  dtMISS:          0
cpu0_DTLB PREFETCH     ACCESS:          0  HIT:          0  MISS:          0  iACCESS:          0  iHIT:          0  iMISS:          0  dACCESS:          0  dHIT:          0  dMISS:          0  itACCESS:          0  itHIT:          0  itMISS:          0  dtACCESS:          0  dtHIT:          0  dtMISS:          0
cpu0_DTLB WRITE        ACCESS:          0  HIT:          0  MISS:          0  iACCESS:          0  iHIT:          0  iMISS:          0  dACCESS:          0  dHIT:          0  dMISS:          0  itACCESS:          0  itHIT:          0  itMISS:          0  dtACCESS:          0  dtHIT:          0  dtMISS:          0
cpu0_DTLB TRANSLATION  ACCESS:          0  HIT:          0  MISS:          0  iACCESS:          0  iHIT:          0  iMISS:          0  dACCESS:          0  dHIT:          0  dMISS:          0  itACCESS:          0  itHIT:          0  itMISS:          0  dtACCESS:          0  dtHIT:          0  dtMISS:          0
cpu0_DTLB PREFETCH  REQUESTED:          0  ISSUED:          0  CROSSED:          0  USEFUL:          0  USELESS:          0
cpu0_DTLB AVERAGE iMISS LATENCY: 0 cycles
cpu0_DTLB AVERAGE dMISS LATENCY: 17.2557 cycles
cpu0_DTLB AVERAGE itMISS LATENCY: 0 cycles
cpu0_DTLB AVERAGE dtMISS LATENCY: 0 cycles
cpu0_DTLB PAGE CROSSINGS (TLB HIT):         0 
cpu0_DTLB PAGE CROSSINGS (TLB MISS):         0 
cpu0_DTLB AVERAGE MISS LATENCY: 17.2557 cycles
cpu0_STLB TOTAL       ACCESS:    3314205  HIT:    2954261  MISS:     359944  iACCESS:     457078  iHIT:     342646  iMISS:     114432  dACCESS:    2857127  dHIT:    2611615  dMISS:     245512  itACCESS:          0  itHIT:          0  itMISS:          0  dtACCESS:          0  dtHIT:          0  dtMISS:          0
cpu0_STLB LOAD         ACCESS:    3314205  HIT:    2954261  MISS:     359944  iACCESS:     457078  iHIT:     342646  iMISS:     114432  dACCESS:    2857127  dHIT:    2611615  dMISS:     245512  itACCESS:          0  itHIT:          0  itMISS:          0  dtACCESS:          0  dtHIT:          0  dtMISS:          0
cpu0_STLB RFO          ACCESS:          0  HIT:          0  MISS:          0  iACCESS:          0  iHIT:          0  iMISS:          0  dACCESS:          0  dHIT:          0  dMISS:          0  itACCESS:          0  itHIT:          0  itMISS:          0  dtACCESS:          0  dtHIT:          0  dtMISS:          0
cpu0_STLB PREFETCH     ACCESS:          0  HIT:          0  MISS:          0  iACCESS:          0  iHIT:          0  iMISS:          0  dACCESS:          0  dHIT:          0  dMISS:          0  itACCESS:          0  itHIT:          0  itMISS:          0  dtACCESS:          0  dtHIT:          0  dtMISS:          0
cpu0_STLB WRITE        ACCESS:          0  HIT:          0  MISS:          0  iACCESS:          0  iHIT:          0  iMISS:          0  dACCESS:          0  dHIT:          0  dMISS:          0  itACCESS:          0  itHIT:          0  itMISS:          0  dtACCESS:          0  dtHIT:          0  dtMISS:          0
cpu0_STLB TRANSLATION  ACCESS:          0  HIT:          0  MISS:          0  iACCESS:          0  iHIT:          0  iMISS:          0  dACCESS:          0  dHIT:          0  dMISS:          0  itACCESS:          0  itHIT:          0  itMISS:          0  dtACCESS:          0  dtHIT:          0  dtMISS:          0
cpu0_STLB PREFETCH  REQUESTED:          0  ISSUED:          0  CROSSED:          0  USEFUL:          0  USELESS:          0
cpu0_STLB AVERAGE iMISS LATENCY: 54.4119 cycles
cpu0_STLB AVERAGE dMISS LATENCY: 187.942 cycles
cpu0_STLB AVERAGE itMISS LATENCY: 0 cycles
cpu0_STLB AVERAGE dtMISS LATENCY: 0 cycles
cpu0_STLB PAGE CROSSINGS (TLB HIT):         0 
cpu0_STLB PAGE CROSSINGS (TLB MISS):         0 
cpu0_STLB AVERAGE MISS LATENCY: 242.353 cycles
cpu0_L1D TOTAL       ACCESS:   47168550  HIT:   39561247  MISS:    7607303  iACCESS:          0  iHIT:          0  iMISS:          0  dACCESS:   46644915  dHIT:   39530229  dMISS:    7114686  itACCESS:     128287  itHIT:      13186  itMISS:     115101  dtACCESS:     395348  dtHIT:      17832  dtMISS:     377516
cpu0_L1D LOAD         ACCESS:   21985981  HIT:   18200988  MISS:    3784993  iACCESS:          0  iHIT:          0  iMISS:          0  dACCESS:   21985981  dHIT:   18200988  dMISS:    3784993  itACCESS:          0  itHIT:          0  itMISS:          0  dtACCESS:          0  dtHIT:          0  dtMISS:          0
cpu0_L1D RFO          ACCESS:          0  HIT:          0  MISS:          0  iACCESS:          0  iHIT:          0  iMISS:          0  dACCESS:          0  dHIT:          0  dMISS:          0  itACCESS:          0  itHIT:          0  itMISS:          0  dtACCESS:          0  dtHIT:          0  dtMISS:          0
cpu0_L1D PREFETCH     ACCESS:   14601431  HIT:   11885621  MISS:    2715810  iACCESS:          0  iHIT:          0  iMISS:          0  dACCESS:   14601431  dHIT:   11885621  dMISS:    2715810  itACCESS:          0  itHIT:          0  itMISS:          0  dtACCESS:          0  dtHIT:          0  dtMISS:          0
cpu0_L1D WRITE        ACCESS:   10057503  HIT:    9443620  MISS:     613883  iACCESS:          0  iHIT:          0  iMISS:          0  dACCESS:   10057503  dHIT:    9443620  dMISS:     613883  itACCESS:          0  itHIT:          0  itMISS:          0  dtACCESS:          0  dtHIT:          0  dtMISS:          0
cpu0_L1D TRANSLATION  ACCESS:     523635  HIT:      31018  MISS:     492617  iACCESS:          0  iHIT:          0  iMISS:          0  dACCESS:          0  dHIT:          0  dMISS:          0  itACCESS:     128287  itHIT:      13186  itMISS:     115101  dtACCESS:     395348  dtHIT:      17832  dtMISS:     377516
cpu0_L1D PREFETCH  REQUESTED:   21985981  ISSUED:   18768408  CROSSED:          0  USEFUL:     331049  USELESS:    1046328
cpu0_L1D AVERAGE iMISS LATENCY: 0 cycles
cpu0_L1D AVERAGE dMISS LATENCY: 38.2991 cycles
cpu0_L1D AVERAGE itMISS LATENCY: 2.43448 cycles
cpu0_L1D AVERAGE dtMISS LATENCY: 8.33964 cycles
cpu0_L1D PAGE CROSSINGS (TLB HIT):         0 
cpu0_L1D PAGE CROSSINGS (TLB MISS):         0 
cpu0_L1D AVERAGE MISS LATENCY: 49.0732 cycles
cpu0_L2C TOTAL       ACCESS:    9559267  HIT:    5229097  MISS:    4330170  iACCESS:    3598523  iHIT:    2130058  iMISS:    1468465  dACCESS:    5499631  dHIT:    3040464  dMISS:    2459167  itACCESS:     114496  itHIT:      19987  itMISS:      94509  dtACCESS:     346617  dtHIT:      38588  dtMISS:     308029
cpu0_L2C LOAD         ACCESS:    3161838  HIT:    2085925  MISS:    1075913  iACCESS:     813257  iHIT:     505888  iMISS:     307369  dACCESS:    2348581  dHIT:    1580037  dMISS:     768544  itACCESS:          0  itHIT:          0  itMISS:          0  dtACCESS:          0  dtHIT:          0  dtMISS:          0
cpu0_L2C RFO          ACCESS:     241296  HIT:     100941  MISS:     140355  iACCESS:          0  iHIT:          0  iMISS:          0  dACCESS:     241296  dHIT:     100941  dMISS:     140355  itACCESS:          0  itHIT:          0  itMISS:          0  dtACCESS:          0  dtHIT:          0  dtMISS:          0
cpu0_L2C PREFETCH     ACCESS:    5359274  HIT:    2663195  MISS:    2696079  iACCESS:    2785266  iHIT:    1624170  iMISS:    1161096  dACCESS:    2574008  dHIT:    1039025  dMISS:    1534983  itACCESS:          0  itHIT:          0  itMISS:          0  dtACCESS:          0  dtHIT:          0  dtMISS:          0
cpu0_L2C WRITE        ACCESS:     335746  HIT:     320461  MISS:      15285  iACCESS:          0  iHIT:          0  iMISS:          0  dACCESS:     335746  dHIT:     320461  dMISS:      15285  itACCESS:          0  itHIT:          0  itMISS:          0  dtACCESS:          0  dtHIT:          0  dtMISS:          0
cpu0_L2C TRANSLATION  ACCESS:     461113  HIT:      58575  MISS:     402538  iACCESS:          0  iHIT:          0  iMISS:          0  dACCESS:          0  dHIT:          0  dMISS:          0  itACCESS:     114496  itHIT:      19987  itMISS:      94509  dtACCESS:     346617  dtHIT:      38588  dtMISS:     308029
cpu0_L2C PREFETCH  REQUESTED:    1411388  ISSUED:    1411357  CROSSED:          0  USEFUL:     323259  USELESS:     303895
cpu0_L2C AVERAGE iMISS LATENCY: 40.551 cycles
cpu0_L2C AVERAGE dMISS LATENCY: 78.1081 cycles
cpu0_L2C AVERAGE itMISS LATENCY: 4.01638 cycles
cpu0_L2C AVERAGE dtMISS LATENCY: 13.8552 cycles
cpu0_L2C PAGE CROSSINGS (TLB HIT):         0 
cpu0_L2C PAGE CROSSINGS (TLB MISS):         0 
cpu0_L2C AVERAGE MISS LATENCY: 136.531 cycles
LLC TOTAL       ACCESS:    4316119  HIT:    1363948  MISS:    2952171  iACCESS:    1387910  iHIT:     453638  iMISS:     934272  dACCESS:    2525671  dHIT:     871499  dMISS:    1654172  itACCESS:      94509  itHIT:       8002  itMISS:      86507  dtACCESS:     308029  dtHIT:      30809  dtMISS:     277220
LLC LOAD         ACCESS:    1068791  HIT:     384647  MISS:     684144  iACCESS:     306325  iHIT:     107061  iMISS:     199264  dACCESS:     762466  dHIT:     277586  dMISS:     484880  itACCESS:          0  itHIT:          0  itMISS:          0  dtACCESS:          0  dtHIT:          0  dtMISS:          0
LLC RFO          ACCESS:     140352  HIT:      46575  MISS:      93777  iACCESS:          0  iHIT:          0  iMISS:          0  dACCESS:     140352  dHIT:      46575  dMISS:      93777  itACCESS:          0  itHIT:          0  itMISS:          0  dtACCESS:          0  dtHIT:          0  dtMISS:          0
LLC PREFETCH     ACCESS:    2506320  HIT:     705019  MISS:    1801301  iACCESS:    1081585  iHIT:     346577  iMISS:     735008  dACCESS:    1424735  dHIT:     358442  dMISS:    1066293  itACCESS:          0  itHIT:          0  itMISS:          0  dtACCESS:          0  dtHIT:          0  dtMISS:          0
LLC WRITE        ACCESS:     198118  HIT:     188896  MISS:       9222  iACCESS:          0  iHIT:          0  iMISS:          0  dACCESS:     198118  dHIT:     188896  dMISS:       9222  itACCESS:          0  itHIT:          0  itMISS:          0  dtACCESS:          0  dtHIT:          0  dtMISS:          0
LLC TRANSLATION  ACCESS:     402538  HIT:      38811  MISS:     363727  iACCESS:          0  iHIT:          0  iMISS:          0  dACCESS:          0  dHIT:          0  dMISS:          0  itACCESS:      94509  itHIT:       8002  itMISS:      86507  dtACCESS:     308029  dtHIT:      30809  dtMISS:     277220
LLC PREFETCH  REQUESTED:          0  ISSUED:          0  CROSSED:          0  USEFUL:          0  USELESS:          0
LLC AVERAGE iMISS LATENCY: 50.2245 cycles
LLC AVERAGE dMISS LATENCY: 100.023 cycles
LLC AVERAGE itMISS LATENCY: 5.25634 cycles
LLC AVERAGE dtMISS LATENCY: 18.2595 cycles
LLC PAGE CROSSINGS (TLB HIT):         0 
LLC PAGE CROSSINGS (TLB MISS):         0 
LLC AVERAGE MISS LATENCY: 173.764 cycles

PageTableWalker TOTAL       ACCESS:     179713  
PageTableWalker AVERAGE LATENCY: 6.35455 cycles
PageTableWalker TOTAL LATENCY: 1141994 cycles

DRAM Statistics
Channel 0
 RQ ROW_BUFFER_HIT:     602902
  ROW_BUFFER_MISS:    2321341
 AVG DBUS CONGESTED CYCLE:    3.65355
 WQ ROW_BUFFER_HIT:      62856
  ROW_BUFFER_MISS:      55041  FULL:          0

