last_page:0x200000000000000
VMEM_RES_CAP:0x100000
PAGE_SIZE:4096
LOG2_PAGE_SIZE:12
LOG2_PAGE_TABLE_SIZE:9
page_table_levels:5
WARNING: physical memory size is smaller than virtual memory size
FDiP enabled with aggresivity 16

*** ChampSim Multicore Out-of-Order Simulator ***

Warmup Instructions: 50000000
Simulation Instructions: 100000000
Number of CPUs: 1
Small page size: 4096
Large page size: 2097152

CPU 0 Bimodal branch predictor
Basic BTB sets: 1024 ways: 8 indirect buffer size: 4096 RAS size: 64
Instruction page size distrubution: 0
Loading instruction page size distribution from /home/bsc/bsc018186/scratch/itp_asplos25_AE/dump/smt_srv207_ap_srv224_ap_1024i.pdst
Data page size distrubution: 0
Loading data page size distribution from /home/bsc/bsc018186/scratch/itp_asplos25_AE/dump/smt_srv207_ap_srv224_ap_1024i.pdst
cpu0_L2C IP-based stride prefetcher
cpu0_L1D next line prefetcher
cpu0_STLB using iTP with max lru@8
cpu0_STLB using iTP with instr@0 and data@2
Init sat counter with 3 bits (max:50).
cpu0_L1I next line prefetcher
Off-chip DRAM Size: 4 GiB Channels: 1 Width: 64-bit Data Rate: 3200 MT/s
Heartbeat CPU 0 instructions: 10000001 cycles: 2500510 heartbeat IPC: 3.99919 cumulative IPC: 3.99919 (Simulation time: 0 hr 0 min 36 sec) 
Heartbeat CPU 0 instructions: 20000001 cycles: 5000711 heartbeat IPC: 3.99968 cumulative IPC: 3.99944 (Simulation time: 0 hr 1 min 14 sec) 
Heartbeat CPU 0 instructions: 30000003 cycles: 7500869 heartbeat IPC: 3.99975 cumulative IPC: 3.99954 (Simulation time: 0 hr 1 min 52 sec) 
Heartbeat CPU 0 instructions: 40000000 cycles: 10047438 heartbeat IPC: 3.92686 cumulative IPC: 3.98112 (Simulation time: 0 hr 2 min 32 sec) 
Heartbeat CPU 0 instructions: 50000003 cycles: 12611027 heartbeat IPC: 3.90079 cumulative IPC: 3.96479 (Simulation time: 0 hr 3 min 12 sec) 
Warmup finished CPU 0 instructions: 50000003 cycles: 12611028 cumulative IPC: 3.96479 (Simulation time: 0 hr 3 min 12 sec) 

Warmup complete CPU 0 instructions: 50000003 cycles: 12611028 (Simulation time: 0 hr 3 min 12 sec) 

Heartbeat CPU 0 instructions: 60000002 cycles: 29177395 heartbeat IPC: 0.603633 cumulative IPC: 0.603633 (Simulation time: 0 hr 4 min 20 sec) 
Heartbeat CPU 0 instructions: 70000003 cycles: 56554534 heartbeat IPC: 0.365269 cumulative IPC: 0.45513 (Simulation time: 0 hr 5 min 39 sec) 
Heartbeat CPU 0 instructions: 80000002 cycles: 84177340 heartbeat IPC: 0.36202 cumulative IPC: 0.419192 (Simulation time: 0 hr 6 min 58 sec) 
Heartbeat CPU 0 instructions: 90000000 cycles: 113028123 heartbeat IPC: 0.346611 cumulative IPC: 0.398339 (Simulation time: 0 hr 8 min 21 sec) 
Heartbeat CPU 0 instructions: 100000000 cycles: 140270684 heartbeat IPC: 0.367073 cumulative IPC: 0.391667 (Simulation time: 0 hr 9 min 45 sec) 
Heartbeat CPU 0 instructions: 110000002 cycles: 167707760 heartbeat IPC: 0.364471 cumulative IPC: 0.386856 (Simulation time: 0 hr 11 min 4 sec) 
Heartbeat CPU 0 instructions: 120000004 cycles: 195124565 heartbeat IPC: 0.36474 cumulative IPC: 0.383534 (Simulation time: 0 hr 12 min 23 sec) 
Heartbeat CPU 0 instructions: 130000000 cycles: 222521429 heartbeat IPC: 0.365006 cumulative IPC: 0.381115 (Simulation time: 0 hr 13 min 42 sec) 
Heartbeat CPU 0 instructions: 140000002 cycles: 251438970 heartbeat IPC: 0.345811 cumulative IPC: 0.376841 (Simulation time: 0 hr 15 min 3 sec) 
Heartbeat CPU 0 instructions: 150000003 cycles: 278976083 heartbeat IPC: 0.363147 cumulative IPC: 0.375425 (Simulation time: 0 hr 16 min 22 sec) 
Simulation finished CPU 0 instructions: 100000000 cycles: 266365056 cumulative IPC: 0.375425 (Simulation time: 0 hr 16 min 22 sec) 

Simulation complete CPU 0 instructions: 100000000 cycles: 266365056 (Simulation time: 0 hr 16 min 22 sec) 


ChampSim completed all CPUs

Saving instructions large page distribution to /home/bsc/bsc018186/scratch/itp_asplos25_AE/dump/smt_srv207_ap_srv224_ap_1024i.pdst...
Saving data large page distribution to /home/bsc/bsc018186/scratch/itp_asplos25_AE/dump/smt_srv207_ap_srv224_ap_1024i.pdst...
=== Simulation ===
CPU 0 runs /gpfs/projects/bsc18/MN4/bsc18/romol/ChampSim/traces/qualcomm_srv/smt_srv207_ap_srv224_ap_1024i.champsimtrace.xz

Region of Interest Statistics

CPU 0 cumulative IPC: 0.375425 instructions: 100000000 cycles: 266365056
CPU 0 Branch Prediction Accuracy: 76.4132% MPKI: 43.7208 Average ROB Occupancy at Mispredict: 11.3704
Branch type MPKI
BRANCH_DIRECT_JUMP: 1.30139
BRANCH_INDIRECT: 23.3363
BRANCH_CONDITIONAL: 12.26
BRANCH_DIRECT_CALL: 2.41583
BRANCH_INDIRECT_CALL: 1.02441
BRANCH_RETURN: 3.38294

Instructions large pages: 0
Instructions small pages: 15027
Large page distribution for instructions: 0%

Data large pages: 0
Data small pages: 13570
Large page distribution for data: 0%

cpu0_L1I TOTAL       ACCESS:   39698151  HIT:   31110642  MISS:    8587509  iACCESS:   39698151  iHIT:   31110642  iMISS:    8587509  dACCESS:          0  dHIT:          0  dMISS:          0  itACCESS:          0  itHIT:          0  itMISS:          0  dtACCESS:          0  dtHIT:          0  dtMISS:          0
cpu0_L1I LOAD         ACCESS:   11560996  HIT:    9225432  MISS:    2335564  iACCESS:   11560996  iHIT:    9225432  iMISS:    2335564  dACCESS:          0  dHIT:          0  dMISS:          0  itACCESS:          0  itHIT:          0  itMISS:          0  dtACCESS:          0  dtHIT:          0  dtMISS:          0
cpu0_L1I RFO          ACCESS:          0  HIT:          0  MISS:          0  iACCESS:          0  iHIT:          0  iMISS:          0  dACCESS:          0  dHIT:          0  dMISS:          0  itACCESS:          0  itHIT:          0  itMISS:          0  dtACCESS:          0  dtHIT:          0  dtMISS:          0
cpu0_L1I PREFETCH     ACCESS:   28137155  HIT:   21885210  MISS:    6251945  iACCESS:   28137155  iHIT:   21885210  iMISS:    6251945  dACCESS:          0  dHIT:          0  dMISS:          0  itACCESS:          0  itHIT:          0  itMISS:          0  dtACCESS:          0  dtHIT:          0  dtMISS:          0
cpu0_L1I WRITE        ACCESS:          0  HIT:          0  MISS:          0  iACCESS:          0  iHIT:          0  iMISS:          0  dACCESS:          0  dHIT:          0  dMISS:          0  itACCESS:          0  itHIT:          0  itMISS:          0  dtACCESS:          0  dtHIT:          0  dtMISS:          0
cpu0_L1I TRANSLATION  ACCESS:          0  HIT:          0  MISS:          0  iACCESS:          0  iHIT:          0  iMISS:          0  dACCESS:          0  dHIT:          0  dMISS:          0  itACCESS:          0  itHIT:          0  itMISS:          0  dtACCESS:          0  dtHIT:          0  dtMISS:          0
cpu0_L1I PREFETCH  REQUESTED:   30677529  ISSUED:   30676150  CROSSED:          0  USEFUL:    2063419  USELESS:     727957
cpu0_L1I AVERAGE iMISS LATENCY: 23.949 cycles
cpu0_L1I AVERAGE dMISS LATENCY: 0 cycles
cpu0_L1I AVERAGE itMISS LATENCY: 0 cycles
cpu0_L1I AVERAGE dtMISS LATENCY: 0 cycles
cpu0_L1I PAGE CROSSINGS (TLB HIT):         0 
cpu0_L1I PAGE CROSSINGS (TLB MISS):         0 
cpu0_L1I AVERAGE MISS LATENCY: 23.949 cycles
cpu0_ITLB TOTAL       ACCESS:   33308000  HIT:   31220783  MISS:    2087217  iACCESS:   33308000  iHIT:   31220783  iMISS:    2087217  dACCESS:          0  dHIT:          0  dMISS:          0  itACCESS:          0  itHIT:          0  itMISS:          0  dtACCESS:          0  dtHIT:          0  dtMISS:          0
cpu0_ITLB LOAD         ACCESS:   33308000  HIT:   31220783  MISS:    2087217  iACCESS:   33308000  iHIT:   31220783  iMISS:    2087217  dACCESS:          0  dHIT:          0  dMISS:          0  itACCESS:          0  itHIT:          0  itMISS:          0  dtACCESS:          0  dtHIT:          0  dtMISS:          0
cpu0_ITLB RFO          ACCESS:          0  HIT:          0  MISS:          0  iACCESS:          0  iHIT:          0  iMISS:          0  dACCESS:          0  dHIT:          0  dMISS:          0  itACCESS:          0  itHIT:          0  itMISS:          0  dtACCESS:          0  dtHIT:          0  dtMISS:          0
cpu0_ITLB PREFETCH     ACCESS:          0  HIT:          0  MISS:          0  iACCESS:          0  iHIT:          0  iMISS:          0  dACCESS:          0  dHIT:          0  dMISS:          0  itACCESS:          0  itHIT:          0  itMISS:          0  dtACCESS:          0  dtHIT:          0  dtMISS:          0
cpu0_ITLB WRITE        ACCESS:          0  HIT:          0  MISS:          0  iACCESS:          0  iHIT:          0  iMISS:          0  dACCESS:          0  dHIT:          0  dMISS:          0  itACCESS:          0  itHIT:          0  itMISS:          0  dtACCESS:          0  dtHIT:          0  dtMISS:          0
cpu0_ITLB TRANSLATION  ACCESS:          0  HIT:          0  MISS:          0  iACCESS:          0  iHIT:          0  iMISS:          0  dACCESS:          0  dHIT:          0  dMISS:          0  itACCESS:          0  itHIT:          0  itMISS:          0  dtACCESS:          0  dtHIT:          0  dtMISS:          0
cpu0_ITLB PREFETCH  REQUESTED:          0  ISSUED:          0  CROSSED:          0  USEFUL:     368255  USELESS:      77043
cpu0_ITLB AVERAGE iMISS LATENCY: 5.68492 cycles
cpu0_ITLB AVERAGE dMISS LATENCY: 0 cycles
cpu0_ITLB AVERAGE itMISS LATENCY: 0 cycles
cpu0_ITLB AVERAGE dtMISS LATENCY: 0 cycles
cpu0_ITLB PAGE CROSSINGS (TLB HIT):         0 
cpu0_ITLB PAGE CROSSINGS (TLB MISS):         0 
cpu0_ITLB AVERAGE MISS LATENCY: 5.68492 cycles
cpu0_DTLB TOTAL       ACCESS:   30028389  HIT:   25369028  MISS:    4659361  iACCESS:          0  iHIT:          0  iMISS:          0  dACCESS:   30028389  dHIT:   25369028  dMISS:    4659361  itACCESS:          0  itHIT:          0  itMISS:          0  dtACCESS:          0  dtHIT:          0  dtMISS:          0
cpu0_DTLB LOAD         ACCESS:   30028389  HIT:   25369028  MISS:    4659361  iACCESS:          0  iHIT:          0  iMISS:          0  dACCESS:   30028389  dHIT:   25369028  dMISS:    4659361  itACCESS:          0  itHIT:          0  itMISS:          0  dtACCESS:          0  dtHIT:          0  dtMISS:          0
cpu0_DTLB RFO          ACCESS:          0  HIT:          0  MISS:          0  iACCESS:          0  iHIT:          0  iMISS:          0  dACCESS:          0  dHIT:          0  dMISS:          0  itACCESS:          0  itHIT:          0  itMISS:          0  dtACCESS:          0  dtHIT:          0  dtMISS:          0
cpu0_DTLB PREFETCH     ACCESS:          0  HIT:          0  MISS:          0  iACCESS:          0  iHIT:          0  iMISS:          0  dACCESS:          0  dHIT:          0  dMISS:          0  itACCESS:          0  itHIT:          0  itMISS:          0  dtACCESS:          0  dtHIT:          0  dtMISS:          0
cpu0_DTLB WRITE        ACCESS:          0  HIT:          0  MISS:          0  iACCESS:          0  iHIT:          0  iMISS:          0  dACCESS:          0  dHIT:          0  dMISS:          0  itACCESS:          0  itHIT:          0  itMISS:          0  dtACCESS:          0  dtHIT:          0  dtMISS:          0
cpu0_DTLB TRANSLATION  ACCESS:          0  HIT:          0  MISS:          0  iACCESS:          0  iHIT:          0  iMISS:          0  dACCESS:          0  dHIT:          0  dMISS:          0  itACCESS:          0  itHIT:          0  itMISS:          0  dtACCESS:          0  dtHIT:          0  dtMISS:          0
cpu0_DTLB PREFETCH  REQUESTED:          0  ISSUED:          0  CROSSED:          0  USEFUL:          0  USELESS:          0
cpu0_DTLB AVERAGE iMISS LATENCY: 0 cycles
cpu0_DTLB AVERAGE dMISS LATENCY: 15.0829 cycles
cpu0_DTLB AVERAGE itMISS LATENCY: 0 cycles
cpu0_DTLB AVERAGE dtMISS LATENCY: 0 cycles
cpu0_DTLB PAGE CROSSINGS (TLB HIT):         0 
cpu0_DTLB PAGE CROSSINGS (TLB MISS):         0 
cpu0_DTLB AVERAGE MISS LATENCY: 15.0829 cycles
cpu0_STLB TOTAL       ACCESS:    3028508  HIT:    2676245  MISS:     352263  iACCESS:     445312  iHIT:     389345  iMISS:      55967  dACCESS:    2583196  dHIT:    2286900  dMISS:     296296  itACCESS:          0  itHIT:          0  itMISS:          0  dtACCESS:          0  dtHIT:          0  dtMISS:          0
cpu0_STLB LOAD         ACCESS:    3028508  HIT:    2676245  MISS:     352263  iACCESS:     445312  iHIT:     389345  iMISS:      55967  dACCESS:    2583196  dHIT:    2286900  dMISS:     296296  itACCESS:          0  itHIT:          0  itMISS:          0  dtACCESS:          0  dtHIT:          0  dtMISS:          0
cpu0_STLB RFO          ACCESS:          0  HIT:          0  MISS:          0  iACCESS:          0  iHIT:          0  iMISS:          0  dACCESS:          0  dHIT:          0  dMISS:          0  itACCESS:          0  itHIT:          0  itMISS:          0  dtACCESS:          0  dtHIT:          0  dtMISS:          0
cpu0_STLB PREFETCH     ACCESS:          0  HIT:          0  MISS:          0  iACCESS:          0  iHIT:          0  iMISS:          0  dACCESS:          0  dHIT:          0  dMISS:          0  itACCESS:          0  itHIT:          0  itMISS:          0  dtACCESS:          0  dtHIT:          0  dtMISS:          0
cpu0_STLB WRITE        ACCESS:          0  HIT:          0  MISS:          0  iACCESS:          0  iHIT:          0  iMISS:          0  dACCESS:          0  dHIT:          0  dMISS:          0  itACCESS:          0  itHIT:          0  itMISS:          0  dtACCESS:          0  dtHIT:          0  dtMISS:          0
cpu0_STLB TRANSLATION  ACCESS:          0  HIT:          0  MISS:          0  iACCESS:          0  iHIT:          0  iMISS:          0  dACCESS:          0  dHIT:          0  dMISS:          0  itACCESS:          0  itHIT:          0  itMISS:          0  dtACCESS:          0  dtHIT:          0  dtMISS:          0
cpu0_STLB PREFETCH  REQUESTED:          0  ISSUED:          0  CROSSED:          0  USEFUL:          0  USELESS:          0
cpu0_STLB AVERAGE iMISS LATENCY: 23.7514 cycles
cpu0_STLB AVERAGE dMISS LATENCY: 140.253 cycles
cpu0_STLB AVERAGE itMISS LATENCY: 0 cycles
cpu0_STLB AVERAGE dtMISS LATENCY: 0 cycles
cpu0_STLB PAGE CROSSINGS (TLB HIT):         0 
cpu0_STLB PAGE CROSSINGS (TLB MISS):         0 
cpu0_STLB AVERAGE MISS LATENCY: 164.005 cycles
cpu0_L1D TOTAL       ACCESS:   46983532  HIT:   39903454  MISS:    7080078  iACCESS:          0  iHIT:          0  iMISS:          0  dACCESS:   46448206  dHIT:   39876218  dMISS:    6571988  itACCESS:      65927  itHIT:       4824  itMISS:      61103  dtACCESS:     469399  dtHIT:      22412  dtMISS:     446987
cpu0_L1D LOAD         ACCESS:   21796461  HIT:   18462797  MISS:    3333664  iACCESS:          0  iHIT:          0  iMISS:          0  dACCESS:   21796461  dHIT:   18462797  dMISS:    3333664  itACCESS:          0  itHIT:          0  itMISS:          0  dtACCESS:          0  dtHIT:          0  dtMISS:          0
cpu0_L1D RFO          ACCESS:          0  HIT:          0  MISS:          0  iACCESS:          0  iHIT:          0  iMISS:          0  dACCESS:          0  dHIT:          0  dMISS:          0  itACCESS:          0  itHIT:          0  itMISS:          0  dtACCESS:          0  dtHIT:          0  dtMISS:          0
cpu0_L1D PREFETCH     ACCESS:   14656951  HIT:   11994718  MISS:    2662233  iACCESS:          0  iHIT:          0  iMISS:          0  dACCESS:   14656951  dHIT:   11994718  dMISS:    2662233  itACCESS:          0  itHIT:          0  itMISS:          0  dtACCESS:          0  dtHIT:          0  dtMISS:          0
cpu0_L1D WRITE        ACCESS:    9994794  HIT:    9418703  MISS:     576091  iACCESS:          0  iHIT:          0  iMISS:          0  dACCESS:    9994794  dHIT:    9418703  dMISS:     576091  itACCESS:          0  itHIT:          0  itMISS:          0  dtACCESS:          0  dtHIT:          0  dtMISS:          0
cpu0_L1D TRANSLATION  ACCESS:     535326  HIT:      27236  MISS:     508090  iACCESS:          0  iHIT:          0  iMISS:          0  dACCESS:          0  dHIT:          0  dMISS:          0  itACCESS:      65927  itHIT:       4824  itMISS:      61103  dtACCESS:     469399  dtHIT:      22412  dtMISS:     446987
cpu0_L1D PREFETCH  REQUESTED:   21796461  ISSUED:   18997388  CROSSED:          0  USEFUL:     360766  USELESS:    1011224
cpu0_L1D AVERAGE iMISS LATENCY: 0 cycles
cpu0_L1D AVERAGE dMISS LATENCY: 40.6831 cycles
cpu0_L1D AVERAGE itMISS LATENCY: 1.09986 cycles
cpu0_L1D AVERAGE dtMISS LATENCY: 6.18408 cycles
cpu0_L1D PAGE CROSSINGS (TLB HIT):         0 
cpu0_L1D PAGE CROSSINGS (TLB MISS):         0 
cpu0_L1D AVERAGE MISS LATENCY: 47.967 cycles
cpu0_L2C TOTAL       ACCESS:    9080605  HIT:    1860880  MISS:    7219725  iACCESS:    3544239  iHIT:     744283  iMISS:    2799956  dACCESS:    5052545  dHIT:     929706  dMISS:    4122839  itACCESS:      60935  itHIT:      15578  itMISS:      45357  dtACCESS:     422886  dtHIT:     171313  dtMISS:     251573
cpu0_L2C LOAD         ACCESS:    2697008  HIT:     530043  MISS:    2166965  iACCESS:     784826  iHIT:     106946  iMISS:     677880  dACCESS:    1912182  dHIT:     423097  dMISS:    1489085  itACCESS:          0  itHIT:          0  itMISS:          0  dtACCESS:          0  dtHIT:          0  dtMISS:          0
cpu0_L2C RFO          ACCESS:     224984  HIT:      38780  MISS:     186204  iACCESS:          0  iHIT:          0  iMISS:          0  dACCESS:     224984  dHIT:      38780  dMISS:     186204  itACCESS:          0  itHIT:          0  itMISS:          0  dtACCESS:          0  dtHIT:          0  dtMISS:          0
cpu0_L2C PREFETCH     ACCESS:    5335736  HIT:     996004  MISS:    4339732  iACCESS:    2759413  iHIT:     637337  iMISS:    2122076  dACCESS:    2576323  dHIT:     358667  dMISS:    2217656  itACCESS:          0  itHIT:          0  itMISS:          0  dtACCESS:          0  dtHIT:          0  dtMISS:          0
cpu0_L2C WRITE        ACCESS:     339056  HIT:     109162  MISS:     229894  iACCESS:          0  iHIT:          0  iMISS:          0  dACCESS:     339056  dHIT:     109162  dMISS:     229894  itACCESS:          0  itHIT:          0  itMISS:          0  dtACCESS:          0  dtHIT:          0  dtMISS:          0
cpu0_L2C TRANSLATION  ACCESS:     483821  HIT:     186891  MISS:     296930  iACCESS:          0  iHIT:          0  iMISS:          0  dACCESS:          0  dHIT:          0  dMISS:          0  itACCESS:      60935  itHIT:      15578  itMISS:      45357  dtACCESS:     422886  dtHIT:     171313  dtMISS:     251573
cpu0_L2C PREFETCH  REQUESTED:    1423607  ISSUED:    1423604  CROSSED:          0  USEFUL:     384838  USELESS:     464777
cpu0_L2C AVERAGE iMISS LATENCY: 24.2692 cycles
cpu0_L2C AVERAGE dMISS LATENCY: 47.1106 cycles
cpu0_L2C AVERAGE itMISS LATENCY: 0.996106 cycles
cpu0_L2C AVERAGE dtMISS LATENCY: 5.49971 cycles
cpu0_L2C PAGE CROSSINGS (TLB HIT):         0 
cpu0_L2C PAGE CROSSINGS (TLB MISS):         0 
cpu0_L2C AVERAGE MISS LATENCY: 77.8756 cycles
LLC TOTAL       ACCESS:    7046790  HIT:    4535713  MISS:    2511077  iACCESS:    2717802  iHIT:    1946083  iMISS:     771719  dACCESS:    4032058  dHIT:    2513809  dMISS:    1518249  itACCESS:      45357  itHIT:       9494  itMISS:      35863  dtACCESS:     251573  dtHIT:      66327  dtMISS:     185246
LLC LOAD         ACCESS:    2160930  HIT:    1554674  MISS:     606256  iACCESS:     676561  iHIT:     516104  iMISS:     160457  dACCESS:    1484369  dHIT:    1038570  dMISS:     445799  itACCESS:          0  itHIT:          0  itMISS:          0  dtACCESS:          0  dtHIT:          0  dtMISS:          0
LLC RFO          ACCESS:     186189  HIT:     104610  MISS:      81579  iACCESS:          0  iHIT:          0  iMISS:          0  dACCESS:     186189  dHIT:     104610  dMISS:      81579  itACCESS:          0  itHIT:          0  itMISS:          0  dtACCESS:          0  dtHIT:          0  dtMISS:          0
LLC PREFETCH     ACCESS:    4145321  HIT:    2550766  MISS:    1594555  iACCESS:    2041241  iHIT:    1429979  iMISS:     611262  dACCESS:    2104080  dHIT:    1120787  dMISS:     983293  itACCESS:          0  itHIT:          0  itMISS:          0  dtACCESS:          0  dtHIT:          0  dtMISS:          0
LLC WRITE        ACCESS:     257420  HIT:     249842  MISS:       7578  iACCESS:          0  iHIT:          0  iMISS:          0  dACCESS:     257420  dHIT:     249842  dMISS:       7578  itACCESS:          0  itHIT:          0  itMISS:          0  dtACCESS:          0  dtHIT:          0  dtMISS:          0
LLC TRANSLATION  ACCESS:     296930  HIT:      75821  MISS:     221109  iACCESS:          0  iHIT:          0  iMISS:          0  dACCESS:          0  dHIT:          0  dMISS:          0  itACCESS:      45357  itHIT:       9494  itMISS:      35863  dtACCESS:     251573  dtHIT:      66327  dtMISS:     185246
LLC PREFETCH  REQUESTED:          0  ISSUED:          0  CROSSED:          0  USEFUL:          0  USELESS:          0
LLC AVERAGE iMISS LATENCY: 48.7608 cycles
LLC AVERAGE dMISS LATENCY: 106.866 cycles
LLC AVERAGE itMISS LATENCY: 2.50769 cycles
LLC AVERAGE dtMISS LATENCY: 13.8414 cycles
LLC PAGE CROSSINGS (TLB HIT):         0 
LLC PAGE CROSSINGS (TLB MISS):         0 
LLC AVERAGE MISS LATENCY: 171.976 cycles

PageTableWalker TOTAL       ACCESS:     159561  
PageTableWalker AVERAGE LATENCY: 6.27364 cycles
PageTableWalker TOTAL LATENCY: 1001028 cycles

DRAM Statistics
Channel 0
 RQ ROW_BUFFER_HIT:     557685
  ROW_BUFFER_MISS:    1934915
 AVG DBUS CONGESTED CYCLE:    3.65486
 WQ ROW_BUFFER_HIT:      59388
  ROW_BUFFER_MISS:      57089  FULL:          0

