last_page:0x200000000000000
VMEM_RES_CAP:0x100000
PAGE_SIZE:4096
LOG2_PAGE_SIZE:12
LOG2_PAGE_TABLE_SIZE:9
page_table_levels:5
WARNING: physical memory size is smaller than virtual memory size
FDiP enabled with aggresivity 16

*** ChampSim Multicore Out-of-Order Simulator ***

Warmup Instructions: 50000000
Simulation Instructions: 100000000
Number of CPUs: 1
Small page size: 4096
Large page size: 2097152

CPU 0 Bimodal branch predictor
Basic BTB sets: 1024 ways: 8 indirect buffer size: 4096 RAS size: 64
Instruction page size distrubution: 0
Loading instruction page size distribution from /home/bsc/bsc018186/scratch/itp_asplos25_AE/dump/smt_srv207_ap_srv346_ap_1024i.pdst
Data page size distrubution: 0
Loading data page size distribution from /home/bsc/bsc018186/scratch/itp_asplos25_AE/dump/smt_srv207_ap_srv346_ap_1024i.pdst
cpu0_L2C IP-based stride prefetcher
cpu0_L1D next line prefetcher
cpu0_L1I next line prefetcher
Off-chip DRAM Size: 4 GiB Channels: 1 Width: 64-bit Data Rate: 3200 MT/s
Heartbeat CPU 0 instructions: 10000000 cycles: 2500788 heartbeat IPC: 3.99874 cumulative IPC: 3.99874 (Simulation time: 0 hr 0 min 38 sec) 
Heartbeat CPU 0 instructions: 20000003 cycles: 5001332 heartbeat IPC: 3.99914 cumulative IPC: 3.99894 (Simulation time: 0 hr 1 min 18 sec) 
Heartbeat CPU 0 instructions: 30000001 cycles: 7501624 heartbeat IPC: 3.99954 cumulative IPC: 3.99914 (Simulation time: 0 hr 2 min 0 sec) 
Heartbeat CPU 0 instructions: 40000002 cycles: 10001940 heartbeat IPC: 3.9995 cumulative IPC: 3.99923 (Simulation time: 0 hr 2 min 42 sec) 
Heartbeat CPU 0 instructions: 50000002 cycles: 12502407 heartbeat IPC: 3.99926 cumulative IPC: 3.99924 (Simulation time: 0 hr 3 min 24 sec) 
Warmup finished CPU 0 instructions: 50000002 cycles: 12502408 cumulative IPC: 3.99923 (Simulation time: 0 hr 3 min 24 sec) 

Warmup complete CPU 0 instructions: 50000002 cycles: 12502408 (Simulation time: 0 hr 3 min 24 sec) 

Heartbeat CPU 0 instructions: 60000000 cycles: 40048323 heartbeat IPC: 0.363031 cumulative IPC: 0.363031 (Simulation time: 0 hr 4 min 48 sec) 
Heartbeat CPU 0 instructions: 70000003 cycles: 67459202 heartbeat IPC: 0.364819 cumulative IPC: 0.363923 (Simulation time: 0 hr 6 min 12 sec) 
Heartbeat CPU 0 instructions: 80000001 cycles: 96444568 heartbeat IPC: 0.345002 cumulative IPC: 0.357389 (Simulation time: 0 hr 7 min 37 sec) 
Heartbeat CPU 0 instructions: 90000000 cycles: 123562601 heartbeat IPC: 0.368759 cumulative IPC: 0.360166 (Simulation time: 0 hr 9 min 1 sec) 
Heartbeat CPU 0 instructions: 100000003 cycles: 150878459 heartbeat IPC: 0.366088 cumulative IPC: 0.361335 (Simulation time: 0 hr 10 min 24 sec) 
Heartbeat CPU 0 instructions: 110000001 cycles: 178414161 heartbeat IPC: 0.363165 cumulative IPC: 0.361639 (Simulation time: 0 hr 11 min 49 sec) 
Heartbeat CPU 0 instructions: 120000000 cycles: 205604211 heartbeat IPC: 0.367782 cumulative IPC: 0.362504 (Simulation time: 0 hr 13 min 13 sec) 
Heartbeat CPU 0 instructions: 130000002 cycles: 232489791 heartbeat IPC: 0.371947 cumulative IPC: 0.363658 (Simulation time: 0 hr 14 min 40 sec) 
Heartbeat CPU 0 instructions: 140000002 cycles: 260526770 heartbeat IPC: 0.356672 cumulative IPC: 0.362868 (Simulation time: 0 hr 16 min 8 sec) 
Heartbeat CPU 0 instructions: 150000000 cycles: 287478953 heartbeat IPC: 0.371028 cumulative IPC: 0.363668 (Simulation time: 0 hr 17 min 33 sec) 
Simulation finished CPU 0 instructions: 100000003 cycles: 274976547 cumulative IPC: 0.363668 (Simulation time: 0 hr 17 min 33 sec) 

Simulation complete CPU 0 instructions: 100000003 cycles: 274976547 (Simulation time: 0 hr 17 min 33 sec) 


ChampSim completed all CPUs

Saving instructions large page distribution to /home/bsc/bsc018186/scratch/itp_asplos25_AE/dump/smt_srv207_ap_srv346_ap_1024i.pdst...
Saving data large page distribution to /home/bsc/bsc018186/scratch/itp_asplos25_AE/dump/smt_srv207_ap_srv346_ap_1024i.pdst...
=== Simulation ===
CPU 0 runs /gpfs/projects/bsc18/MN4/bsc18/romol/ChampSim/traces/qualcomm_srv/smt_srv207_ap_srv346_ap_1024i.champsimtrace.xz

Region of Interest Statistics

CPU 0 cumulative IPC: 0.363668 instructions: 100000003 cycles: 274976547
CPU 0 Branch Prediction Accuracy: 75.4377% MPKI: 44.1056 Average ROB Occupancy at Mispredict: 11.0373
Branch type MPKI
BRANCH_DIRECT_JUMP: 1.34654
BRANCH_INDIRECT: 23.3342
BRANCH_CONDITIONAL: 12.4584
BRANCH_DIRECT_CALL: 2.53532
BRANCH_INDIRECT_CALL: 0.94028
BRANCH_RETURN: 3.49091

Instructions large pages: 0
Instructions small pages: 14696
Large page distribution for instructions: 0%

Data large pages: 0
Data small pages: 13288
Large page distribution for data: 0%

cpu0_L1I TOTAL       ACCESS:   39261270  HIT:   30107112  MISS:    9154158  iACCESS:   39261270  iHIT:   30107112  iMISS:    9154158  dACCESS:          0  dHIT:          0  dMISS:          0  itACCESS:          0  itHIT:          0  itMISS:          0  dtACCESS:          0  dtHIT:          0  dtMISS:          0
cpu0_L1I LOAD         ACCESS:   11663199  HIT:    9173410  MISS:    2489789  iACCESS:   11663199  iHIT:    9173410  iMISS:    2489789  dACCESS:          0  dHIT:          0  dMISS:          0  itACCESS:          0  itHIT:          0  itMISS:          0  dtACCESS:          0  dtHIT:          0  dtMISS:          0
cpu0_L1I RFO          ACCESS:          0  HIT:          0  MISS:          0  iACCESS:          0  iHIT:          0  iMISS:          0  dACCESS:          0  dHIT:          0  dMISS:          0  itACCESS:          0  itHIT:          0  itMISS:          0  dtACCESS:          0  dtHIT:          0  dtMISS:          0
cpu0_L1I PREFETCH     ACCESS:   27598071  HIT:   20933702  MISS:    6664369  iACCESS:   27598071  iHIT:   20933702  iMISS:    6664369  dACCESS:          0  dHIT:          0  dMISS:          0  itACCESS:          0  itHIT:          0  itMISS:          0  dtACCESS:          0  dtHIT:          0  dtMISS:          0
cpu0_L1I WRITE        ACCESS:          0  HIT:          0  MISS:          0  iACCESS:          0  iHIT:          0  iMISS:          0  dACCESS:          0  dHIT:          0  dMISS:          0  itACCESS:          0  itHIT:          0  itMISS:          0  dtACCESS:          0  dtHIT:          0  dtMISS:          0
cpu0_L1I TRANSLATION  ACCESS:          0  HIT:          0  MISS:          0  iACCESS:          0  iHIT:          0  iMISS:          0  dACCESS:          0  dHIT:          0  dMISS:          0  itACCESS:          0  itHIT:          0  itMISS:          0  dtACCESS:          0  dtHIT:          0  dtMISS:          0
cpu0_L1I PREFETCH  REQUESTED:   30170185  ISSUED:   30168851  CROSSED:          0  USEFUL:    2187013  USELESS:     771963
cpu0_L1I AVERAGE iMISS LATENCY: 23.8878 cycles
cpu0_L1I AVERAGE dMISS LATENCY: 0 cycles
cpu0_L1I AVERAGE itMISS LATENCY: 0 cycles
cpu0_L1I AVERAGE dtMISS LATENCY: 0 cycles
cpu0_L1I PAGE CROSSINGS (TLB HIT):         0 
cpu0_L1I PAGE CROSSINGS (TLB MISS):         0 
cpu0_L1I AVERAGE MISS LATENCY: 23.8878 cycles
cpu0_ITLB TOTAL       ACCESS:   33002469  HIT:   30786407  MISS:    2216062  iACCESS:   33002469  iHIT:   30786407  iMISS:    2216062  dACCESS:          0  dHIT:          0  dMISS:          0  itACCESS:          0  itHIT:          0  itMISS:          0  dtACCESS:          0  dtHIT:          0  dtMISS:          0
cpu0_ITLB LOAD         ACCESS:   33002469  HIT:   30786407  MISS:    2216062  iACCESS:   33002469  iHIT:   30786407  iMISS:    2216062  dACCESS:          0  dHIT:          0  dMISS:          0  itACCESS:          0  itHIT:          0  itMISS:          0  dtACCESS:          0  dtHIT:          0  dtMISS:          0
cpu0_ITLB RFO          ACCESS:          0  HIT:          0  MISS:          0  iACCESS:          0  iHIT:          0  iMISS:          0  dACCESS:          0  dHIT:          0  dMISS:          0  itACCESS:          0  itHIT:          0  itMISS:          0  dtACCESS:          0  dtHIT:          0  dtMISS:          0
cpu0_ITLB PREFETCH     ACCESS:          0  HIT:          0  MISS:          0  iACCESS:          0  iHIT:          0  iMISS:          0  dACCESS:          0  dHIT:          0  dMISS:          0  itACCESS:          0  itHIT:          0  itMISS:          0  dtACCESS:          0  dtHIT:          0  dtMISS:          0
cpu0_ITLB WRITE        ACCESS:          0  HIT:          0  MISS:          0  iACCESS:          0  iHIT:          0  iMISS:          0  dACCESS:          0  dHIT:          0  dMISS:          0  itACCESS:          0  itHIT:          0  itMISS:          0  dtACCESS:          0  dtHIT:          0  dtMISS:          0
cpu0_ITLB TRANSLATION  ACCESS:          0  HIT:          0  MISS:          0  iACCESS:          0  iHIT:          0  iMISS:          0  dACCESS:          0  dHIT:          0  dMISS:          0  itACCESS:          0  itHIT:          0  itMISS:          0  dtACCESS:          0  dtHIT:          0  dtMISS:          0
cpu0_ITLB PREFETCH  REQUESTED:          0  ISSUED:          0  CROSSED:          0  USEFUL:     390961  USELESS:      79460
cpu0_ITLB AVERAGE iMISS LATENCY: 7.70686 cycles
cpu0_ITLB AVERAGE dMISS LATENCY: 0 cycles
cpu0_ITLB AVERAGE itMISS LATENCY: 0 cycles
cpu0_ITLB AVERAGE dtMISS LATENCY: 0 cycles
cpu0_ITLB PAGE CROSSINGS (TLB HIT):         0 
cpu0_ITLB PAGE CROSSINGS (TLB MISS):         0 
cpu0_ITLB AVERAGE MISS LATENCY: 7.70686 cycles
cpu0_DTLB TOTAL       ACCESS:   29131794  HIT:   25579474  MISS:    3552320  iACCESS:          0  iHIT:          0  iMISS:          0  dACCESS:   29131794  dHIT:   25579474  dMISS:    3552320  itACCESS:          0  itHIT:          0  itMISS:          0  dtACCESS:          0  dtHIT:          0  dtMISS:          0
cpu0_DTLB LOAD         ACCESS:   29131794  HIT:   25579474  MISS:    3552320  iACCESS:          0  iHIT:          0  iMISS:          0  dACCESS:   29131794  dHIT:   25579474  dMISS:    3552320  itACCESS:          0  itHIT:          0  itMISS:          0  dtACCESS:          0  dtHIT:          0  dtMISS:          0
cpu0_DTLB RFO          ACCESS:          0  HIT:          0  MISS:          0  iACCESS:          0  iHIT:          0  iMISS:          0  dACCESS:          0  dHIT:          0  dMISS:          0  itACCESS:          0  itHIT:          0  itMISS:          0  dtACCESS:          0  dtHIT:          0  dtMISS:          0
cpu0_DTLB PREFETCH     ACCESS:          0  HIT:          0  MISS:          0  iACCESS:          0  iHIT:          0  iMISS:          0  dACCESS:          0  dHIT:          0  dMISS:          0  itACCESS:          0  itHIT:          0  itMISS:          0  dtACCESS:          0  dtHIT:          0  dtMISS:          0
cpu0_DTLB WRITE        ACCESS:          0  HIT:          0  MISS:          0  iACCESS:          0  iHIT:          0  iMISS:          0  dACCESS:          0  dHIT:          0  dMISS:          0  itACCESS:          0  itHIT:          0  itMISS:          0  dtACCESS:          0  dtHIT:          0  dtMISS:          0
cpu0_DTLB TRANSLATION  ACCESS:          0  HIT:          0  MISS:          0  iACCESS:          0  iHIT:          0  iMISS:          0  dACCESS:          0  dHIT:          0  dMISS:          0  itACCESS:          0  itHIT:          0  itMISS:          0  dtACCESS:          0  dtHIT:          0  dtMISS:          0
cpu0_DTLB PREFETCH  REQUESTED:          0  ISSUED:          0  CROSSED:          0  USEFUL:          0  USELESS:          0
cpu0_DTLB AVERAGE iMISS LATENCY: 0 cycles
cpu0_DTLB AVERAGE dMISS LATENCY: 17.389 cycles
cpu0_DTLB AVERAGE itMISS LATENCY: 0 cycles
cpu0_DTLB AVERAGE dtMISS LATENCY: 0 cycles
cpu0_DTLB PAGE CROSSINGS (TLB HIT):         0 
cpu0_DTLB PAGE CROSSINGS (TLB MISS):         0 
cpu0_DTLB AVERAGE MISS LATENCY: 17.389 cycles
cpu0_STLB TOTAL       ACCESS:    2557636  HIT:    2185551  MISS:     372085  iACCESS:     470438  iHIT:     360142  iMISS:     110296  dACCESS:    2087198  dHIT:    1825409  dMISS:     261789  itACCESS:          0  itHIT:          0  itMISS:          0  dtACCESS:          0  dtHIT:          0  dtMISS:          0
cpu0_STLB LOAD         ACCESS:    2557636  HIT:    2185551  MISS:     372085  iACCESS:     470438  iHIT:     360142  iMISS:     110296  dACCESS:    2087198  dHIT:    1825409  dMISS:     261789  itACCESS:          0  itHIT:          0  itMISS:          0  dtACCESS:          0  dtHIT:          0  dtMISS:          0
cpu0_STLB RFO          ACCESS:          0  HIT:          0  MISS:          0  iACCESS:          0  iHIT:          0  iMISS:          0  dACCESS:          0  dHIT:          0  dMISS:          0  itACCESS:          0  itHIT:          0  itMISS:          0  dtACCESS:          0  dtHIT:          0  dtMISS:          0
cpu0_STLB PREFETCH     ACCESS:          0  HIT:          0  MISS:          0  iACCESS:          0  iHIT:          0  iMISS:          0  dACCESS:          0  dHIT:          0  dMISS:          0  itACCESS:          0  itHIT:          0  itMISS:          0  dtACCESS:          0  dtHIT:          0  dtMISS:          0
cpu0_STLB WRITE        ACCESS:          0  HIT:          0  MISS:          0  iACCESS:          0  iHIT:          0  iMISS:          0  dACCESS:          0  dHIT:          0  dMISS:          0  itACCESS:          0  itHIT:          0  itMISS:          0  dtACCESS:          0  dtHIT:          0  dtMISS:          0
cpu0_STLB TRANSLATION  ACCESS:          0  HIT:          0  MISS:          0  iACCESS:          0  iHIT:          0  iMISS:          0  dACCESS:          0  dHIT:          0  dMISS:          0  itACCESS:          0  itHIT:          0  itMISS:          0  dtACCESS:          0  dtHIT:          0  dtMISS:          0
cpu0_STLB PREFETCH  REQUESTED:          0  ISSUED:          0  CROSSED:          0  USEFUL:          0  USELESS:          0
cpu0_STLB AVERAGE iMISS LATENCY: 35.8153 cycles
cpu0_STLB AVERAGE dMISS LATENCY: 120.935 cycles
cpu0_STLB AVERAGE itMISS LATENCY: 0 cycles
cpu0_STLB AVERAGE dtMISS LATENCY: 0 cycles
cpu0_STLB PAGE CROSSINGS (TLB HIT):         0 
cpu0_STLB PAGE CROSSINGS (TLB MISS):         0 
cpu0_STLB AVERAGE MISS LATENCY: 156.75 cycles
cpu0_L1D TOTAL       ACCESS:   45063778  HIT:   39545697  MISS:    5518081  iACCESS:          0  iHIT:          0  iMISS:          0  dACCESS:   44524167  dHIT:   39510811  dMISS:    5013356  itACCESS:     123877  itHIT:      14401  itMISS:     109476  dtACCESS:     415734  dtHIT:      20485  dtMISS:     395249
cpu0_L1D LOAD         ACCESS:   20407909  HIT:   18149937  MISS:    2257972  iACCESS:          0  iHIT:          0  iMISS:          0  dACCESS:   20407909  dHIT:   18149937  dMISS:    2257972  itACCESS:          0  itHIT:          0  itMISS:          0  dtACCESS:          0  dtHIT:          0  dtMISS:          0
cpu0_L1D RFO          ACCESS:          0  HIT:          0  MISS:          0  iACCESS:          0  iHIT:          0  iMISS:          0  dACCESS:          0  dHIT:          0  dMISS:          0  itACCESS:          0  itHIT:          0  itMISS:          0  dtACCESS:          0  dtHIT:          0  dtMISS:          0
cpu0_L1D PREFETCH     ACCESS:   14009493  HIT:   11828257  MISS:    2181236  iACCESS:          0  iHIT:          0  iMISS:          0  dACCESS:   14009493  dHIT:   11828257  dMISS:    2181236  itACCESS:          0  itHIT:          0  itMISS:          0  dtACCESS:          0  dtHIT:          0  dtMISS:          0
cpu0_L1D WRITE        ACCESS:   10106765  HIT:    9532617  MISS:     574148  iACCESS:          0  iHIT:          0  iMISS:          0  dACCESS:   10106765  dHIT:    9532617  dMISS:     574148  itACCESS:          0  itHIT:          0  itMISS:          0  dtACCESS:          0  dtHIT:          0  dtMISS:          0
cpu0_L1D TRANSLATION  ACCESS:     539611  HIT:      34886  MISS:     504725  iACCESS:          0  iHIT:          0  iMISS:          0  dACCESS:          0  dHIT:          0  dMISS:          0  itACCESS:     123877  itHIT:      14401  itMISS:     109476  dtACCESS:     415734  dtHIT:      20485  dtMISS:     395249
cpu0_L1D PREFETCH  REQUESTED:   20407909  ISSUED:   18729587  CROSSED:          0  USEFUL:     377537  USELESS:     951703
cpu0_L1D AVERAGE iMISS LATENCY: 0 cycles
cpu0_L1D AVERAGE dMISS LATENCY: 52.1944 cycles
cpu0_L1D AVERAGE itMISS LATENCY: 2.22767 cycles
cpu0_L1D AVERAGE dtMISS LATENCY: 7.19804 cycles
cpu0_L1D PAGE CROSSINGS (TLB HIT):         0 
cpu0_L1D PAGE CROSSINGS (TLB MISS):         0 
cpu0_L1D AVERAGE MISS LATENCY: 61.6201 cycles
cpu0_L2C TOTAL       ACCESS:    8629603  HIT:    1489476  MISS:    7140127  iACCESS:    3763783  iHIT:     763843  iMISS:    2999940  dACCESS:    4384414  dHIT:     533619  dMISS:    3850795  itACCESS:     109155  itHIT:      38009  itMISS:      71146  dtACCESS:     372251  dtHIT:     154005  dtMISS:     218246
cpu0_L2C LOAD         ACCESS:    2077829  HIT:     200840  MISS:    1876989  iACCESS:     839397  iHIT:     103765  iMISS:     735632  dACCESS:    1238432  dHIT:      97075  dMISS:    1141357  itACCESS:          0  itHIT:          0  itMISS:          0  dtACCESS:          0  dtHIT:          0  dtMISS:          0
cpu0_L2C RFO          ACCESS:     218906  HIT:      27599  MISS:     191307  iACCESS:          0  iHIT:          0  iMISS:          0  dACCESS:     218906  dHIT:      27599  dMISS:     191307  itACCESS:          0  itHIT:          0  itMISS:          0  dtACCESS:          0  dtHIT:          0  dtMISS:          0
cpu0_L2C PREFETCH     ACCESS:    5502235  HIT:     964681  MISS:    4537554  iACCESS:    2924386  iHIT:     660078  iMISS:    2264308  dACCESS:    2577849  dHIT:     304603  dMISS:    2273246  itACCESS:          0  itHIT:          0  itMISS:          0  dtACCESS:          0  dtHIT:          0  dtMISS:          0
cpu0_L2C WRITE        ACCESS:     349227  HIT:     104342  MISS:     244885  iACCESS:          0  iHIT:          0  iMISS:          0  dACCESS:     349227  dHIT:     104342  dMISS:     244885  itACCESS:          0  itHIT:          0  itMISS:          0  dtACCESS:          0  dtHIT:          0  dtMISS:          0
cpu0_L2C TRANSLATION  ACCESS:     481406  HIT:     192014  MISS:     289392  iACCESS:          0  iHIT:          0  iMISS:          0  dACCESS:          0  dHIT:          0  dMISS:          0  itACCESS:     109155  itHIT:      38009  itMISS:      71146  dtACCESS:     372251  dtHIT:     154005  dtMISS:     218246
cpu0_L2C PREFETCH  REQUESTED:    1488561  ISSUED:    1488560  CROSSED:          0  USEFUL:     406011  USELESS:     486880
cpu0_L2C AVERAGE iMISS LATENCY: 26.0387 cycles
cpu0_L2C AVERAGE dMISS LATENCY: 49.3096 cycles
cpu0_L2C AVERAGE itMISS LATENCY: 1.57368 cycles
cpu0_L2C AVERAGE dtMISS LATENCY: 5.06066 cycles
cpu0_L2C PAGE CROSSINGS (TLB HIT):         0 
cpu0_L2C PAGE CROSSINGS (TLB MISS):         0 
cpu0_L2C AVERAGE MISS LATENCY: 81.9825 cycles
LLC TOTAL       ACCESS:    6969402  HIT:    4316978  MISS:    2652424  iACCESS:    2912201  iHIT:    2098141  iMISS:     814060  dACCESS:    3767809  dHIT:    2152498  dMISS:    1615311  itACCESS:      71146  itHIT:      16128  itMISS:      55018  dtACCESS:     218246  dtHIT:      50211  dtMISS:     168035
LLC LOAD         ACCESS:    1871214  HIT:    1221881  MISS:     649333  iACCESS:     734291  iHIT:     563698  iMISS:     170593  dACCESS:    1136923  dHIT:     658183  dMISS:     478740  itACCESS:          0  itHIT:          0  itMISS:          0  dtACCESS:          0  dtHIT:          0  dtMISS:          0
LLC RFO          ACCESS:     191274  HIT:     102990  MISS:      88284  iACCESS:          0  iHIT:          0  iMISS:          0  dACCESS:     191274  dHIT:     102990  dMISS:      88284  itACCESS:          0  itHIT:          0  itMISS:          0  dtACCESS:          0  dtHIT:          0  dtMISS:          0
LLC PREFETCH     ACCESS:    4337551  HIT:    2652262  MISS:    1685289  iACCESS:    2177910  iHIT:    1534443  iMISS:     643467  dACCESS:    2159641  dHIT:    1117819  dMISS:    1041822  itACCESS:          0  itHIT:          0  itMISS:          0  dtACCESS:          0  dtHIT:          0  dtMISS:          0
LLC WRITE        ACCESS:     279971  HIT:     273506  MISS:       6465  iACCESS:          0  iHIT:          0  iMISS:          0  dACCESS:     279971  dHIT:     273506  dMISS:       6465  itACCESS:          0  itHIT:          0  itMISS:          0  dtACCESS:          0  dtHIT:          0  dtMISS:          0
LLC TRANSLATION  ACCESS:     289392  HIT:      66339  MISS:     223053  iACCESS:          0  iHIT:          0  iMISS:          0  dACCESS:          0  dHIT:          0  dMISS:          0  itACCESS:      71146  itHIT:      16128  itMISS:      55018  dtACCESS:     218246  dtHIT:      50211  dtMISS:     168035
LLC PREFETCH  REQUESTED:          0  ISSUED:          0  CROSSED:          0  USEFUL:          0  USELESS:          0
LLC AVERAGE iMISS LATENCY: 48.7803 cycles
LLC AVERAGE dMISS LATENCY: 107.78 cycles
LLC AVERAGE itMISS LATENCY: 3.70764 cycles
LLC AVERAGE dtMISS LATENCY: 12.0021 cycles
LLC PAGE CROSSINGS (TLB HIT):         0 
LLC PAGE CROSSINGS (TLB MISS):         0 
LLC AVERAGE MISS LATENCY: 172.27 cycles

PageTableWalker TOTAL       ACCESS:     180876  
PageTableWalker AVERAGE LATENCY: 5.97262 cycles
PageTableWalker TOTAL LATENCY: 1080302 cycles

DRAM Statistics
Channel 0
 RQ ROW_BUFFER_HIT:     576575
  ROW_BUFFER_MISS:    2058043
 AVG DBUS CONGESTED CYCLE:    3.65012
 WQ ROW_BUFFER_HIT:      65620
  ROW_BUFFER_MISS:      62701  FULL:          0

