last_page:0x200000000000000
VMEM_RES_CAP:0x100000
PAGE_SIZE:4096
LOG2_PAGE_SIZE:12
LOG2_PAGE_TABLE_SIZE:9
page_table_levels:5
WARNING: physical memory size is smaller than virtual memory size
FDiP enabled with aggresivity 16

*** ChampSim Multicore Out-of-Order Simulator ***

Warmup Instructions: 50000000
Simulation Instructions: 100000000
Number of CPUs: 1
Small page size: 4096
Large page size: 2097152

CPU 0 Bimodal branch predictor
Basic BTB sets: 1024 ways: 8 indirect buffer size: 4096 RAS size: 64
Instruction page size distrubution: 0
Loading instruction page size distribution from /home/bsc/bsc018186/scratch/itp_asplos25_AE/dump/smt_srv540_ap_srv128_ap_1024i.pdst
Data page size distrubution: 0
Loading data page size distribution from /home/bsc/bsc018186/scratch/itp_asplos25_AE/dump/smt_srv540_ap_srv128_ap_1024i.pdst
cpu0_L2C IP-based stride prefetcher
cpu0_L1D next line prefetcher
CHiRPing...
cpu0_L1I next line prefetcher
Off-chip DRAM Size: 4 GiB Channels: 1 Width: 64-bit Data Rate: 3200 MT/s
Heartbeat CPU 0 instructions: 10000003 cycles: 2500349 heartbeat IPC: 3.99945 cumulative IPC: 3.99945 (Simulation time: 0 hr 0 min 43 sec) 
Heartbeat CPU 0 instructions: 20000003 cycles: 5081337 heartbeat IPC: 3.87449 cumulative IPC: 3.93598 (Simulation time: 0 hr 1 min 28 sec) 
Heartbeat CPU 0 instructions: 30000001 cycles: 7635441 heartbeat IPC: 3.91527 cumulative IPC: 3.92905 (Simulation time: 0 hr 2 min 16 sec) 
Heartbeat CPU 0 instructions: 40000001 cycles: 10178673 heartbeat IPC: 3.93201 cumulative IPC: 3.92979 (Simulation time: 0 hr 3 min 4 sec) 
Heartbeat CPU 0 instructions: 50000000 cycles: 12679066 heartbeat IPC: 3.99938 cumulative IPC: 3.94351 (Simulation time: 0 hr 3 min 50 sec) 
Warmup finished CPU 0 instructions: 50000000 cycles: 12679067 cumulative IPC: 3.94351 (Simulation time: 0 hr 3 min 50 sec) 

Warmup complete CPU 0 instructions: 50000000 cycles: 12679067 (Simulation time: 0 hr 3 min 50 sec) 

Heartbeat CPU 0 instructions: 60000000 cycles: 40786561 heartbeat IPC: 0.355777 cumulative IPC: 0.355778 (Simulation time: 0 hr 5 min 19 sec) 
Heartbeat CPU 0 instructions: 70000000 cycles: 67556720 heartbeat IPC: 0.373551 cumulative IPC: 0.364448 (Simulation time: 0 hr 6 min 46 sec) 
Heartbeat CPU 0 instructions: 80000002 cycles: 95965415 heartbeat IPC: 0.352005 cumulative IPC: 0.360204 (Simulation time: 0 hr 8 min 17 sec) 
Heartbeat CPU 0 instructions: 90000000 cycles: 122843152 heartbeat IPC: 0.372056 cumulative IPC: 0.363095 (Simulation time: 0 hr 9 min 45 sec) 
Heartbeat CPU 0 instructions: 100000001 cycles: 151596198 heartbeat IPC: 0.34779 cumulative IPC: 0.359927 (Simulation time: 0 hr 11 min 15 sec) 
Heartbeat CPU 0 instructions: 110000000 cycles: 178511164 heartbeat IPC: 0.371541 cumulative IPC: 0.361812 (Simulation time: 0 hr 12 min 39 sec) 
Heartbeat CPU 0 instructions: 120000000 cycles: 207014365 heartbeat IPC: 0.350838 cumulative IPC: 0.360203 (Simulation time: 0 hr 14 min 4 sec) 
Heartbeat CPU 0 instructions: 130000000 cycles: 234130455 heartbeat IPC: 0.368785 cumulative IPC: 0.361254 (Simulation time: 0 hr 15 min 29 sec) 
Heartbeat CPU 0 instructions: 140000002 cycles: 261574163 heartbeat IPC: 0.364383 cumulative IPC: 0.361599 (Simulation time: 0 hr 16 min 55 sec) 
Heartbeat CPU 0 instructions: 150000001 cycles: 289308945 heartbeat IPC: 0.360559 cumulative IPC: 0.361494 (Simulation time: 0 hr 18 min 24 sec) 
Simulation finished CPU 0 instructions: 100000001 cycles: 276629879 cumulative IPC: 0.361494 (Simulation time: 0 hr 18 min 24 sec) 

Simulation complete CPU 0 instructions: 100000001 cycles: 276629879 (Simulation time: 0 hr 18 min 24 sec) 


ChampSim completed all CPUs

Saving instructions large page distribution to /home/bsc/bsc018186/scratch/itp_asplos25_AE/dump/smt_srv540_ap_srv128_ap_1024i.pdst...
Saving data large page distribution to /home/bsc/bsc018186/scratch/itp_asplos25_AE/dump/smt_srv540_ap_srv128_ap_1024i.pdst...
=== Simulation ===
CPU 0 runs /gpfs/projects/bsc18/MN4/bsc18/romol/ChampSim/traces/qualcomm_srv/smt_srv540_ap_srv128_ap_1024i.champsimtrace.xz

Region of Interest Statistics

CPU 0 cumulative IPC: 0.361494 instructions: 100000001 cycles: 276629879
CPU 0 Branch Prediction Accuracy: 75.3878% MPKI: 44.4059 Average ROB Occupancy at Mispredict: 10.6048
Branch type MPKI
BRANCH_DIRECT_JUMP: 1.36176
BRANCH_INDIRECT: 22.9283
BRANCH_CONDITIONAL: 12.9503
BRANCH_DIRECT_CALL: 2.64178
BRANCH_INDIRECT_CALL: 1.01064
BRANCH_RETURN: 3.51324

Instructions large pages: 0
Instructions small pages: 9742
Large page distribution for instructions: 0%

Data large pages: 0
Data small pages: 8301
Large page distribution for data: 0%

cpu0_L1I TOTAL       ACCESS:   39425456  HIT:   30266945  MISS:    9158511  iACCESS:   39425456  iHIT:   30266945  iMISS:    9158511  dACCESS:          0  dHIT:          0  dMISS:          0  itACCESS:          0  itHIT:          0  itMISS:          0  dtACCESS:          0  dtHIT:          0  dtMISS:          0
cpu0_L1I LOAD         ACCESS:   11745154  HIT:    9259885  MISS:    2485269  iACCESS:   11745154  iHIT:    9259885  iMISS:    2485269  dACCESS:          0  dHIT:          0  dMISS:          0  itACCESS:          0  itHIT:          0  itMISS:          0  dtACCESS:          0  dtHIT:          0  dtMISS:          0
cpu0_L1I RFO          ACCESS:          0  HIT:          0  MISS:          0  iACCESS:          0  iHIT:          0  iMISS:          0  dACCESS:          0  dHIT:          0  dMISS:          0  itACCESS:          0  itHIT:          0  itMISS:          0  dtACCESS:          0  dtHIT:          0  dtMISS:          0
cpu0_L1I PREFETCH     ACCESS:   27680302  HIT:   21007060  MISS:    6673242  iACCESS:   27680302  iHIT:   21007060  iMISS:    6673242  dACCESS:          0  dHIT:          0  dMISS:          0  itACCESS:          0  itHIT:          0  itMISS:          0  dtACCESS:          0  dtHIT:          0  dtMISS:          0
cpu0_L1I WRITE        ACCESS:          0  HIT:          0  MISS:          0  iACCESS:          0  iHIT:          0  iMISS:          0  dACCESS:          0  dHIT:          0  dMISS:          0  itACCESS:          0  itHIT:          0  itMISS:          0  dtACCESS:          0  dtHIT:          0  dtMISS:          0
cpu0_L1I TRANSLATION  ACCESS:          0  HIT:          0  MISS:          0  iACCESS:          0  iHIT:          0  iMISS:          0  dACCESS:          0  dHIT:          0  dMISS:          0  itACCESS:          0  itHIT:          0  itMISS:          0  dtACCESS:          0  dtHIT:          0  dtMISS:          0
cpu0_L1I PREFETCH  REQUESTED:   30251737  ISSUED:   30250199  CROSSED:          0  USEFUL:    2193018  USELESS:     756374
cpu0_L1I AVERAGE iMISS LATENCY: 24.3034 cycles
cpu0_L1I AVERAGE dMISS LATENCY: 0 cycles
cpu0_L1I AVERAGE itMISS LATENCY: 0 cycles
cpu0_L1I AVERAGE dtMISS LATENCY: 0 cycles
cpu0_L1I PAGE CROSSINGS (TLB HIT):         0 
cpu0_L1I PAGE CROSSINGS (TLB MISS):         0 
cpu0_L1I AVERAGE MISS LATENCY: 24.3034 cycles
cpu0_ITLB TOTAL       ACCESS:   33147968  HIT:   30934234  MISS:    2213734  iACCESS:   33147968  iHIT:   30934234  iMISS:    2213734  dACCESS:          0  dHIT:          0  dMISS:          0  itACCESS:          0  itHIT:          0  itMISS:          0  dtACCESS:          0  dtHIT:          0  dtMISS:          0
cpu0_ITLB LOAD         ACCESS:   33147968  HIT:   30934234  MISS:    2213734  iACCESS:   33147968  iHIT:   30934234  iMISS:    2213734  dACCESS:          0  dHIT:          0  dMISS:          0  itACCESS:          0  itHIT:          0  itMISS:          0  dtACCESS:          0  dtHIT:          0  dtMISS:          0
cpu0_ITLB RFO          ACCESS:          0  HIT:          0  MISS:          0  iACCESS:          0  iHIT:          0  iMISS:          0  dACCESS:          0  dHIT:          0  dMISS:          0  itACCESS:          0  itHIT:          0  itMISS:          0  dtACCESS:          0  dtHIT:          0  dtMISS:          0
cpu0_ITLB PREFETCH     ACCESS:          0  HIT:          0  MISS:          0  iACCESS:          0  iHIT:          0  iMISS:          0  dACCESS:          0  dHIT:          0  dMISS:          0  itACCESS:          0  itHIT:          0  itMISS:          0  dtACCESS:          0  dtHIT:          0  dtMISS:          0
cpu0_ITLB WRITE        ACCESS:          0  HIT:          0  MISS:          0  iACCESS:          0  iHIT:          0  iMISS:          0  dACCESS:          0  dHIT:          0  dMISS:          0  itACCESS:          0  itHIT:          0  itMISS:          0  dtACCESS:          0  dtHIT:          0  dtMISS:          0
cpu0_ITLB TRANSLATION  ACCESS:          0  HIT:          0  MISS:          0  iACCESS:          0  iHIT:          0  iMISS:          0  dACCESS:          0  dHIT:          0  dMISS:          0  itACCESS:          0  itHIT:          0  itMISS:          0  dtACCESS:          0  dtHIT:          0  dtMISS:          0
cpu0_ITLB PREFETCH  REQUESTED:          0  ISSUED:          0  CROSSED:          0  USEFUL:     386395  USELESS:      78854
cpu0_ITLB AVERAGE iMISS LATENCY: 8.07511 cycles
cpu0_ITLB AVERAGE dMISS LATENCY: 0 cycles
cpu0_ITLB AVERAGE itMISS LATENCY: 0 cycles
cpu0_ITLB AVERAGE dtMISS LATENCY: 0 cycles
cpu0_ITLB PAGE CROSSINGS (TLB HIT):         0 
cpu0_ITLB PAGE CROSSINGS (TLB MISS):         0 
cpu0_ITLB AVERAGE MISS LATENCY: 8.07511 cycles
cpu0_DTLB TOTAL       ACCESS:   28856567  HIT:   25259505  MISS:    3597062  iACCESS:          0  iHIT:          0  iMISS:          0  dACCESS:   28856567  dHIT:   25259505  dMISS:    3597062  itACCESS:          0  itHIT:          0  itMISS:          0  dtACCESS:          0  dtHIT:          0  dtMISS:          0
cpu0_DTLB LOAD         ACCESS:   28856567  HIT:   25259505  MISS:    3597062  iACCESS:          0  iHIT:          0  iMISS:          0  dACCESS:   28856567  dHIT:   25259505  dMISS:    3597062  itACCESS:          0  itHIT:          0  itMISS:          0  dtACCESS:          0  dtHIT:          0  dtMISS:          0
cpu0_DTLB RFO          ACCESS:          0  HIT:          0  MISS:          0  iACCESS:          0  iHIT:          0  iMISS:          0  dACCESS:          0  dHIT:          0  dMISS:          0  itACCESS:          0  itHIT:          0  itMISS:          0  dtACCESS:          0  dtHIT:          0  dtMISS:          0
cpu0_DTLB PREFETCH     ACCESS:          0  HIT:          0  MISS:          0  iACCESS:          0  iHIT:          0  iMISS:          0  dACCESS:          0  dHIT:          0  dMISS:          0  itACCESS:          0  itHIT:          0  itMISS:          0  dtACCESS:          0  dtHIT:          0  dtMISS:          0
cpu0_DTLB WRITE        ACCESS:          0  HIT:          0  MISS:          0  iACCESS:          0  iHIT:          0  iMISS:          0  dACCESS:          0  dHIT:          0  dMISS:          0  itACCESS:          0  itHIT:          0  itMISS:          0  dtACCESS:          0  dtHIT:          0  dtMISS:          0
cpu0_DTLB TRANSLATION  ACCESS:          0  HIT:          0  MISS:          0  iACCESS:          0  iHIT:          0  iMISS:          0  dACCESS:          0  dHIT:          0  dMISS:          0  itACCESS:          0  itHIT:          0  itMISS:          0  dtACCESS:          0  dtHIT:          0  dtMISS:          0
cpu0_DTLB PREFETCH  REQUESTED:          0  ISSUED:          0  CROSSED:          0  USEFUL:          0  USELESS:          0
cpu0_DTLB AVERAGE iMISS LATENCY: 0 cycles
cpu0_DTLB AVERAGE dMISS LATENCY: 17.1186 cycles
cpu0_DTLB AVERAGE itMISS LATENCY: 0 cycles
cpu0_DTLB AVERAGE dtMISS LATENCY: 0 cycles
cpu0_DTLB PAGE CROSSINGS (TLB HIT):         0 
cpu0_DTLB PAGE CROSSINGS (TLB MISS):         0 
cpu0_DTLB AVERAGE MISS LATENCY: 17.1186 cycles
cpu0_STLB TOTAL       ACCESS:    2568749  HIT:    2189566  MISS:     379183  iACCESS:     465259  iHIT:     348765  iMISS:     116494  dACCESS:    2103490  dHIT:    1840801  dMISS:     262689  itACCESS:          0  itHIT:          0  itMISS:          0  dtACCESS:          0  dtHIT:          0  dtMISS:          0
cpu0_STLB LOAD         ACCESS:    2568749  HIT:    2189566  MISS:     379183  iACCESS:     465259  iHIT:     348765  iMISS:     116494  dACCESS:    2103490  dHIT:    1840801  dMISS:     262689  itACCESS:          0  itHIT:          0  itMISS:          0  dtACCESS:          0  dtHIT:          0  dtMISS:          0
cpu0_STLB RFO          ACCESS:          0  HIT:          0  MISS:          0  iACCESS:          0  iHIT:          0  iMISS:          0  dACCESS:          0  dHIT:          0  dMISS:          0  itACCESS:          0  itHIT:          0  itMISS:          0  dtACCESS:          0  dtHIT:          0  dtMISS:          0
cpu0_STLB PREFETCH     ACCESS:          0  HIT:          0  MISS:          0  iACCESS:          0  iHIT:          0  iMISS:          0  dACCESS:          0  dHIT:          0  dMISS:          0  itACCESS:          0  itHIT:          0  itMISS:          0  dtACCESS:          0  dtHIT:          0  dtMISS:          0
cpu0_STLB WRITE        ACCESS:          0  HIT:          0  MISS:          0  iACCESS:          0  iHIT:          0  iMISS:          0  dACCESS:          0  dHIT:          0  dMISS:          0  itACCESS:          0  itHIT:          0  itMISS:          0  dtACCESS:          0  dtHIT:          0  dtMISS:          0
cpu0_STLB TRANSLATION  ACCESS:          0  HIT:          0  MISS:          0  iACCESS:          0  iHIT:          0  iMISS:          0  dACCESS:          0  dHIT:          0  dMISS:          0  itACCESS:          0  itHIT:          0  itMISS:          0  dtACCESS:          0  dtHIT:          0  dtMISS:          0
cpu0_STLB PREFETCH  REQUESTED:          0  ISSUED:          0  CROSSED:          0  USEFUL:          0  USELESS:          0
cpu0_STLB AVERAGE iMISS LATENCY: 37.328 cycles
cpu0_STLB AVERAGE dMISS LATENCY: 117.802 cycles
cpu0_STLB AVERAGE itMISS LATENCY: 0 cycles
cpu0_STLB AVERAGE dtMISS LATENCY: 0 cycles
cpu0_STLB PAGE CROSSINGS (TLB HIT):         0 
cpu0_STLB PAGE CROSSINGS (TLB MISS):         0 
cpu0_STLB AVERAGE MISS LATENCY: 155.13 cycles
cpu0_L1D TOTAL       ACCESS:   44792759  HIT:   39079376  MISS:    5713383  iACCESS:          0  iHIT:          0  iMISS:          0  dACCESS:   44239898  dHIT:   39045597  dMISS:    5194301  itACCESS:     130066  itHIT:      14282  itMISS:     115784  dtACCESS:     422795  dtHIT:      19497  dtMISS:     403298
cpu0_L1D LOAD         ACCESS:   20199905  HIT:   17887088  MISS:    2312817  iACCESS:          0  iHIT:          0  iMISS:          0  dACCESS:   20199905  dHIT:   17887088  dMISS:    2312817  itACCESS:          0  itHIT:          0  itMISS:          0  dtACCESS:          0  dtHIT:          0  dtMISS:          0
cpu0_L1D RFO          ACCESS:          0  HIT:          0  MISS:          0  iACCESS:          0  iHIT:          0  iMISS:          0  dACCESS:          0  dHIT:          0  dMISS:          0  itACCESS:          0  itHIT:          0  itMISS:          0  dtACCESS:          0  dtHIT:          0  dtMISS:          0
cpu0_L1D PREFETCH     ACCESS:   13874812  HIT:   11579702  MISS:    2295110  iACCESS:          0  iHIT:          0  iMISS:          0  dACCESS:   13874812  dHIT:   11579702  dMISS:    2295110  itACCESS:          0  itHIT:          0  itMISS:          0  dtACCESS:          0  dtHIT:          0  dtMISS:          0
cpu0_L1D WRITE        ACCESS:   10165181  HIT:    9578807  MISS:     586374  iACCESS:          0  iHIT:          0  iMISS:          0  dACCESS:   10165181  dHIT:    9578807  dMISS:     586374  itACCESS:          0  itHIT:          0  itMISS:          0  dtACCESS:          0  dtHIT:          0  dtMISS:          0
cpu0_L1D TRANSLATION  ACCESS:     552861  HIT:      33779  MISS:     519082  iACCESS:          0  iHIT:          0  iMISS:          0  dACCESS:          0  dHIT:          0  dMISS:          0  itACCESS:     130066  itHIT:      14282  itMISS:     115784  dtACCESS:     422795  dtHIT:      19497  dtMISS:     403298
cpu0_L1D PREFETCH  REQUESTED:   20199905  ISSUED:   18425923  CROSSED:          0  USEFUL:     360306  USELESS:     926102
cpu0_L1D AVERAGE iMISS LATENCY: 0 cycles
cpu0_L1D AVERAGE dMISS LATENCY: 50.8162 cycles
cpu0_L1D AVERAGE itMISS LATENCY: 2.28722 cycles
cpu0_L1D AVERAGE dtMISS LATENCY: 7.05224 cycles
cpu0_L1D PAGE CROSSINGS (TLB HIT):         0 
cpu0_L1D PAGE CROSSINGS (TLB MISS):         0 
cpu0_L1D AVERAGE MISS LATENCY: 60.1556 cycles
cpu0_L2C TOTAL       ACCESS:    8576602  HIT:    1538170  MISS:    7038432  iACCESS:    3748667  iHIT:     789792  iMISS:    2958875  dACCESS:    4340057  dHIT:     555082  dMISS:    3784975  itACCESS:     115387  itHIT:      39577  itMISS:      75810  dtACCESS:     372491  dtHIT:     153719  dtMISS:     218772
cpu0_L2C LOAD         ACCESS:    2029546  HIT:     204730  MISS:    1824816  iACCESS:     835423  iHIT:     108456  iMISS:     726967  dACCESS:    1194123  dHIT:      96274  dMISS:    1097849  itACCESS:          0  itHIT:          0  itMISS:          0  dtACCESS:          0  dtHIT:          0  dtMISS:          0
cpu0_L2C RFO          ACCESS:     219792  HIT:      31926  MISS:     187866  iACCESS:          0  iHIT:          0  iMISS:          0  dACCESS:     219792  dHIT:      31926  dMISS:     187866  itACCESS:          0  itHIT:          0  itMISS:          0  dtACCESS:          0  dtHIT:          0  dtMISS:          0
cpu0_L2C PREFETCH     ACCESS:    5492689  HIT:    1002305  MISS:    4490384  iACCESS:    2913244  iHIT:     681336  iMISS:    2231908  dACCESS:    2579445  dHIT:     320969  dMISS:    2258476  itACCESS:          0  itHIT:          0  itMISS:          0  dtACCESS:          0  dtHIT:          0  dtMISS:          0
cpu0_L2C WRITE        ACCESS:     346697  HIT:     105913  MISS:     240784  iACCESS:          0  iHIT:          0  iMISS:          0  dACCESS:     346697  dHIT:     105913  dMISS:     240784  itACCESS:          0  itHIT:          0  itMISS:          0  dtACCESS:          0  dtHIT:          0  dtMISS:          0
cpu0_L2C TRANSLATION  ACCESS:     487878  HIT:     193296  MISS:     294582  iACCESS:          0  iHIT:          0  iMISS:          0  dACCESS:          0  dHIT:          0  dMISS:          0  itACCESS:     115387  itHIT:      39577  itMISS:      75810  dtACCESS:     372491  dtHIT:     153719  dtMISS:     218772
cpu0_L2C PREFETCH  REQUESTED:    1533847  ISSUED:    1533844  CROSSED:          0  USEFUL:     411433  USELESS:     486539
cpu0_L2C AVERAGE iMISS LATENCY: 27.0766 cycles
cpu0_L2C AVERAGE dMISS LATENCY: 50.9616 cycles
cpu0_L2C AVERAGE itMISS LATENCY: 1.69788 cycles
cpu0_L2C AVERAGE dtMISS LATENCY: 5.21493 cycles
cpu0_L2C PAGE CROSSINGS (TLB HIT):         0 
cpu0_L2C PAGE CROSSINGS (TLB MISS):         0 
cpu0_L2C AVERAGE MISS LATENCY: 84.9509 cycles
LLC TOTAL       ACCESS:    6840809  HIT:    4102843  MISS:    2737966  iACCESS:    2865869  iHIT:    2009745  iMISS:     856124  dACCESS:    3680358  dHIT:    2025903  dMISS:    1654455  itACCESS:      75810  itHIT:      17521  itMISS:      58289  dtACCESS:     218772  dtHIT:      49674  dtMISS:     169098
LLC LOAD         ACCESS:    1817541  HIT:    1159094  MISS:     658447  iACCESS:     725509  iHIT:     543581  iMISS:     181928  dACCESS:    1092032  dHIT:     615513  dMISS:     476519  itACCESS:          0  itHIT:          0  itMISS:          0  dtACCESS:          0  dtHIT:          0  dtMISS:          0
LLC RFO          ACCESS:     187836  HIT:      93858  MISS:      93978  iACCESS:          0  iHIT:          0  iMISS:          0  dACCESS:     187836  dHIT:      93858  dMISS:      93978  itACCESS:          0  itHIT:          0  itMISS:          0  dtACCESS:          0  dtHIT:          0  dtMISS:          0
LLC PREFETCH     ACCESS:    4271556  HIT:    2521338  MISS:    1750218  iACCESS:    2140360  iHIT:    1466164  iMISS:     674196  dACCESS:    2131196  dHIT:    1055174  dMISS:    1076022  itACCESS:          0  itHIT:          0  itMISS:          0  dtACCESS:          0  dtHIT:          0  dtMISS:          0
LLC WRITE        ACCESS:     269294  HIT:     261358  MISS:       7936  iACCESS:          0  iHIT:          0  iMISS:          0  dACCESS:     269294  dHIT:     261358  dMISS:       7936  itACCESS:          0  itHIT:          0  itMISS:          0  dtACCESS:          0  dtHIT:          0  dtMISS:          0
LLC TRANSLATION  ACCESS:     294582  HIT:      67195  MISS:     227387  iACCESS:          0  iHIT:          0  iMISS:          0  dACCESS:          0  dHIT:          0  dMISS:          0  itACCESS:      75810  itHIT:      17521  itMISS:      58289  dtACCESS:     218772  dtHIT:      49674  dtMISS:     169098
LLC PREFETCH  REQUESTED:          0  ISSUED:          0  CROSSED:          0  USEFUL:          0  USELESS:          0
LLC AVERAGE iMISS LATENCY: 49.2712 cycles
LLC AVERAGE dMISS LATENCY: 107.735 cycles
LLC AVERAGE itMISS LATENCY: 3.81918 cycles
LLC AVERAGE dtMISS LATENCY: 11.8321 cycles
LLC PAGE CROSSINGS (TLB HIT):         0 
LLC PAGE CROSSINGS (TLB MISS):         0 
LLC AVERAGE MISS LATENCY: 172.657 cycles

PageTableWalker TOTAL       ACCESS:     144118  
PageTableWalker AVERAGE LATENCY: 5.79965 cycles
PageTableWalker TOTAL LATENCY: 835833 cycles

DRAM Statistics
Channel 0
 RQ ROW_BUFFER_HIT:     596153
  ROW_BUFFER_MISS:    2115498
 AVG DBUS CONGESTED CYCLE:    3.65605
 WQ ROW_BUFFER_HIT:      65708
  ROW_BUFFER_MISS:      62442  FULL:          0

