last_page:0x200000000000000
VMEM_RES_CAP:0x100000
PAGE_SIZE:4096
LOG2_PAGE_SIZE:12
LOG2_PAGE_TABLE_SIZE:9
page_table_levels:5
WARNING: physical memory size is smaller than virtual memory size
FDiP enabled with aggresivity 16

*** ChampSim Multicore Out-of-Order Simulator ***

Warmup Instructions: 50000000
Simulation Instructions: 100000000
Number of CPUs: 1
Small page size: 4096
Large page size: 2097152

CPU 0 Bimodal branch predictor
Basic BTB sets: 1024 ways: 8 indirect buffer size: 4096 RAS size: 64
Instruction page size distrubution: 0
Loading instruction page size distribution from /home/bsc/bsc018186/scratch/itp_asplos25_AE/dump/smt_srv207_ap_srv194_ap_1024i.pdst
Data page size distrubution: 0
Loading data page size distribution from /home/bsc/bsc018186/scratch/itp_asplos25_AE/dump/smt_srv207_ap_srv194_ap_1024i.pdst
cpu0_L2C IP-based stride prefetcher
cpu0_L1D next line prefetcher
cpu0_STLB using iTP with max lru@8
cpu0_STLB using iTP with instr@0 and data@2
Init sat counter with 3 bits (max:50).
cpu0_L1I next line prefetcher
Off-chip DRAM Size: 4 GiB Channels: 1 Width: 64-bit Data Rate: 3200 MT/s
Heartbeat CPU 0 instructions: 10000001 cycles: 2500543 heartbeat IPC: 3.99914 cumulative IPC: 3.99914 (Simulation time: 0 hr 0 min 36 sec) 
Heartbeat CPU 0 instructions: 20000002 cycles: 5001103 heartbeat IPC: 3.99911 cumulative IPC: 3.99912 (Simulation time: 0 hr 1 min 14 sec) 
Heartbeat CPU 0 instructions: 30000002 cycles: 7501419 heartbeat IPC: 3.9995 cumulative IPC: 3.99925 (Simulation time: 0 hr 1 min 52 sec) 
Heartbeat CPU 0 instructions: 40000000 cycles: 10002285 heartbeat IPC: 3.99862 cumulative IPC: 3.99909 (Simulation time: 0 hr 2 min 31 sec) 
Heartbeat CPU 0 instructions: 50000002 cycles: 12579543 heartbeat IPC: 3.8801 cumulative IPC: 3.97471 (Simulation time: 0 hr 3 min 9 sec) 
Warmup finished CPU 0 instructions: 50000002 cycles: 12579544 cumulative IPC: 3.97471 (Simulation time: 0 hr 3 min 9 sec) 

Warmup complete CPU 0 instructions: 50000002 cycles: 12579544 (Simulation time: 0 hr 3 min 9 sec) 

Heartbeat CPU 0 instructions: 60000003 cycles: 29301385 heartbeat IPC: 0.598021 cumulative IPC: 0.598021 (Simulation time: 0 hr 4 min 17 sec) 
Heartbeat CPU 0 instructions: 70000002 cycles: 50151052 heartbeat IPC: 0.479624 cumulative IPC: 0.532319 (Simulation time: 0 hr 5 min 29 sec) 
Heartbeat CPU 0 instructions: 80000002 cycles: 80561016 heartbeat IPC: 0.32884 cumulative IPC: 0.441297 (Simulation time: 0 hr 6 min 52 sec) 
Heartbeat CPU 0 instructions: 90000000 cycles: 110935763 heartbeat IPC: 0.329221 cumulative IPC: 0.406685 (Simulation time: 0 hr 8 min 15 sec) 
Heartbeat CPU 0 instructions: 100000004 cycles: 140212122 heartbeat IPC: 0.341573 cumulative IPC: 0.39175 (Simulation time: 0 hr 9 min 37 sec) 
Heartbeat CPU 0 instructions: 110000000 cycles: 168931159 heartbeat IPC: 0.348201 cumulative IPC: 0.383751 (Simulation time: 0 hr 10 min 58 sec) 
Heartbeat CPU 0 instructions: 120000003 cycles: 198817656 heartbeat IPC: 0.3346 cumulative IPC: 0.375863 (Simulation time: 0 hr 12 min 20 sec) 
Heartbeat CPU 0 instructions: 130000000 cycles: 228683263 heartbeat IPC: 0.334834 cumulative IPC: 0.370193 (Simulation time: 0 hr 13 min 43 sec) 
Heartbeat CPU 0 instructions: 140000002 cycles: 260149385 heartbeat IPC: 0.317803 cumulative IPC: 0.363534 (Simulation time: 0 hr 15 min 7 sec) 
Heartbeat CPU 0 instructions: 150000000 cycles: 290119469 heartbeat IPC: 0.333666 cumulative IPC: 0.360309 (Simulation time: 0 hr 16 min 30 sec) 
Simulation finished CPU 0 instructions: 100000003 cycles: 277539927 cumulative IPC: 0.360309 (Simulation time: 0 hr 16 min 30 sec) 

Simulation complete CPU 0 instructions: 100000003 cycles: 277539927 (Simulation time: 0 hr 16 min 30 sec) 


ChampSim completed all CPUs

Saving instructions large page distribution to /home/bsc/bsc018186/scratch/itp_asplos25_AE/dump/smt_srv207_ap_srv194_ap_1024i.pdst...
Saving data large page distribution to /home/bsc/bsc018186/scratch/itp_asplos25_AE/dump/smt_srv207_ap_srv194_ap_1024i.pdst...
=== Simulation ===
CPU 0 runs /gpfs/projects/bsc18/MN4/bsc18/romol/ChampSim/traces/qualcomm_srv/smt_srv207_ap_srv194_ap_1024i.champsimtrace.xz

Region of Interest Statistics

CPU 0 cumulative IPC: 0.360309 instructions: 100000003 cycles: 277539927
CPU 0 Branch Prediction Accuracy: 76.7047% MPKI: 44.3035 Average ROB Occupancy at Mispredict: 10.8631
Branch type MPKI
BRANCH_DIRECT_JUMP: 1.35563
BRANCH_INDIRECT: 23.884
BRANCH_CONDITIONAL: 11.9395
BRANCH_DIRECT_CALL: 2.55225
BRANCH_INDIRECT_CALL: 1.1185
BRANCH_RETURN: 3.45359

Instructions large pages: 0
Instructions small pages: 12690
Large page distribution for instructions: 0%

Data large pages: 0
Data small pages: 10928
Large page distribution for data: 0%

cpu0_L1I TOTAL       ACCESS:   39876298  HIT:   31072047  MISS:    8804251  iACCESS:   39876298  iHIT:   31072047  iMISS:    8804251  dACCESS:          0  dHIT:          0  dMISS:          0  itACCESS:          0  itHIT:          0  itMISS:          0  dtACCESS:          0  dtHIT:          0  dtMISS:          0
cpu0_L1I LOAD         ACCESS:   11324633  HIT:    8915292  MISS:    2409341  iACCESS:   11324633  iHIT:    8915292  iMISS:    2409341  dACCESS:          0  dHIT:          0  dMISS:          0  itACCESS:          0  itHIT:          0  itMISS:          0  dtACCESS:          0  dtHIT:          0  dtMISS:          0
cpu0_L1I RFO          ACCESS:          0  HIT:          0  MISS:          0  iACCESS:          0  iHIT:          0  iMISS:          0  dACCESS:          0  dHIT:          0  dMISS:          0  itACCESS:          0  itHIT:          0  itMISS:          0  dtACCESS:          0  dtHIT:          0  dtMISS:          0
cpu0_L1I PREFETCH     ACCESS:   28551665  HIT:   22156755  MISS:    6394910  iACCESS:   28551665  iHIT:   22156755  iMISS:    6394910  dACCESS:          0  dHIT:          0  dMISS:          0  itACCESS:          0  itHIT:          0  itMISS:          0  dtACCESS:          0  dtHIT:          0  dtMISS:          0
cpu0_L1I WRITE        ACCESS:          0  HIT:          0  MISS:          0  iACCESS:          0  iHIT:          0  iMISS:          0  dACCESS:          0  dHIT:          0  dMISS:          0  itACCESS:          0  itHIT:          0  itMISS:          0  dtACCESS:          0  dtHIT:          0  dtMISS:          0
cpu0_L1I TRANSLATION  ACCESS:          0  HIT:          0  MISS:          0  iACCESS:          0  iHIT:          0  iMISS:          0  dACCESS:          0  dHIT:          0  dMISS:          0  itACCESS:          0  itHIT:          0  itMISS:          0  dtACCESS:          0  dtHIT:          0  dtMISS:          0
cpu0_L1I PREFETCH  REQUESTED:   30895003  ISSUED:   30893784  CROSSED:          0  USEFUL:    2077215  USELESS:     771207
cpu0_L1I AVERAGE iMISS LATENCY: 24.5916 cycles
cpu0_L1I AVERAGE dMISS LATENCY: 0 cycles
cpu0_L1I AVERAGE itMISS LATENCY: 0 cycles
cpu0_L1I AVERAGE dtMISS LATENCY: 0 cycles
cpu0_L1I PAGE CROSSINGS (TLB HIT):         0 
cpu0_L1I PAGE CROSSINGS (TLB MISS):         0 
cpu0_L1I AVERAGE MISS LATENCY: 24.5916 cycles
cpu0_ITLB TOTAL       ACCESS:   33575739  HIT:   31395165  MISS:    2180574  iACCESS:   33575739  iHIT:   31395165  iMISS:    2180574  dACCESS:          0  dHIT:          0  dMISS:          0  itACCESS:          0  itHIT:          0  itMISS:          0  dtACCESS:          0  dtHIT:          0  dtMISS:          0
cpu0_ITLB LOAD         ACCESS:   33575739  HIT:   31395165  MISS:    2180574  iACCESS:   33575739  iHIT:   31395165  iMISS:    2180574  dACCESS:          0  dHIT:          0  dMISS:          0  itACCESS:          0  itHIT:          0  itMISS:          0  dtACCESS:          0  dtHIT:          0  dtMISS:          0
cpu0_ITLB RFO          ACCESS:          0  HIT:          0  MISS:          0  iACCESS:          0  iHIT:          0  iMISS:          0  dACCESS:          0  dHIT:          0  dMISS:          0  itACCESS:          0  itHIT:          0  itMISS:          0  dtACCESS:          0  dtHIT:          0  dtMISS:          0
cpu0_ITLB PREFETCH     ACCESS:          0  HIT:          0  MISS:          0  iACCESS:          0  iHIT:          0  iMISS:          0  dACCESS:          0  dHIT:          0  dMISS:          0  itACCESS:          0  itHIT:          0  itMISS:          0  dtACCESS:          0  dtHIT:          0  dtMISS:          0
cpu0_ITLB WRITE        ACCESS:          0  HIT:          0  MISS:          0  iACCESS:          0  iHIT:          0  iMISS:          0  dACCESS:          0  dHIT:          0  dMISS:          0  itACCESS:          0  itHIT:          0  itMISS:          0  dtACCESS:          0  dtHIT:          0  dtMISS:          0
cpu0_ITLB TRANSLATION  ACCESS:          0  HIT:          0  MISS:          0  iACCESS:          0  iHIT:          0  iMISS:          0  dACCESS:          0  dHIT:          0  dMISS:          0  itACCESS:          0  itHIT:          0  itMISS:          0  dtACCESS:          0  dtHIT:          0  dtMISS:          0
cpu0_ITLB PREFETCH  REQUESTED:          0  ISSUED:          0  CROSSED:          0  USEFUL:     384741  USELESS:      83925
cpu0_ITLB AVERAGE iMISS LATENCY: 5.95873 cycles
cpu0_ITLB AVERAGE dMISS LATENCY: 0 cycles
cpu0_ITLB AVERAGE itMISS LATENCY: 0 cycles
cpu0_ITLB AVERAGE dtMISS LATENCY: 0 cycles
cpu0_ITLB PAGE CROSSINGS (TLB HIT):         0 
cpu0_ITLB PAGE CROSSINGS (TLB MISS):         0 
cpu0_ITLB AVERAGE MISS LATENCY: 5.95873 cycles
cpu0_DTLB TOTAL       ACCESS:   30670402  HIT:   25544479  MISS:    5125923  iACCESS:          0  iHIT:          0  iMISS:          0  dACCESS:   30670402  dHIT:   25544479  dMISS:    5125923  itACCESS:          0  itHIT:          0  itMISS:          0  dtACCESS:          0  dtHIT:          0  dtMISS:          0
cpu0_DTLB LOAD         ACCESS:   30670402  HIT:   25544479  MISS:    5125923  iACCESS:          0  iHIT:          0  iMISS:          0  dACCESS:   30670402  dHIT:   25544479  dMISS:    5125923  itACCESS:          0  itHIT:          0  itMISS:          0  dtACCESS:          0  dtHIT:          0  dtMISS:          0
cpu0_DTLB RFO          ACCESS:          0  HIT:          0  MISS:          0  iACCESS:          0  iHIT:          0  iMISS:          0  dACCESS:          0  dHIT:          0  dMISS:          0  itACCESS:          0  itHIT:          0  itMISS:          0  dtACCESS:          0  dtHIT:          0  dtMISS:          0
cpu0_DTLB PREFETCH     ACCESS:          0  HIT:          0  MISS:          0  iACCESS:          0  iHIT:          0  iMISS:          0  dACCESS:          0  dHIT:          0  dMISS:          0  itACCESS:          0  itHIT:          0  itMISS:          0  dtACCESS:          0  dtHIT:          0  dtMISS:          0
cpu0_DTLB WRITE        ACCESS:          0  HIT:          0  MISS:          0  iACCESS:          0  iHIT:          0  iMISS:          0  dACCESS:          0  dHIT:          0  dMISS:          0  itACCESS:          0  itHIT:          0  itMISS:          0  dtACCESS:          0  dtHIT:          0  dtMISS:          0
cpu0_DTLB TRANSLATION  ACCESS:          0  HIT:          0  MISS:          0  iACCESS:          0  iHIT:          0  iMISS:          0  dACCESS:          0  dHIT:          0  dMISS:          0  itACCESS:          0  itHIT:          0  itMISS:          0  dtACCESS:          0  dtHIT:          0  dtMISS:          0
cpu0_DTLB PREFETCH  REQUESTED:          0  ISSUED:          0  CROSSED:          0  USEFUL:          0  USELESS:          0
cpu0_DTLB AVERAGE iMISS LATENCY: 0 cycles
cpu0_DTLB AVERAGE dMISS LATENCY: 14.3603 cycles
cpu0_DTLB AVERAGE itMISS LATENCY: 0 cycles
cpu0_DTLB AVERAGE dtMISS LATENCY: 0 cycles
cpu0_DTLB PAGE CROSSINGS (TLB HIT):         0 
cpu0_DTLB PAGE CROSSINGS (TLB MISS):         0 
cpu0_DTLB AVERAGE MISS LATENCY: 14.3603 cycles
cpu0_STLB TOTAL       ACCESS:    3302249  HIT:    2947288  MISS:     354961  iACCESS:     468670  iHIT:     408618  iMISS:      60052  dACCESS:    2833579  dHIT:    2538670  dMISS:     294909  itACCESS:          0  itHIT:          0  itMISS:          0  dtACCESS:          0  dtHIT:          0  dtMISS:          0
cpu0_STLB LOAD         ACCESS:    3302249  HIT:    2947288  MISS:     354961  iACCESS:     468670  iHIT:     408618  iMISS:      60052  dACCESS:    2833579  dHIT:    2538670  dMISS:     294909  itACCESS:          0  itHIT:          0  itMISS:          0  dtACCESS:          0  dtHIT:          0  dtMISS:          0
cpu0_STLB RFO          ACCESS:          0  HIT:          0  MISS:          0  iACCESS:          0  iHIT:          0  iMISS:          0  dACCESS:          0  dHIT:          0  dMISS:          0  itACCESS:          0  itHIT:          0  itMISS:          0  dtACCESS:          0  dtHIT:          0  dtMISS:          0
cpu0_STLB PREFETCH     ACCESS:          0  HIT:          0  MISS:          0  iACCESS:          0  iHIT:          0  iMISS:          0  dACCESS:          0  dHIT:          0  dMISS:          0  itACCESS:          0  itHIT:          0  itMISS:          0  dtACCESS:          0  dtHIT:          0  dtMISS:          0
cpu0_STLB WRITE        ACCESS:          0  HIT:          0  MISS:          0  iACCESS:          0  iHIT:          0  iMISS:          0  dACCESS:          0  dHIT:          0  dMISS:          0  itACCESS:          0  itHIT:          0  itMISS:          0  dtACCESS:          0  dtHIT:          0  dtMISS:          0
cpu0_STLB TRANSLATION  ACCESS:          0  HIT:          0  MISS:          0  iACCESS:          0  iHIT:          0  iMISS:          0  dACCESS:          0  dHIT:          0  dMISS:          0  itACCESS:          0  itHIT:          0  itMISS:          0  dtACCESS:          0  dtHIT:          0  dtMISS:          0
cpu0_STLB PREFETCH  REQUESTED:          0  ISSUED:          0  CROSSED:          0  USEFUL:          0  USELESS:          0
cpu0_STLB AVERAGE iMISS LATENCY: 26.2203 cycles
cpu0_STLB AVERAGE dMISS LATENCY: 142.75 cycles
cpu0_STLB AVERAGE itMISS LATENCY: 0 cycles
cpu0_STLB AVERAGE dtMISS LATENCY: 0 cycles
cpu0_STLB PAGE CROSSINGS (TLB HIT):         0 
cpu0_STLB PAGE CROSSINGS (TLB MISS):         0 
cpu0_STLB AVERAGE MISS LATENCY: 168.97 cycles
cpu0_L1D TOTAL       ACCESS:   48794102  HIT:   40171141  MISS:    8622961  iACCESS:          0  iHIT:          0  iMISS:          0  dACCESS:   48255889  dHIT:   40144406  dMISS:    8111483  itACCESS:      70900  itHIT:       5297  itMISS:      65603  dtACCESS:     467313  dtHIT:      21438  dtMISS:     445875
cpu0_L1D LOAD         ACCESS:   22848034  HIT:   18540018  MISS:    4308016  iACCESS:          0  iHIT:          0  iMISS:          0  dACCESS:   22848034  dHIT:   18540018  dMISS:    4308016  itACCESS:          0  itHIT:          0  itMISS:          0  dtACCESS:          0  dtHIT:          0  dtMISS:          0
cpu0_L1D RFO          ACCESS:          0  HIT:          0  MISS:          0  iACCESS:          0  iHIT:          0  iMISS:          0  dACCESS:          0  dHIT:          0  dMISS:          0  itACCESS:          0  itHIT:          0  itMISS:          0  dtACCESS:          0  dtHIT:          0  dtMISS:          0
cpu0_L1D PREFETCH     ACCESS:   15371389  HIT:   12221796  MISS:    3149593  iACCESS:          0  iHIT:          0  iMISS:          0  dACCESS:   15371389  dHIT:   12221796  dMISS:    3149593  itACCESS:          0  itHIT:          0  itMISS:          0  dtACCESS:          0  dtHIT:          0  dtMISS:          0
cpu0_L1D WRITE        ACCESS:   10036466  HIT:    9382592  MISS:     653874  iACCESS:          0  iHIT:          0  iMISS:          0  dACCESS:   10036466  dHIT:    9382592  dMISS:     653874  itACCESS:          0  itHIT:          0  itMISS:          0  dtACCESS:          0  dtHIT:          0  dtMISS:          0
cpu0_L1D TRANSLATION  ACCESS:     538213  HIT:      26735  MISS:     511478  iACCESS:          0  iHIT:          0  iMISS:          0  dACCESS:          0  dHIT:          0  dMISS:          0  itACCESS:      70900  itHIT:       5297  itMISS:      65603  dtACCESS:     467313  dtHIT:      21438  dtMISS:     445875
cpu0_L1D PREFETCH  REQUESTED:   22848034  ISSUED:   19250801  CROSSED:          0  USEFUL:     351222  USELESS:    1011849
cpu0_L1D AVERAGE iMISS LATENCY: 0 cycles
cpu0_L1D AVERAGE dMISS LATENCY: 37.0181 cycles
cpu0_L1D AVERAGE itMISS LATENCY: 1.00839 cycles
cpu0_L1D AVERAGE dtMISS LATENCY: 5.32358 cycles
cpu0_L1D PAGE CROSSINGS (TLB HIT):         0 
cpu0_L1D PAGE CROSSINGS (TLB MISS):         0 
cpu0_L1D AVERAGE MISS LATENCY: 43.3501 cycles
cpu0_L2C TOTAL       ACCESS:    9603531  HIT:    1964438  MISS:    7639093  iACCESS:    3640873  iHIT:     729872  iMISS:    2911001  dACCESS:    5481433  dHIT:    1058523  dMISS:    4422910  itACCESS:      65271  itHIT:      15329  itMISS:      49942  dtACCESS:     415954  dtHIT:     160714  dtMISS:     255240
cpu0_L2C LOAD         ACCESS:    3182477  HIT:     701584  MISS:    2480893  iACCESS:     820763  iHIT:     110007  iMISS:     710756  dACCESS:    2361714  dHIT:     591577  dMISS:    1770137  itACCESS:          0  itHIT:          0  itMISS:          0  dtACCESS:          0  dtHIT:          0  dtMISS:          0
cpu0_L2C RFO          ACCESS:     247891  HIT:      38945  MISS:     208946  iACCESS:          0  iHIT:          0  iMISS:          0  dACCESS:     247891  dHIT:      38945  dMISS:     208946  itACCESS:          0  itHIT:          0  itMISS:          0  dtACCESS:          0  dtHIT:          0  dtMISS:          0
cpu0_L2C PREFETCH     ACCESS:    5353316  HIT:     945781  MISS:    4407535  iACCESS:    2820110  iHIT:     619865  iMISS:    2200245  dACCESS:    2533206  dHIT:     325916  dMISS:    2207290  itACCESS:          0  itHIT:          0  itMISS:          0  dtACCESS:          0  dtHIT:          0  dtMISS:          0
cpu0_L2C WRITE        ACCESS:     338622  HIT:     102085  MISS:     236537  iACCESS:          0  iHIT:          0  iMISS:          0  dACCESS:     338622  dHIT:     102085  dMISS:     236537  itACCESS:          0  itHIT:          0  itMISS:          0  dtACCESS:          0  dtHIT:          0  dtMISS:          0
cpu0_L2C TRANSLATION  ACCESS:     481225  HIT:     176043  MISS:     305182  iACCESS:          0  iHIT:          0  iMISS:          0  dACCESS:          0  dHIT:          0  dMISS:          0  itACCESS:      65271  itHIT:      15329  itMISS:      49942  dtACCESS:     415954  dtHIT:     160714  dtMISS:     255240
cpu0_L2C PREFETCH  REQUESTED:    1381687  ISSUED:    1381686  CROSSED:          0  USEFUL:     358390  USELESS:     460776
cpu0_L2C AVERAGE iMISS LATENCY: 24.3302 cycles
cpu0_L2C AVERAGE dMISS LATENCY: 47.9066 cycles
cpu0_L2C AVERAGE itMISS LATENCY: 1.0546 cycles
cpu0_L2C AVERAGE dtMISS LATENCY: 5.48314 cycles
cpu0_L2C PAGE CROSSINGS (TLB HIT):         0 
cpu0_L2C PAGE CROSSINGS (TLB MISS):         0 
cpu0_L2C AVERAGE MISS LATENCY: 78.7744 cycles
LLC TOTAL       ACCESS:    7471996  HIT:    4813075  MISS:    2658921  iACCESS:    2835731  iHIT:    2017684  iMISS:     818047  dACCESS:    4331083  dHIT:    2721757  dMISS:    1609326  itACCESS:      49942  itHIT:      10020  itMISS:      39922  dtACCESS:     255240  dtHIT:      63614  dtMISS:     191626
LLC LOAD         ACCESS:    2472778  HIT:    1812470  MISS:     660308  iACCESS:     709521  iHIT:     538677  iMISS:     170844  dACCESS:    1763257  dHIT:    1273793  dMISS:     489464  itACCESS:          0  itHIT:          0  itMISS:          0  dtACCESS:          0  dtHIT:          0  dtMISS:          0
LLC RFO          ACCESS:     208919  HIT:     114209  MISS:      94710  iACCESS:          0  iHIT:          0  iMISS:          0  dACCESS:     208919  dHIT:     114209  dMISS:      94710  itACCESS:          0  itHIT:          0  itMISS:          0  dtACCESS:          0  dtHIT:          0  dtMISS:          0
LLC PREFETCH     ACCESS:    4220190  HIT:    2553693  MISS:    1666497  iACCESS:    2126210  iHIT:    1479007  iMISS:     647203  dACCESS:    2093980  dHIT:    1074686  dMISS:    1019294  itACCESS:          0  itHIT:          0  itMISS:          0  dtACCESS:          0  dtHIT:          0  dtMISS:          0
LLC WRITE        ACCESS:     264927  HIT:     259069  MISS:       5858  iACCESS:          0  iHIT:          0  iMISS:          0  dACCESS:     264927  dHIT:     259069  dMISS:       5858  itACCESS:          0  itHIT:          0  itMISS:          0  dtACCESS:          0  dtHIT:          0  dtMISS:          0
LLC TRANSLATION  ACCESS:     305182  HIT:      73634  MISS:     231548  iACCESS:          0  iHIT:          0  iMISS:          0  dACCESS:          0  dHIT:          0  dMISS:          0  itACCESS:      49942  itHIT:      10020  itMISS:      39922  dtACCESS:     255240  dtHIT:      63614  dtMISS:     191626
LLC PREFETCH  REQUESTED:          0  ISSUED:          0  CROSSED:          0  USEFUL:          0  USELESS:          0
LLC AVERAGE iMISS LATENCY: 49.1928 cycles
LLC AVERAGE dMISS LATENCY: 108.722 cycles
LLC AVERAGE itMISS LATENCY: 2.65928 cycles
LLC AVERAGE dtMISS LATENCY: 13.8636 cycles
LLC PAGE CROSSINGS (TLB HIT):         0 
LLC PAGE CROSSINGS (TLB MISS):         0 
LLC AVERAGE MISS LATENCY: 174.437 cycles

PageTableWalker TOTAL       ACCESS:     171037  
PageTableWalker AVERAGE LATENCY: 6.27641 cycles
PageTableWalker TOTAL LATENCY: 1073498 cycles

DRAM Statistics
Channel 0
 RQ ROW_BUFFER_HIT:     561449
  ROW_BUFFER_MISS:    2073448
 AVG DBUS CONGESTED CYCLE:    3.65493
 WQ ROW_BUFFER_HIT:      64644
  ROW_BUFFER_MISS:      63943  FULL:          0

