last_page:0x200000000000000
VMEM_RES_CAP:0x100000
PAGE_SIZE:4096
LOG2_PAGE_SIZE:12
LOG2_PAGE_TABLE_SIZE:9
page_table_levels:5
WARNING: physical memory size is smaller than virtual memory size
FDiP enabled with aggresivity 16

*** ChampSim Multicore Out-of-Order Simulator ***

Warmup Instructions: 50000000
Simulation Instructions: 100000000
Number of CPUs: 1
Small page size: 4096
Large page size: 2097152

CPU 0 Bimodal branch predictor
Basic BTB sets: 1024 ways: 8 indirect buffer size: 4096 RAS size: 64
Instruction page size distrubution: 0
Loading instruction page size distribution from /home/bsc/bsc018186/scratch/itp_asplos25_AE/dump/smt_srv537_ap_srv442_ap_1024i.pdst
Data page size distrubution: 0
Loading data page size distribution from /home/bsc/bsc018186/scratch/itp_asplos25_AE/dump/smt_srv537_ap_srv442_ap_1024i.pdst
cpu0_L2C IP-based stride prefetcher
cpu0_L1D next line prefetcher
cpu0_STLB using iTP with max lru@8
cpu0_STLB using iTP with instr@0 and data@2
Init sat counter with 3 bits (max:50).
cpu0_L1I next line prefetcher
Off-chip DRAM Size: 4 GiB Channels: 1 Width: 64-bit Data Rate: 3200 MT/s
Heartbeat CPU 0 instructions: 10000001 cycles: 2500522 heartbeat IPC: 3.99917 cumulative IPC: 3.99917 (Simulation time: 0 hr 0 min 38 sec) 
Heartbeat CPU 0 instructions: 20000002 cycles: 5000681 heartbeat IPC: 3.99975 cumulative IPC: 3.99946 (Simulation time: 0 hr 1 min 17 sec) 
Heartbeat CPU 0 instructions: 30000001 cycles: 7500731 heartbeat IPC: 3.99992 cumulative IPC: 3.99962 (Simulation time: 0 hr 1 min 55 sec) 
Heartbeat CPU 0 instructions: 40000003 cycles: 10000794 heartbeat IPC: 3.99991 cumulative IPC: 3.99969 (Simulation time: 0 hr 2 min 34 sec) 
Heartbeat CPU 0 instructions: 50000003 cycles: 12500903 heartbeat IPC: 3.99983 cumulative IPC: 3.99972 (Simulation time: 0 hr 3 min 12 sec) 
Warmup finished CPU 0 instructions: 50000003 cycles: 12500904 cumulative IPC: 3.99972 (Simulation time: 0 hr 3 min 12 sec) 

Warmup complete CPU 0 instructions: 50000003 cycles: 12500904 (Simulation time: 0 hr 3 min 12 sec) 

Heartbeat CPU 0 instructions: 60000000 cycles: 38838164 heartbeat IPC: 0.379691 cumulative IPC: 0.379691 (Simulation time: 0 hr 4 min 30 sec) 
Heartbeat CPU 0 instructions: 70000004 cycles: 65049136 heartbeat IPC: 0.38152 cumulative IPC: 0.380603 (Simulation time: 0 hr 5 min 47 sec) 
Heartbeat CPU 0 instructions: 80000003 cycles: 90421801 heartbeat IPC: 0.394125 cumulative IPC: 0.385006 (Simulation time: 0 hr 7 min 3 sec) 
Heartbeat CPU 0 instructions: 90000000 cycles: 116234433 heartbeat IPC: 0.387408 cumulative IPC: 0.385604 (Simulation time: 0 hr 8 min 20 sec) 
Heartbeat CPU 0 instructions: 100000003 cycles: 142496502 heartbeat IPC: 0.380778 cumulative IPC: 0.384629 (Simulation time: 0 hr 9 min 38 sec) 
Heartbeat CPU 0 instructions: 110000003 cycles: 169120017 heartbeat IPC: 0.375608 cumulative IPC: 0.383096 (Simulation time: 0 hr 10 min 56 sec) 
Heartbeat CPU 0 instructions: 120000002 cycles: 195661561 heartbeat IPC: 0.376768 cumulative IPC: 0.382179 (Simulation time: 0 hr 12 min 13 sec) 
Heartbeat CPU 0 instructions: 130000002 cycles: 221553812 heartbeat IPC: 0.386216 cumulative IPC: 0.382679 (Simulation time: 0 hr 13 min 30 sec) 
Heartbeat CPU 0 instructions: 140000002 cycles: 247376229 heartbeat IPC: 0.387261 cumulative IPC: 0.383183 (Simulation time: 0 hr 14 min 47 sec) 
Heartbeat CPU 0 instructions: 150000002 cycles: 273831919 heartbeat IPC: 0.377991 cumulative IPC: 0.382657 (Simulation time: 0 hr 16 min 4 sec) 
Simulation finished CPU 0 instructions: 100000004 cycles: 261331017 cumulative IPC: 0.382657 (Simulation time: 0 hr 16 min 4 sec) 

Simulation complete CPU 0 instructions: 100000004 cycles: 261331017 (Simulation time: 0 hr 16 min 4 sec) 


ChampSim completed all CPUs

Saving instructions large page distribution to /home/bsc/bsc018186/scratch/itp_asplos25_AE/dump/smt_srv537_ap_srv442_ap_1024i.pdst...
Saving data large page distribution to /home/bsc/bsc018186/scratch/itp_asplos25_AE/dump/smt_srv537_ap_srv442_ap_1024i.pdst...
=== Simulation ===
CPU 0 runs /gpfs/projects/bsc18/MN4/bsc18/romol/ChampSim/traces/qualcomm_srv/smt_srv537_ap_srv442_ap_1024i.champsimtrace.xz

Region of Interest Statistics

CPU 0 cumulative IPC: 0.382657 instructions: 100000004 cycles: 261331017
CPU 0 Branch Prediction Accuracy: 76.4472% MPKI: 42.5537 Average ROB Occupancy at Mispredict: 11.0538
Branch type MPKI
BRANCH_DIRECT_JUMP: 1.30472
BRANCH_INDIRECT: 22.7349
BRANCH_CONDITIONAL: 11.6924
BRANCH_DIRECT_CALL: 2.42252
BRANCH_INDIRECT_CALL: 1.00609
BRANCH_RETURN: 3.39313

Instructions large pages: 0
Instructions small pages: 10371
Large page distribution for instructions: 0%

Data large pages: 0
Data small pages: 9181
Large page distribution for data: 0%

cpu0_L1I TOTAL       ACCESS:   39395837  HIT:   29983736  MISS:    9412101  iACCESS:   39395837  iHIT:   29983736  iMISS:    9412101  dACCESS:          0  dHIT:          0  dMISS:          0  itACCESS:          0  itHIT:          0  itMISS:          0  dtACCESS:          0  dtHIT:          0  dtMISS:          0
cpu0_L1I LOAD         ACCESS:   11811737  HIT:    9226993  MISS:    2584744  iACCESS:   11811737  iHIT:    9226993  iMISS:    2584744  dACCESS:          0  dHIT:          0  dMISS:          0  itACCESS:          0  itHIT:          0  itMISS:          0  dtACCESS:          0  dtHIT:          0  dtMISS:          0
cpu0_L1I RFO          ACCESS:          0  HIT:          0  MISS:          0  iACCESS:          0  iHIT:          0  iMISS:          0  dACCESS:          0  dHIT:          0  dMISS:          0  itACCESS:          0  itHIT:          0  itMISS:          0  dtACCESS:          0  dtHIT:          0  dtMISS:          0
cpu0_L1I PREFETCH     ACCESS:   27584100  HIT:   20756743  MISS:    6827357  iACCESS:   27584100  iHIT:   20756743  iMISS:    6827357  dACCESS:          0  dHIT:          0  dMISS:          0  itACCESS:          0  itHIT:          0  itMISS:          0  dtACCESS:          0  dtHIT:          0  dtMISS:          0
cpu0_L1I WRITE        ACCESS:          0  HIT:          0  MISS:          0  iACCESS:          0  iHIT:          0  iMISS:          0  dACCESS:          0  dHIT:          0  dMISS:          0  itACCESS:          0  itHIT:          0  itMISS:          0  dtACCESS:          0  dtHIT:          0  dtMISS:          0
cpu0_L1I TRANSLATION  ACCESS:          0  HIT:          0  MISS:          0  iACCESS:          0  iHIT:          0  iMISS:          0  dACCESS:          0  dHIT:          0  dMISS:          0  itACCESS:          0  itHIT:          0  itMISS:          0  dtACCESS:          0  dtHIT:          0  dtMISS:          0
cpu0_L1I PREFETCH  REQUESTED:   30247184  ISSUED:   30245798  CROSSED:          0  USEFUL:    2235768  USELESS:     777515
cpu0_L1I AVERAGE iMISS LATENCY: 21.2335 cycles
cpu0_L1I AVERAGE dMISS LATENCY: 0 cycles
cpu0_L1I AVERAGE itMISS LATENCY: 0 cycles
cpu0_L1I AVERAGE dtMISS LATENCY: 0 cycles
cpu0_L1I PAGE CROSSINGS (TLB HIT):         0 
cpu0_L1I PAGE CROSSINGS (TLB MISS):         0 
cpu0_L1I AVERAGE MISS LATENCY: 21.2335 cycles
cpu0_ITLB TOTAL       ACCESS:   33040647  HIT:   30739641  MISS:    2301006  iACCESS:   33040647  iHIT:   30739641  iMISS:    2301006  dACCESS:          0  dHIT:          0  dMISS:          0  itACCESS:          0  itHIT:          0  itMISS:          0  dtACCESS:          0  dtHIT:          0  dtMISS:          0
cpu0_ITLB LOAD         ACCESS:   33040647  HIT:   30739641  MISS:    2301006  iACCESS:   33040647  iHIT:   30739641  iMISS:    2301006  dACCESS:          0  dHIT:          0  dMISS:          0  itACCESS:          0  itHIT:          0  itMISS:          0  dtACCESS:          0  dtHIT:          0  dtMISS:          0
cpu0_ITLB RFO          ACCESS:          0  HIT:          0  MISS:          0  iACCESS:          0  iHIT:          0  iMISS:          0  dACCESS:          0  dHIT:          0  dMISS:          0  itACCESS:          0  itHIT:          0  itMISS:          0  dtACCESS:          0  dtHIT:          0  dtMISS:          0
cpu0_ITLB PREFETCH     ACCESS:          0  HIT:          0  MISS:          0  iACCESS:          0  iHIT:          0  iMISS:          0  dACCESS:          0  dHIT:          0  dMISS:          0  itACCESS:          0  itHIT:          0  itMISS:          0  dtACCESS:          0  dtHIT:          0  dtMISS:          0
cpu0_ITLB WRITE        ACCESS:          0  HIT:          0  MISS:          0  iACCESS:          0  iHIT:          0  iMISS:          0  dACCESS:          0  dHIT:          0  dMISS:          0  itACCESS:          0  itHIT:          0  itMISS:          0  dtACCESS:          0  dtHIT:          0  dtMISS:          0
cpu0_ITLB TRANSLATION  ACCESS:          0  HIT:          0  MISS:          0  iACCESS:          0  iHIT:          0  iMISS:          0  dACCESS:          0  dHIT:          0  dMISS:          0  itACCESS:          0  itHIT:          0  itMISS:          0  dtACCESS:          0  dtHIT:          0  dtMISS:          0
cpu0_ITLB PREFETCH  REQUESTED:          0  ISSUED:          0  CROSSED:          0  USEFUL:     392577  USELESS:      83942
cpu0_ITLB AVERAGE iMISS LATENCY: 4.65685 cycles
cpu0_ITLB AVERAGE dMISS LATENCY: 0 cycles
cpu0_ITLB AVERAGE itMISS LATENCY: 0 cycles
cpu0_ITLB AVERAGE dtMISS LATENCY: 0 cycles
cpu0_ITLB PAGE CROSSINGS (TLB HIT):         0 
cpu0_ITLB PAGE CROSSINGS (TLB MISS):         0 
cpu0_ITLB AVERAGE MISS LATENCY: 4.65685 cycles
cpu0_DTLB TOTAL       ACCESS:   28844915  HIT:   25419857  MISS:    3425058  iACCESS:          0  iHIT:          0  iMISS:          0  dACCESS:   28844915  dHIT:   25419857  dMISS:    3425058  itACCESS:          0  itHIT:          0  itMISS:          0  dtACCESS:          0  dtHIT:          0  dtMISS:          0
cpu0_DTLB LOAD         ACCESS:   28844915  HIT:   25419857  MISS:    3425058  iACCESS:          0  iHIT:          0  iMISS:          0  dACCESS:   28844915  dHIT:   25419857  dMISS:    3425058  itACCESS:          0  itHIT:          0  itMISS:          0  dtACCESS:          0  dtHIT:          0  dtMISS:          0
cpu0_DTLB RFO          ACCESS:          0  HIT:          0  MISS:          0  iACCESS:          0  iHIT:          0  iMISS:          0  dACCESS:          0  dHIT:          0  dMISS:          0  itACCESS:          0  itHIT:          0  itMISS:          0  dtACCESS:          0  dtHIT:          0  dtMISS:          0
cpu0_DTLB PREFETCH     ACCESS:          0  HIT:          0  MISS:          0  iACCESS:          0  iHIT:          0  iMISS:          0  dACCESS:          0  dHIT:          0  dMISS:          0  itACCESS:          0  itHIT:          0  itMISS:          0  dtACCESS:          0  dtHIT:          0  dtMISS:          0
cpu0_DTLB WRITE        ACCESS:          0  HIT:          0  MISS:          0  iACCESS:          0  iHIT:          0  iMISS:          0  dACCESS:          0  dHIT:          0  dMISS:          0  itACCESS:          0  itHIT:          0  itMISS:          0  dtACCESS:          0  dtHIT:          0  dtMISS:          0
cpu0_DTLB TRANSLATION  ACCESS:          0  HIT:          0  MISS:          0  iACCESS:          0  iHIT:          0  iMISS:          0  dACCESS:          0  dHIT:          0  dMISS:          0  itACCESS:          0  itHIT:          0  itMISS:          0  dtACCESS:          0  dtHIT:          0  dtMISS:          0
cpu0_DTLB PREFETCH  REQUESTED:          0  ISSUED:          0  CROSSED:          0  USEFUL:          0  USELESS:          0
cpu0_DTLB AVERAGE iMISS LATENCY: 0 cycles
cpu0_DTLB AVERAGE dMISS LATENCY: 19.0777 cycles
cpu0_DTLB AVERAGE itMISS LATENCY: 0 cycles
cpu0_DTLB AVERAGE dtMISS LATENCY: 0 cycles
cpu0_DTLB PAGE CROSSINGS (TLB HIT):         0 
cpu0_DTLB PAGE CROSSINGS (TLB MISS):         0 
cpu0_DTLB AVERAGE MISS LATENCY: 19.0777 cycles
cpu0_STLB TOTAL       ACCESS:    2428298  HIT:    2081881  MISS:     346417  iACCESS:     476522  iHIT:     431548  iMISS:      44974  dACCESS:    1951776  dHIT:    1650333  dMISS:     301443  itACCESS:          0  itHIT:          0  itMISS:          0  dtACCESS:          0  dtHIT:          0  dtMISS:          0
cpu0_STLB LOAD         ACCESS:    2428298  HIT:    2081881  MISS:     346417  iACCESS:     476522  iHIT:     431548  iMISS:      44974  dACCESS:    1951776  dHIT:    1650333  dMISS:     301443  itACCESS:          0  itHIT:          0  itMISS:          0  dtACCESS:          0  dtHIT:          0  dtMISS:          0
cpu0_STLB RFO          ACCESS:          0  HIT:          0  MISS:          0  iACCESS:          0  iHIT:          0  iMISS:          0  dACCESS:          0  dHIT:          0  dMISS:          0  itACCESS:          0  itHIT:          0  itMISS:          0  dtACCESS:          0  dtHIT:          0  dtMISS:          0
cpu0_STLB PREFETCH     ACCESS:          0  HIT:          0  MISS:          0  iACCESS:          0  iHIT:          0  iMISS:          0  dACCESS:          0  dHIT:          0  dMISS:          0  itACCESS:          0  itHIT:          0  itMISS:          0  dtACCESS:          0  dtHIT:          0  dtMISS:          0
cpu0_STLB WRITE        ACCESS:          0  HIT:          0  MISS:          0  iACCESS:          0  iHIT:          0  iMISS:          0  dACCESS:          0  dHIT:          0  dMISS:          0  itACCESS:          0  itHIT:          0  itMISS:          0  dtACCESS:          0  dtHIT:          0  dtMISS:          0
cpu0_STLB TRANSLATION  ACCESS:          0  HIT:          0  MISS:          0  iACCESS:          0  iHIT:          0  iMISS:          0  dACCESS:          0  dHIT:          0  dMISS:          0  itACCESS:          0  itHIT:          0  itMISS:          0  dtACCESS:          0  dtHIT:          0  dtMISS:          0
cpu0_STLB PREFETCH  REQUESTED:          0  ISSUED:          0  CROSSED:          0  USEFUL:          0  USELESS:          0
cpu0_STLB AVERAGE iMISS LATENCY: 20.1659 cycles
cpu0_STLB AVERAGE dMISS LATENCY: 143.269 cycles
cpu0_STLB AVERAGE itMISS LATENCY: 0 cycles
cpu0_STLB AVERAGE dtMISS LATENCY: 0 cycles
cpu0_STLB PAGE CROSSINGS (TLB HIT):         0 
cpu0_STLB PAGE CROSSINGS (TLB MISS):         0 
cpu0_STLB AVERAGE MISS LATENCY: 163.435 cycles
cpu0_L1D TOTAL       ACCESS:   45054426  HIT:   39123573  MISS:    5930853  iACCESS:          0  iHIT:          0  iMISS:          0  dACCESS:   44511913  dHIT:   39098367  dMISS:    5413546  itACCESS:      54361  itHIT:       3711  itMISS:      50650  dtACCESS:     488152  dtHIT:      21495  dtMISS:     466657
cpu0_L1D LOAD         ACCESS:   20310428  HIT:   17864461  MISS:    2445967  iACCESS:          0  iHIT:          0  iMISS:          0  dACCESS:   20310428  dHIT:   17864461  dMISS:    2445967  itACCESS:          0  itHIT:          0  itMISS:          0  dtACCESS:          0  dtHIT:          0  dtMISS:          0
cpu0_L1D RFO          ACCESS:          0  HIT:          0  MISS:          0  iACCESS:          0  iHIT:          0  iMISS:          0  dACCESS:          0  dHIT:          0  dMISS:          0  itACCESS:          0  itHIT:          0  itMISS:          0  dtACCESS:          0  dtHIT:          0  dtMISS:          0
cpu0_L1D PREFETCH     ACCESS:   14025217  HIT:   11632887  MISS:    2392330  iACCESS:          0  iHIT:          0  iMISS:          0  dACCESS:   14025217  dHIT:   11632887  dMISS:    2392330  itACCESS:          0  itHIT:          0  itMISS:          0  dtACCESS:          0  dtHIT:          0  dtMISS:          0
cpu0_L1D WRITE        ACCESS:   10176268  HIT:    9601019  MISS:     575249  iACCESS:          0  iHIT:          0  iMISS:          0  dACCESS:   10176268  dHIT:    9601019  dMISS:     575249  itACCESS:          0  itHIT:          0  itMISS:          0  dtACCESS:          0  dtHIT:          0  dtMISS:          0
cpu0_L1D TRANSLATION  ACCESS:     542513  HIT:      25206  MISS:     517307  iACCESS:          0  iHIT:          0  iMISS:          0  dACCESS:          0  dHIT:          0  dMISS:          0  itACCESS:      54361  itHIT:       3711  itMISS:      50650  dtACCESS:     488152  dtHIT:      21495  dtMISS:     466657
cpu0_L1D PREFETCH  REQUESTED:   20310428  ISSUED:   18436683  CROSSED:          0  USEFUL:     372399  USELESS:     921282
cpu0_L1D AVERAGE iMISS LATENCY: 0 cycles
cpu0_L1D AVERAGE dMISS LATENCY: 48.8211 cycles
cpu0_L1D AVERAGE itMISS LATENCY: 1.0942 cycles
cpu0_L1D AVERAGE dtMISS LATENCY: 7.50328 cycles
cpu0_L1D PAGE CROSSINGS (TLB HIT):         0 
cpu0_L1D PAGE CROSSINGS (TLB MISS):         0 
cpu0_L1D AVERAGE MISS LATENCY: 57.4186 cycles
cpu0_L2C TOTAL       ACCESS:    8680823  HIT:    1595922  MISS:    7084901  iACCESS:    3848063  iHIT:     845736  iMISS:    3002327  dACCESS:    4347690  dHIT:     553087  dMISS:    3794603  itACCESS:      50289  itHIT:      13636  itMISS:      36653  dtACCESS:     434781  dtHIT:     183463  dtMISS:     251318
cpu0_L2C LOAD         ACCESS:    2092781  HIT:     220972  MISS:    1871809  iACCESS:     872139  iHIT:     124008  iMISS:     748131  dACCESS:    1220642  dHIT:      96964  dMISS:    1123678  itACCESS:          0  itHIT:          0  itMISS:          0  dtACCESS:          0  dtHIT:          0  dtMISS:          0
cpu0_L2C RFO          ACCESS:     216946  HIT:      33087  MISS:     183859  iACCESS:          0  iHIT:          0  iMISS:          0  dACCESS:     216946  dHIT:      33087  dMISS:     183859  itACCESS:          0  itHIT:          0  itMISS:          0  dtACCESS:          0  dtHIT:          0  dtMISS:          0
cpu0_L2C PREFETCH     ACCESS:    5537542  HIT:    1036073  MISS:    4501469  iACCESS:    2975924  iHIT:     721728  iMISS:    2254196  dACCESS:    2561618  dHIT:     314345  dMISS:    2247273  itACCESS:          0  itHIT:          0  itMISS:          0  dtACCESS:          0  dtHIT:          0  dtMISS:          0
cpu0_L2C WRITE        ACCESS:     348484  HIT:     108691  MISS:     239793  iACCESS:          0  iHIT:          0  iMISS:          0  dACCESS:     348484  dHIT:     108691  dMISS:     239793  itACCESS:          0  itHIT:          0  itMISS:          0  dtACCESS:          0  dtHIT:          0  dtMISS:          0
cpu0_L2C TRANSLATION  ACCESS:     485070  HIT:     197099  MISS:     287971  iACCESS:          0  iHIT:          0  iMISS:          0  dACCESS:          0  dHIT:          0  dMISS:          0  itACCESS:      50289  itHIT:      13636  itMISS:      36653  dtACCESS:     434781  dtHIT:     183463  dtMISS:     251318
cpu0_L2C PREFETCH  REQUESTED:    1532004  ISSUED:    1532004  CROSSED:          0  USEFUL:     424750  USELESS:     468927
cpu0_L2C AVERAGE iMISS LATENCY: 23.3765 cycles
cpu0_L2C AVERAGE dMISS LATENCY: 48.4537 cycles
cpu0_L2C AVERAGE itMISS LATENCY: 0.846677 cycles
cpu0_L2C AVERAGE dtMISS LATENCY: 5.69037 cycles
cpu0_L2C PAGE CROSSINGS (TLB HIT):         0 
cpu0_L2C PAGE CROSSINGS (TLB MISS):         0 
cpu0_L2C AVERAGE MISS LATENCY: 78.3672 cycles
LLC TOTAL       ACCESS:    6920961  HIT:    4451100  MISS:    2469861  iACCESS:    2922012  iHIT:    2224511  iMISS:     697501  dACCESS:    3710978  dHIT:    2154454  dMISS:    1556524  itACCESS:      36653  itHIT:       7019  itMISS:      29634  dtACCESS:     251318  dtHIT:      65116  dtMISS:     186202
LLC LOAD         ACCESS:    1863794  HIT:    1242669  MISS:     621125  iACCESS:     746782  iHIT:     601862  iMISS:     144920  dACCESS:    1117012  dHIT:     640807  dMISS:     476205  itACCESS:          0  itHIT:          0  itMISS:          0  dtACCESS:          0  dtHIT:          0  dtMISS:          0
LLC RFO          ACCESS:     183848  HIT:      92950  MISS:      90898  iACCESS:          0  iHIT:          0  iMISS:          0  dACCESS:     183848  dHIT:      92950  dMISS:      90898  itACCESS:          0  itHIT:          0  itMISS:          0  dtACCESS:          0  dtHIT:          0  dtMISS:          0
LLC PREFETCH     ACCESS:    4316719  HIT:    2783801  MISS:    1532918  iACCESS:    2175230  iHIT:    1622649  iMISS:     552581  dACCESS:    2141489  dHIT:    1161152  dMISS:     980337  itACCESS:          0  itHIT:          0  itMISS:          0  dtACCESS:          0  dtHIT:          0  dtMISS:          0
LLC WRITE        ACCESS:     268629  HIT:     259545  MISS:       9084  iACCESS:          0  iHIT:          0  iMISS:          0  dACCESS:     268629  dHIT:     259545  dMISS:       9084  itACCESS:          0  itHIT:          0  itMISS:          0  dtACCESS:          0  dtHIT:          0  dtMISS:          0
LLC TRANSLATION  ACCESS:     287971  HIT:      72135  MISS:     215836  iACCESS:          0  iHIT:          0  iMISS:          0  dACCESS:          0  dHIT:          0  dMISS:          0  itACCESS:      36653  itHIT:       7019  itMISS:      29634  dtACCESS:     251318  dtHIT:      65116  dtMISS:     186202
LLC PREFETCH  REQUESTED:          0  ISSUED:          0  CROSSED:          0  USEFUL:          0  USELESS:          0
LLC AVERAGE iMISS LATENCY: 44.1384 cycles
LLC AVERAGE dMISS LATENCY: 112.959 cycles
LLC AVERAGE itMISS LATENCY: 2.13577 cycles
LLC AVERAGE dtMISS LATENCY: 14.3201 cycles
LLC PAGE CROSSINGS (TLB HIT):         0 
LLC PAGE CROSSINGS (TLB MISS):         0 
LLC AVERAGE MISS LATENCY: 173.554 cycles

PageTableWalker TOTAL       ACCESS:     167462  
PageTableWalker AVERAGE LATENCY: 6.28329 cycles
PageTableWalker TOTAL LATENCY: 1052211 cycles

DRAM Statistics
Channel 0
 RQ ROW_BUFFER_HIT:     535156
  ROW_BUFFER_MISS:    1904643
 AVG DBUS CONGESTED CYCLE:    3.64988
 WQ ROW_BUFFER_HIT:      63764
  ROW_BUFFER_MISS:      62062  FULL:          0

