last_page:0x200000000000000
VMEM_RES_CAP:0x100000
PAGE_SIZE:4096
LOG2_PAGE_SIZE:12
LOG2_PAGE_TABLE_SIZE:9
page_table_levels:5
WARNING: physical memory size is smaller than virtual memory size
FDiP enabled with aggresivity 16

*** ChampSim Multicore Out-of-Order Simulator ***

Warmup Instructions: 50000000
Simulation Instructions: 100000000
Number of CPUs: 1
Small page size: 4096
Large page size: 2097152

CPU 0 Bimodal branch predictor
Basic BTB sets: 1024 ways: 8 indirect buffer size: 4096 RAS size: 64
Instruction page size distrubution: 0
Loading instruction page size distribution from /home/bsc/bsc018186/scratch/itp_asplos25_AE/dump/smt_srv207_ap_srv128_ap_1024i.pdst
Data page size distrubution: 0
Loading data page size distribution from /home/bsc/bsc018186/scratch/itp_asplos25_AE/dump/smt_srv207_ap_srv128_ap_1024i.pdst
cpu0_L2C IP-based stride prefetcher
cpu0_L1D next line prefetcher
CHiRPing...
cpu0_L1I next line prefetcher
Off-chip DRAM Size: 4 GiB Channels: 1 Width: 64-bit Data Rate: 3200 MT/s
Heartbeat CPU 0 instructions: 10000003 cycles: 2500783 heartbeat IPC: 3.99875 cumulative IPC: 3.99875 (Simulation time: 0 hr 0 min 46 sec) 
Heartbeat CPU 0 instructions: 20000001 cycles: 5090568 heartbeat IPC: 3.86133 cumulative IPC: 3.92884 (Simulation time: 0 hr 1 min 34 sec) 
Heartbeat CPU 0 instructions: 30000000 cycles: 7658265 heartbeat IPC: 3.89455 cumulative IPC: 3.91734 (Simulation time: 0 hr 2 min 24 sec) 
Heartbeat CPU 0 instructions: 40000000 cycles: 10213897 heartbeat IPC: 3.91293 cumulative IPC: 3.91624 (Simulation time: 0 hr 3 min 15 sec) 
Heartbeat CPU 0 instructions: 50000001 cycles: 12714376 heartbeat IPC: 3.99924 cumulative IPC: 3.93256 (Simulation time: 0 hr 4 min 2 sec) 
Warmup finished CPU 0 instructions: 50000001 cycles: 12714377 cumulative IPC: 3.93256 (Simulation time: 0 hr 4 min 2 sec) 

Warmup complete CPU 0 instructions: 50000001 cycles: 12714377 (Simulation time: 0 hr 4 min 2 sec) 

Heartbeat CPU 0 instructions: 60000000 cycles: 44091606 heartbeat IPC: 0.318703 cumulative IPC: 0.318703 (Simulation time: 0 hr 5 min 43 sec) 
Heartbeat CPU 0 instructions: 70000000 cycles: 75149952 heartbeat IPC: 0.321975 cumulative IPC: 0.320331 (Simulation time: 0 hr 7 min 25 sec) 
Heartbeat CPU 0 instructions: 80000000 cycles: 107628136 heartbeat IPC: 0.307899 cumulative IPC: 0.316077 (Simulation time: 0 hr 9 min 11 sec) 
Heartbeat CPU 0 instructions: 90000000 cycles: 138331616 heartbeat IPC: 0.325696 cumulative IPC: 0.318428 (Simulation time: 0 hr 10 min 53 sec) 
Heartbeat CPU 0 instructions: 100000004 cycles: 169619912 heartbeat IPC: 0.319609 cumulative IPC: 0.318664 (Simulation time: 0 hr 12 min 36 sec) 
Heartbeat CPU 0 instructions: 110000000 cycles: 200583984 heartbeat IPC: 0.322955 cumulative IPC: 0.319371 (Simulation time: 0 hr 14 min 14 sec) 
Heartbeat CPU 0 instructions: 120000000 cycles: 231696236 heartbeat IPC: 0.321417 cumulative IPC: 0.319662 (Simulation time: 0 hr 15 min 44 sec) 
Heartbeat CPU 0 instructions: 130000000 cycles: 261333987 heartbeat IPC: 0.337408 cumulative IPC: 0.321777 (Simulation time: 0 hr 17 min 12 sec) 
Heartbeat CPU 0 instructions: 140000002 cycles: 293462690 heartbeat IPC: 0.311249 cumulative IPC: 0.320572 (Simulation time: 0 hr 18 min 44 sec) 
Heartbeat CPU 0 instructions: 150000000 cycles: 324515465 heartbeat IPC: 0.322033 cumulative IPC: 0.320718 (Simulation time: 0 hr 20 min 13 sec) 
Simulation finished CPU 0 instructions: 100000004 cycles: 311801090 cumulative IPC: 0.320718 (Simulation time: 0 hr 20 min 13 sec) 

Simulation complete CPU 0 instructions: 100000004 cycles: 311801090 (Simulation time: 0 hr 20 min 13 sec) 


ChampSim completed all CPUs

Saving instructions large page distribution to /home/bsc/bsc018186/scratch/itp_asplos25_AE/dump/smt_srv207_ap_srv128_ap_1024i.pdst...
Saving data large page distribution to /home/bsc/bsc018186/scratch/itp_asplos25_AE/dump/smt_srv207_ap_srv128_ap_1024i.pdst...
=== Simulation ===
CPU 0 runs /gpfs/projects/bsc18/MN4/bsc18/romol/ChampSim/traces/qualcomm_srv/smt_srv207_ap_srv128_ap_1024i.champsimtrace.xz

Region of Interest Statistics

CPU 0 cumulative IPC: 0.320718 instructions: 100000004 cycles: 311801090
CPU 0 Branch Prediction Accuracy: 74.6379% MPKI: 45.7035 Average ROB Occupancy at Mispredict: 10.8663
Branch type MPKI
BRANCH_DIRECT_JUMP: 1.4268
BRANCH_INDIRECT: 24.0043
BRANCH_CONDITIONAL: 12.9435
BRANCH_DIRECT_CALL: 2.70895
BRANCH_INDIRECT_CALL: 1.0328
BRANCH_RETURN: 3.58727

Instructions large pages: 0
Instructions small pages: 11526
Large page distribution for instructions: 0%

Data large pages: 0
Data small pages: 9998
Large page distribution for data: 0%

cpu0_L1I TOTAL       ACCESS:   39134722  HIT:   30391499  MISS:    8743223  iACCESS:   39134722  iHIT:   30391499  iMISS:    8743223  dACCESS:          0  dHIT:          0  dMISS:          0  itACCESS:          0  itHIT:          0  itMISS:          0  dtACCESS:          0  dtHIT:          0  dtMISS:          0
cpu0_L1I LOAD         ACCESS:   11590144  HIT:    9206681  MISS:    2383463  iACCESS:   11590144  iHIT:    9206681  iMISS:    2383463  dACCESS:          0  dHIT:          0  dMISS:          0  itACCESS:          0  itHIT:          0  itMISS:          0  dtACCESS:          0  dtHIT:          0  dtMISS:          0
cpu0_L1I RFO          ACCESS:          0  HIT:          0  MISS:          0  iACCESS:          0  iHIT:          0  iMISS:          0  dACCESS:          0  dHIT:          0  dMISS:          0  itACCESS:          0  itHIT:          0  itMISS:          0  dtACCESS:          0  dtHIT:          0  dtMISS:          0
cpu0_L1I PREFETCH     ACCESS:   27544578  HIT:   21184818  MISS:    6359760  iACCESS:   27544578  iHIT:   21184818  iMISS:    6359760  dACCESS:          0  dHIT:          0  dMISS:          0  itACCESS:          0  itHIT:          0  itMISS:          0  dtACCESS:          0  dtHIT:          0  dtMISS:          0
cpu0_L1I WRITE        ACCESS:          0  HIT:          0  MISS:          0  iACCESS:          0  iHIT:          0  iMISS:          0  dACCESS:          0  dHIT:          0  dMISS:          0  itACCESS:          0  itHIT:          0  itMISS:          0  dtACCESS:          0  dtHIT:          0  dtMISS:          0
cpu0_L1I TRANSLATION  ACCESS:          0  HIT:          0  MISS:          0  iACCESS:          0  iHIT:          0  iMISS:          0  dACCESS:          0  dHIT:          0  dMISS:          0  itACCESS:          0  itHIT:          0  itMISS:          0  dtACCESS:          0  dtHIT:          0  dtMISS:          0
cpu0_L1I PREFETCH  REQUESTED:   30275162  ISSUED:   30275155  CROSSED:          0  USEFUL:    2209270  USELESS:     796471
cpu0_L1I AVERAGE iMISS LATENCY: 25.2547 cycles
cpu0_L1I AVERAGE dMISS LATENCY: 0 cycles
cpu0_L1I AVERAGE itMISS LATENCY: 0 cycles
cpu0_L1I AVERAGE dtMISS LATENCY: 0 cycles
cpu0_L1I PAGE CROSSINGS (TLB HIT):         0 
cpu0_L1I PAGE CROSSINGS (TLB MISS):         0 
cpu0_L1I AVERAGE MISS LATENCY: 25.2547 cycles
cpu0_ITLB TOTAL       ACCESS:   33229229  HIT:   30951372  MISS:    2277857  iACCESS:   33229229  iHIT:   30951372  iMISS:    2277857  dACCESS:          0  dHIT:          0  dMISS:          0  itACCESS:          0  itHIT:          0  itMISS:          0  dtACCESS:          0  dtHIT:          0  dtMISS:          0
cpu0_ITLB LOAD         ACCESS:   33229229  HIT:   30951372  MISS:    2277857  iACCESS:   33229229  iHIT:   30951372  iMISS:    2277857  dACCESS:          0  dHIT:          0  dMISS:          0  itACCESS:          0  itHIT:          0  itMISS:          0  dtACCESS:          0  dtHIT:          0  dtMISS:          0
cpu0_ITLB RFO          ACCESS:          0  HIT:          0  MISS:          0  iACCESS:          0  iHIT:          0  iMISS:          0  dACCESS:          0  dHIT:          0  dMISS:          0  itACCESS:          0  itHIT:          0  itMISS:          0  dtACCESS:          0  dtHIT:          0  dtMISS:          0
cpu0_ITLB PREFETCH     ACCESS:          0  HIT:          0  MISS:          0  iACCESS:          0  iHIT:          0  iMISS:          0  dACCESS:          0  dHIT:          0  dMISS:          0  itACCESS:          0  itHIT:          0  itMISS:          0  dtACCESS:          0  dtHIT:          0  dtMISS:          0
cpu0_ITLB WRITE        ACCESS:          0  HIT:          0  MISS:          0  iACCESS:          0  iHIT:          0  iMISS:          0  dACCESS:          0  dHIT:          0  dMISS:          0  itACCESS:          0  itHIT:          0  itMISS:          0  dtACCESS:          0  dtHIT:          0  dtMISS:          0
cpu0_ITLB TRANSLATION  ACCESS:          0  HIT:          0  MISS:          0  iACCESS:          0  iHIT:          0  iMISS:          0  dACCESS:          0  dHIT:          0  dMISS:          0  itACCESS:          0  itHIT:          0  itMISS:          0  dtACCESS:          0  dtHIT:          0  dtMISS:          0
cpu0_ITLB PREFETCH  REQUESTED:          0  ISSUED:          0  CROSSED:          0  USEFUL:     400084  USELESS:      82680
cpu0_ITLB AVERAGE iMISS LATENCY: 10.6859 cycles
cpu0_ITLB AVERAGE dMISS LATENCY: 0 cycles
cpu0_ITLB AVERAGE itMISS LATENCY: 0 cycles
cpu0_ITLB AVERAGE dtMISS LATENCY: 0 cycles
cpu0_ITLB PAGE CROSSINGS (TLB HIT):         0 
cpu0_ITLB PAGE CROSSINGS (TLB MISS):         0 
cpu0_ITLB AVERAGE MISS LATENCY: 10.6859 cycles
cpu0_DTLB TOTAL       ACCESS:   29210499  HIT:   25706305  MISS:    3504194  iACCESS:          0  iHIT:          0  iMISS:          0  dACCESS:   29210499  dHIT:   25706305  dMISS:    3504194  itACCESS:          0  itHIT:          0  itMISS:          0  dtACCESS:          0  dtHIT:          0  dtMISS:          0
cpu0_DTLB LOAD         ACCESS:   29210499  HIT:   25706305  MISS:    3504194  iACCESS:          0  iHIT:          0  iMISS:          0  dACCESS:   29210499  dHIT:   25706305  dMISS:    3504194  itACCESS:          0  itHIT:          0  itMISS:          0  dtACCESS:          0  dtHIT:          0  dtMISS:          0
cpu0_DTLB RFO          ACCESS:          0  HIT:          0  MISS:          0  iACCESS:          0  iHIT:          0  iMISS:          0  dACCESS:          0  dHIT:          0  dMISS:          0  itACCESS:          0  itHIT:          0  itMISS:          0  dtACCESS:          0  dtHIT:          0  dtMISS:          0
cpu0_DTLB PREFETCH     ACCESS:          0  HIT:          0  MISS:          0  iACCESS:          0  iHIT:          0  iMISS:          0  dACCESS:          0  dHIT:          0  dMISS:          0  itACCESS:          0  itHIT:          0  itMISS:          0  dtACCESS:          0  dtHIT:          0  dtMISS:          0
cpu0_DTLB WRITE        ACCESS:          0  HIT:          0  MISS:          0  iACCESS:          0  iHIT:          0  iMISS:          0  dACCESS:          0  dHIT:          0  dMISS:          0  itACCESS:          0  itHIT:          0  itMISS:          0  dtACCESS:          0  dtHIT:          0  dtMISS:          0
cpu0_DTLB TRANSLATION  ACCESS:          0  HIT:          0  MISS:          0  iACCESS:          0  iHIT:          0  iMISS:          0  dACCESS:          0  dHIT:          0  dMISS:          0  itACCESS:          0  itHIT:          0  itMISS:          0  dtACCESS:          0  dtHIT:          0  dtMISS:          0
cpu0_DTLB PREFETCH  REQUESTED:          0  ISSUED:          0  CROSSED:          0  USEFUL:          0  USELESS:          0
cpu0_DTLB AVERAGE iMISS LATENCY: 0 cycles
cpu0_DTLB AVERAGE dMISS LATENCY: 26.4415 cycles
cpu0_DTLB AVERAGE itMISS LATENCY: 0 cycles
cpu0_DTLB AVERAGE dtMISS LATENCY: 0 cycles
cpu0_DTLB PAGE CROSSINGS (TLB HIT):         0 
cpu0_DTLB PAGE CROSSINGS (TLB MISS):         0 
cpu0_DTLB AVERAGE MISS LATENCY: 26.4415 cycles
cpu0_STLB TOTAL       ACCESS:    2556365  HIT:    2166666  MISS:     389699  iACCESS:     482768  iHIT:     363931  iMISS:     118837  dACCESS:    2073597  dHIT:    1802735  dMISS:     270862  itACCESS:          0  itHIT:          0  itMISS:          0  dtACCESS:          0  dtHIT:          0  dtMISS:          0
cpu0_STLB LOAD         ACCESS:    2556365  HIT:    2166666  MISS:     389699  iACCESS:     482768  iHIT:     363931  iMISS:     118837  dACCESS:    2073597  dHIT:    1802735  dMISS:     270862  itACCESS:          0  itHIT:          0  itMISS:          0  dtACCESS:          0  dtHIT:          0  dtMISS:          0
cpu0_STLB RFO          ACCESS:          0  HIT:          0  MISS:          0  iACCESS:          0  iHIT:          0  iMISS:          0  dACCESS:          0  dHIT:          0  dMISS:          0  itACCESS:          0  itHIT:          0  itMISS:          0  dtACCESS:          0  dtHIT:          0  dtMISS:          0
cpu0_STLB PREFETCH     ACCESS:          0  HIT:          0  MISS:          0  iACCESS:          0  iHIT:          0  iMISS:          0  dACCESS:          0  dHIT:          0  dMISS:          0  itACCESS:          0  itHIT:          0  itMISS:          0  dtACCESS:          0  dtHIT:          0  dtMISS:          0
cpu0_STLB WRITE        ACCESS:          0  HIT:          0  MISS:          0  iACCESS:          0  iHIT:          0  iMISS:          0  dACCESS:          0  dHIT:          0  dMISS:          0  itACCESS:          0  itHIT:          0  itMISS:          0  dtACCESS:          0  dtHIT:          0  dtMISS:          0
cpu0_STLB TRANSLATION  ACCESS:          0  HIT:          0  MISS:          0  iACCESS:          0  iHIT:          0  iMISS:          0  dACCESS:          0  dHIT:          0  dMISS:          0  itACCESS:          0  itHIT:          0  itMISS:          0  dtACCESS:          0  dtHIT:          0  dtMISS:          0
cpu0_STLB PREFETCH  REQUESTED:          0  ISSUED:          0  CROSSED:          0  USEFUL:          0  USELESS:          0
cpu0_STLB AVERAGE iMISS LATENCY: 52.5471 cycles
cpu0_STLB AVERAGE dMISS LATENCY: 194.909 cycles
cpu0_STLB AVERAGE itMISS LATENCY: 0 cycles
cpu0_STLB AVERAGE dtMISS LATENCY: 0 cycles
cpu0_STLB PAGE CROSSINGS (TLB HIT):         0 
cpu0_STLB PAGE CROSSINGS (TLB MISS):         0 
cpu0_STLB AVERAGE MISS LATENCY: 247.456 cycles
cpu0_L1D TOTAL       ACCESS:   45702236  HIT:   39679091  MISS:    6023145  iACCESS:          0  iHIT:          0  iMISS:          0  dACCESS:   45134404  dHIT:   39646140  dMISS:    5488264  itACCESS:     133167  itHIT:      13896  itMISS:     119271  dtACCESS:     434665  dtHIT:      19055  dtMISS:     415610
cpu0_L1D LOAD         ACCESS:   20666245  HIT:   18194907  MISS:    2471338  iACCESS:          0  iHIT:          0  iMISS:          0  dACCESS:   20666245  dHIT:   18194907  dMISS:    2471338  itACCESS:          0  itHIT:          0  itMISS:          0  dtACCESS:          0  dtHIT:          0  dtMISS:          0
cpu0_L1D RFO          ACCESS:          0  HIT:          0  MISS:          0  iACCESS:          0  iHIT:          0  iMISS:          0  dACCESS:          0  dHIT:          0  dMISS:          0  itACCESS:          0  itHIT:          0  itMISS:          0  dtACCESS:          0  dtHIT:          0  dtMISS:          0
cpu0_L1D PREFETCH     ACCESS:   14331626  HIT:   11914974  MISS:    2416652  iACCESS:          0  iHIT:          0  iMISS:          0  dACCESS:   14331626  dHIT:   11914974  dMISS:    2416652  itACCESS:          0  itHIT:          0  itMISS:          0  dtACCESS:          0  dtHIT:          0  dtMISS:          0
cpu0_L1D WRITE        ACCESS:   10136533  HIT:    9536259  MISS:     600274  iACCESS:          0  iHIT:          0  iMISS:          0  dACCESS:   10136533  dHIT:    9536259  dMISS:     600274  itACCESS:          0  itHIT:          0  itMISS:          0  dtACCESS:          0  dtHIT:          0  dtMISS:          0
cpu0_L1D TRANSLATION  ACCESS:     567832  HIT:      32951  MISS:     534881  iACCESS:          0  iHIT:          0  iMISS:          0  dACCESS:          0  dHIT:          0  dMISS:          0  itACCESS:     133167  itHIT:      13896  itMISS:     119271  dtACCESS:     434665  dtHIT:      19055  dtMISS:     415610
cpu0_L1D PREFETCH  REQUESTED:   20666245  ISSUED:   18854572  CROSSED:          0  USEFUL:     377918  USELESS:     958397
cpu0_L1D AVERAGE iMISS LATENCY: 0 cycles
cpu0_L1D AVERAGE dMISS LATENCY: 49.8852 cycles
cpu0_L1D AVERAGE itMISS LATENCY: 3.21512 cycles
cpu0_L1D AVERAGE dtMISS LATENCY: 11.8403 cycles
cpu0_L1D PAGE CROSSINGS (TLB HIT):         0 
cpu0_L1D PAGE CROSSINGS (TLB MISS):         0 
cpu0_L1D AVERAGE MISS LATENCY: 64.9406 cycles
cpu0_L2C TOTAL       ACCESS:    8778785  HIT:    4231170  MISS:    4547615  iACCESS:    3830937  iHIT:    2302701  iMISS:    1528236  dACCESS:    4446234  dHIT:    1869076  dMISS:    2577158  itACCESS:     118566  itHIT:      20971  itMISS:      97595  dtACCESS:     383048  dtHIT:      38422  dtMISS:     344626
cpu0_L2C LOAD         ACCESS:    2113753  HIT:    1023416  MISS:    1090337  iACCESS:     860060  iHIT:     540350  iMISS:     319710  dACCESS:    1253693  dHIT:     483066  dMISS:     770627  itACCESS:          0  itHIT:          0  itMISS:          0  dtACCESS:          0  dtHIT:          0  dtMISS:          0
cpu0_L2C RFO          ACCESS:     225516  HIT:      90912  MISS:     134604  iACCESS:          0  iHIT:          0  iMISS:          0  dACCESS:     225516  dHIT:      90912  dMISS:     134604  itACCESS:          0  itHIT:          0  itMISS:          0  dtACCESS:          0  dtHIT:          0  dtMISS:          0
cpu0_L2C PREFETCH     ACCESS:    5588080  HIT:    2711505  MISS:    2876575  iACCESS:    2970877  iHIT:    1762351  iMISS:    1208526  dACCESS:    2617203  dHIT:     949154  dMISS:    1668049  itACCESS:          0  itHIT:          0  itMISS:          0  dtACCESS:          0  dtHIT:          0  dtMISS:          0
cpu0_L2C WRITE        ACCESS:     349822  HIT:     345944  MISS:       3878  iACCESS:          0  iHIT:          0  iMISS:          0  dACCESS:     349822  dHIT:     345944  dMISS:       3878  itACCESS:          0  itHIT:          0  itMISS:          0  dtACCESS:          0  dtHIT:          0  dtMISS:          0
cpu0_L2C TRANSLATION  ACCESS:     501614  HIT:      59393  MISS:     442221  iACCESS:          0  iHIT:          0  iMISS:          0  dACCESS:          0  dHIT:          0  dMISS:          0  itACCESS:     118566  itHIT:      20971  itMISS:      97595  dtACCESS:     383048  dtHIT:      38422  dtMISS:     344626
cpu0_L2C PREFETCH  REQUESTED:    1517978  ISSUED:    1517977  CROSSED:          0  USEFUL:     349985  USELESS:     327152
cpu0_L2C AVERAGE iMISS LATENCY: 41.5605 cycles
cpu0_L2C AVERAGE dMISS LATENCY: 81.6549 cycles
cpu0_L2C AVERAGE itMISS LATENCY: 4.00135 cycles
cpu0_L2C AVERAGE dtMISS LATENCY: 14.8434 cycles
cpu0_L2C PAGE CROSSINGS (TLB HIT):         0 
cpu0_L2C PAGE CROSSINGS (TLB MISS):         0 
cpu0_L2C AVERAGE MISS LATENCY: 142.06 cycles
LLC TOTAL       ACCESS:    4542037  HIT:    1304444  MISS:    3237593  iACCESS:    1441364  iHIT:     435036  iMISS:    1006328  dACCESS:    2658452  dHIT:     830780  dMISS:    1827672  itACCESS:      97595  itHIT:       6825  itMISS:      90770  dtACCESS:     344626  dtHIT:      31803  dtMISS:     312823
LLC LOAD         ACCESS:    1082476  HIT:     327251  MISS:     755225  iACCESS:     318551  iHIT:     103030  iMISS:     215521  dACCESS:     763925  dHIT:     224221  dMISS:     539704  itACCESS:          0  itHIT:          0  itMISS:          0  dtACCESS:          0  dtHIT:          0  dtMISS:          0
LLC RFO          ACCESS:     134596  HIT:      38341  MISS:      96255  iACCESS:          0  iHIT:          0  iMISS:          0  dACCESS:     134596  dHIT:      38341  dMISS:      96255  itACCESS:          0  itHIT:          0  itMISS:          0  dtACCESS:          0  dtHIT:          0  dtMISS:          0
LLC PREFETCH     ACCESS:    2670707  HIT:     699268  MISS:    1971439  iACCESS:    1122813  iHIT:     332006  iMISS:     790807  dACCESS:    1547894  dHIT:     367262  dMISS:    1180632  itACCESS:          0  itHIT:          0  itMISS:          0  dtACCESS:          0  dtHIT:          0  dtMISS:          0
LLC WRITE        ACCESS:     212037  HIT:     200956  MISS:      11081  iACCESS:          0  iHIT:          0  iMISS:          0  dACCESS:     212037  dHIT:     200956  dMISS:      11081  itACCESS:          0  itHIT:          0  itMISS:          0  dtACCESS:          0  dtHIT:          0  dtMISS:          0
LLC TRANSLATION  ACCESS:     442221  HIT:      38628  MISS:     403593  iACCESS:          0  iHIT:          0  iMISS:          0  dACCESS:          0  dHIT:          0  dMISS:          0  itACCESS:      97595  itHIT:       6825  itMISS:      90770  dtACCESS:     344626  dtHIT:      31803  dtMISS:     312823
LLC PREFETCH  REQUESTED:          0  ISSUED:          0  CROSSED:          0  USEFUL:          0  USELESS:          0
LLC AVERAGE iMISS LATENCY: 49.6013 cycles
LLC AVERAGE dMISS LATENCY: 100.73 cycles
LLC AVERAGE itMISS LATENCY: 5.02241 cycles
LLC AVERAGE dtMISS LATENCY: 18.7436 cycles
LLC PAGE CROSSINGS (TLB HIT):         0 
LLC PAGE CROSSINGS (TLB MISS):         0 
LLC AVERAGE MISS LATENCY: 174.097 cycles

PageTableWalker TOTAL       ACCESS:     143549  
PageTableWalker AVERAGE LATENCY: 6.45484 cycles
PageTableWalker TOTAL LATENCY: 926585 cycles

DRAM Statistics
Channel 0
 RQ ROW_BUFFER_HIT:     654700
  ROW_BUFFER_MISS:    2552136
 AVG DBUS CONGESTED CYCLE:    3.65214
 WQ ROW_BUFFER_HIT:      67623
  ROW_BUFFER_MISS:      58231  FULL:          0

