last_page:0x200000000000000
VMEM_RES_CAP:0x100000
PAGE_SIZE:4096
LOG2_PAGE_SIZE:12
LOG2_PAGE_TABLE_SIZE:9
page_table_levels:5
WARNING: physical memory size is smaller than virtual memory size
FDiP enabled with aggresivity 16

*** ChampSim Multicore Out-of-Order Simulator ***

Warmup Instructions: 50000000
Simulation Instructions: 100000000
Number of CPUs: 1
Small page size: 4096
Large page size: 2097152

CPU 0 Bimodal branch predictor
Basic BTB sets: 1024 ways: 8 indirect buffer size: 4096 RAS size: 64
Instruction page size distrubution: 0
Loading instruction page size distribution from /home/bsc/bsc018186/scratch/itp_asplos25_AE/dump/smt_srv12_ap_srv526_ap_1024i.pdst
Data page size distrubution: 0
Loading data page size distribution from /home/bsc/bsc018186/scratch/itp_asplos25_AE/dump/smt_srv12_ap_srv526_ap_1024i.pdst
cpu0_L2C IP-based stride prefetcher
cpu0_L2C is using PTP replacement policy:
	TLB_STRESS_THRESHOLD:0
	PTE_EVICTION_RATIO:0
cpu0_L1D next line prefetcher
cpu0_L1I next line prefetcher
Off-chip DRAM Size: 4 GiB Channels: 1 Width: 64-bit Data Rate: 3200 MT/s
Heartbeat CPU 0 instructions: 10000000 cycles: 2500578 heartbeat IPC: 3.99908 cumulative IPC: 3.99908 (Simulation time: 0 hr 0 min 44 sec) 
Heartbeat CPU 0 instructions: 20000003 cycles: 5001054 heartbeat IPC: 3.99924 cumulative IPC: 3.99916 (Simulation time: 0 hr 1 min 29 sec) 
Heartbeat CPU 0 instructions: 30000001 cycles: 7610851 heartbeat IPC: 3.83172 cumulative IPC: 3.94175 (Simulation time: 0 hr 2 min 17 sec) 
Heartbeat CPU 0 instructions: 40000001 cycles: 10155864 heartbeat IPC: 3.92926 cumulative IPC: 3.93862 (Simulation time: 0 hr 3 min 6 sec) 
Heartbeat CPU 0 instructions: 50000003 cycles: 12682632 heartbeat IPC: 3.95763 cumulative IPC: 3.9424 (Simulation time: 0 hr 3 min 55 sec) 
Warmup finished CPU 0 instructions: 50000003 cycles: 12682633 cumulative IPC: 3.9424 (Simulation time: 0 hr 3 min 55 sec) 

Warmup complete CPU 0 instructions: 50000003 cycles: 12682633 (Simulation time: 0 hr 3 min 55 sec) 

Heartbeat CPU 0 instructions: 60000003 cycles: 43229587 heartbeat IPC: 0.327365 cumulative IPC: 0.327365 (Simulation time: 0 hr 5 min 34 sec) 
Heartbeat CPU 0 instructions: 70000004 cycles: 74683312 heartbeat IPC: 0.317928 cumulative IPC: 0.322578 (Simulation time: 0 hr 7 min 16 sec) 
Heartbeat CPU 0 instructions: 80000001 cycles: 105942153 heartbeat IPC: 0.31991 cumulative IPC: 0.321683 (Simulation time: 0 hr 8 min 57 sec) 
Heartbeat CPU 0 instructions: 90000000 cycles: 131704957 heartbeat IPC: 0.388157 cumulative IPC: 0.336072 (Simulation time: 0 hr 10 min 18 sec) 
Heartbeat CPU 0 instructions: 100000000 cycles: 161639775 heartbeat IPC: 0.33406 cumulative IPC: 0.335668 (Simulation time: 0 hr 11 min 45 sec) 
Heartbeat CPU 0 instructions: 110000000 cycles: 192614455 heartbeat IPC: 0.322845 cumulative IPC: 0.33346 (Simulation time: 0 hr 13 min 14 sec) 
Heartbeat CPU 0 instructions: 120000001 cycles: 221871648 heartbeat IPC: 0.341797 cumulative IPC: 0.334626 (Simulation time: 0 hr 14 min 39 sec) 
Heartbeat CPU 0 instructions: 130000002 cycles: 252246582 heartbeat IPC: 0.329219 cumulative IPC: 0.333941 (Simulation time: 0 hr 16 min 7 sec) 
Heartbeat CPU 0 instructions: 140000000 cycles: 283225796 heartbeat IPC: 0.322798 cumulative IPC: 0.332665 (Simulation time: 0 hr 17 min 35 sec) 
Heartbeat CPU 0 instructions: 150000002 cycles: 314375949 heartbeat IPC: 0.321026 cumulative IPC: 0.331463 (Simulation time: 0 hr 19 min 3 sec) 
Simulation finished CPU 0 instructions: 100000004 cycles: 301693318 cumulative IPC: 0.331463 (Simulation time: 0 hr 19 min 3 sec) 

Simulation complete CPU 0 instructions: 100000004 cycles: 301693318 (Simulation time: 0 hr 19 min 3 sec) 


ChampSim completed all CPUs

Saving instructions large page distribution to /home/bsc/bsc018186/scratch/itp_asplos25_AE/dump/smt_srv12_ap_srv526_ap_1024i.pdst...
Saving data large page distribution to /home/bsc/bsc018186/scratch/itp_asplos25_AE/dump/smt_srv12_ap_srv526_ap_1024i.pdst...
=== Simulation ===
CPU 0 runs /gpfs/projects/bsc18/MN4/bsc18/romol/ChampSim/traces/qualcomm_srv/smt_srv12_ap_srv526_ap_1024i.champsimtrace.xz

Region of Interest Statistics

CPU 0 cumulative IPC: 0.331463 instructions: 100000004 cycles: 301693318
CPU 0 Branch Prediction Accuracy: 75.201% MPKI: 44.9014 Average ROB Occupancy at Mispredict: 10.7755
Branch type MPKI
BRANCH_DIRECT_JUMP: 1.48248
BRANCH_INDIRECT: 23.0104
BRANCH_CONDITIONAL: 13.0108
BRANCH_DIRECT_CALL: 2.72019
BRANCH_INDIRECT_CALL: 1.11178
BRANCH_RETURN: 3.56577

Instructions large pages: 0
Instructions small pages: 15077
Large page distribution for instructions: 0%

Data large pages: 0
Data small pages: 13250
Large page distribution for data: 0%

cpu0_L1I TOTAL       ACCESS:   39101511  HIT:   30310769  MISS:    8790742  iACCESS:   39101511  iHIT:   30310769  iMISS:    8790742  dACCESS:          0  dHIT:          0  dMISS:          0  itACCESS:          0  itHIT:          0  itMISS:          0  dtACCESS:          0  dtHIT:          0  dtMISS:          0
cpu0_L1I LOAD         ACCESS:   11626832  HIT:    9221424  MISS:    2405408  iACCESS:   11626832  iHIT:    9221424  iMISS:    2405408  dACCESS:          0  dHIT:          0  dMISS:          0  itACCESS:          0  itHIT:          0  itMISS:          0  dtACCESS:          0  dtHIT:          0  dtMISS:          0
cpu0_L1I RFO          ACCESS:          0  HIT:          0  MISS:          0  iACCESS:          0  iHIT:          0  iMISS:          0  dACCESS:          0  dHIT:          0  dMISS:          0  itACCESS:          0  itHIT:          0  itMISS:          0  dtACCESS:          0  dtHIT:          0  dtMISS:          0
cpu0_L1I PREFETCH     ACCESS:   27474679  HIT:   21089345  MISS:    6385334  iACCESS:   27474679  iHIT:   21089345  iMISS:    6385334  dACCESS:          0  dHIT:          0  dMISS:          0  itACCESS:          0  itHIT:          0  itMISS:          0  dtACCESS:          0  dtHIT:          0  dtMISS:          0
cpu0_L1I WRITE        ACCESS:          0  HIT:          0  MISS:          0  iACCESS:          0  iHIT:          0  iMISS:          0  dACCESS:          0  dHIT:          0  dMISS:          0  itACCESS:          0  itHIT:          0  itMISS:          0  dtACCESS:          0  dtHIT:          0  dtMISS:          0
cpu0_L1I TRANSLATION  ACCESS:          0  HIT:          0  MISS:          0  iACCESS:          0  iHIT:          0  iMISS:          0  dACCESS:          0  dHIT:          0  dMISS:          0  itACCESS:          0  itHIT:          0  itMISS:          0  dtACCESS:          0  dtHIT:          0  dtMISS:          0
cpu0_L1I PREFETCH  REQUESTED:   30239169  ISSUED:   30239075  CROSSED:          0  USEFUL:    2215725  USELESS:     780734
cpu0_L1I AVERAGE iMISS LATENCY: 24.0695 cycles
cpu0_L1I AVERAGE dMISS LATENCY: 0 cycles
cpu0_L1I AVERAGE itMISS LATENCY: 0 cycles
cpu0_L1I AVERAGE dtMISS LATENCY: 0 cycles
cpu0_L1I PAGE CROSSINGS (TLB HIT):         0 
cpu0_L1I PAGE CROSSINGS (TLB MISS):         0 
cpu0_L1I AVERAGE MISS LATENCY: 24.0695 cycles
cpu0_ITLB TOTAL       ACCESS:   33173752  HIT:   30885555  MISS:    2288197  iACCESS:   33173752  iHIT:   30885555  iMISS:    2288197  dACCESS:          0  dHIT:          0  dMISS:          0  itACCESS:          0  itHIT:          0  itMISS:          0  dtACCESS:          0  dtHIT:          0  dtMISS:          0
cpu0_ITLB LOAD         ACCESS:   33173752  HIT:   30885555  MISS:    2288197  iACCESS:   33173752  iHIT:   30885555  iMISS:    2288197  dACCESS:          0  dHIT:          0  dMISS:          0  itACCESS:          0  itHIT:          0  itMISS:          0  dtACCESS:          0  dtHIT:          0  dtMISS:          0
cpu0_ITLB RFO          ACCESS:          0  HIT:          0  MISS:          0  iACCESS:          0  iHIT:          0  iMISS:          0  dACCESS:          0  dHIT:          0  dMISS:          0  itACCESS:          0  itHIT:          0  itMISS:          0  dtACCESS:          0  dtHIT:          0  dtMISS:          0
cpu0_ITLB PREFETCH     ACCESS:          0  HIT:          0  MISS:          0  iACCESS:          0  iHIT:          0  iMISS:          0  dACCESS:          0  dHIT:          0  dMISS:          0  itACCESS:          0  itHIT:          0  itMISS:          0  dtACCESS:          0  dtHIT:          0  dtMISS:          0
cpu0_ITLB WRITE        ACCESS:          0  HIT:          0  MISS:          0  iACCESS:          0  iHIT:          0  iMISS:          0  dACCESS:          0  dHIT:          0  dMISS:          0  itACCESS:          0  itHIT:          0  itMISS:          0  dtACCESS:          0  dtHIT:          0  dtMISS:          0
cpu0_ITLB TRANSLATION  ACCESS:          0  HIT:          0  MISS:          0  iACCESS:          0  iHIT:          0  iMISS:          0  dACCESS:          0  dHIT:          0  dMISS:          0  itACCESS:          0  itHIT:          0  itMISS:          0  dtACCESS:          0  dtHIT:          0  dtMISS:          0
cpu0_ITLB PREFETCH  REQUESTED:          0  ISSUED:          0  CROSSED:          0  USEFUL:     401554  USELESS:      85472
cpu0_ITLB AVERAGE iMISS LATENCY: 10.8699 cycles
cpu0_ITLB AVERAGE dMISS LATENCY: 0 cycles
cpu0_ITLB AVERAGE itMISS LATENCY: 0 cycles
cpu0_ITLB AVERAGE dtMISS LATENCY: 0 cycles
cpu0_ITLB PAGE CROSSINGS (TLB HIT):         0 
cpu0_ITLB PAGE CROSSINGS (TLB MISS):         0 
cpu0_ITLB AVERAGE MISS LATENCY: 10.8699 cycles
cpu0_DTLB TOTAL       ACCESS:   29018214  HIT:   25478654  MISS:    3539560  iACCESS:          0  iHIT:          0  iMISS:          0  dACCESS:   29018214  dHIT:   25478654  dMISS:    3539560  itACCESS:          0  itHIT:          0  itMISS:          0  dtACCESS:          0  dtHIT:          0  dtMISS:          0
cpu0_DTLB LOAD         ACCESS:   29018214  HIT:   25478654  MISS:    3539560  iACCESS:          0  iHIT:          0  iMISS:          0  dACCESS:   29018214  dHIT:   25478654  dMISS:    3539560  itACCESS:          0  itHIT:          0  itMISS:          0  dtACCESS:          0  dtHIT:          0  dtMISS:          0
cpu0_DTLB RFO          ACCESS:          0  HIT:          0  MISS:          0  iACCESS:          0  iHIT:          0  iMISS:          0  dACCESS:          0  dHIT:          0  dMISS:          0  itACCESS:          0  itHIT:          0  itMISS:          0  dtACCESS:          0  dtHIT:          0  dtMISS:          0
cpu0_DTLB PREFETCH     ACCESS:          0  HIT:          0  MISS:          0  iACCESS:          0  iHIT:          0  iMISS:          0  dACCESS:          0  dHIT:          0  dMISS:          0  itACCESS:          0  itHIT:          0  itMISS:          0  dtACCESS:          0  dtHIT:          0  dtMISS:          0
cpu0_DTLB WRITE        ACCESS:          0  HIT:          0  MISS:          0  iACCESS:          0  iHIT:          0  iMISS:          0  dACCESS:          0  dHIT:          0  dMISS:          0  itACCESS:          0  itHIT:          0  itMISS:          0  dtACCESS:          0  dtHIT:          0  dtMISS:          0
cpu0_DTLB TRANSLATION  ACCESS:          0  HIT:          0  MISS:          0  iACCESS:          0  iHIT:          0  iMISS:          0  dACCESS:          0  dHIT:          0  dMISS:          0  itACCESS:          0  itHIT:          0  itMISS:          0  dtACCESS:          0  dtHIT:          0  dtMISS:          0
cpu0_DTLB PREFETCH  REQUESTED:          0  ISSUED:          0  CROSSED:          0  USEFUL:          0  USELESS:          0
cpu0_DTLB AVERAGE iMISS LATENCY: 0 cycles
cpu0_DTLB AVERAGE dMISS LATENCY: 25.2253 cycles
cpu0_DTLB AVERAGE itMISS LATENCY: 0 cycles
cpu0_DTLB AVERAGE dtMISS LATENCY: 0 cycles
cpu0_DTLB PAGE CROSSINGS (TLB HIT):         0 
cpu0_DTLB PAGE CROSSINGS (TLB MISS):         0 
cpu0_DTLB AVERAGE MISS LATENCY: 25.2253 cycles
cpu0_STLB TOTAL       ACCESS:    2555184  HIT:    2174125  MISS:     381059  iACCESS:     487031  iHIT:     365187  iMISS:     121844  dACCESS:    2068153  dHIT:    1808938  dMISS:     259215  itACCESS:          0  itHIT:          0  itMISS:          0  dtACCESS:          0  dtHIT:          0  dtMISS:          0
cpu0_STLB LOAD         ACCESS:    2555184  HIT:    2174125  MISS:     381059  iACCESS:     487031  iHIT:     365187  iMISS:     121844  dACCESS:    2068153  dHIT:    1808938  dMISS:     259215  itACCESS:          0  itHIT:          0  itMISS:          0  dtACCESS:          0  dtHIT:          0  dtMISS:          0
cpu0_STLB RFO          ACCESS:          0  HIT:          0  MISS:          0  iACCESS:          0  iHIT:          0  iMISS:          0  dACCESS:          0  dHIT:          0  dMISS:          0  itACCESS:          0  itHIT:          0  itMISS:          0  dtACCESS:          0  dtHIT:          0  dtMISS:          0
cpu0_STLB PREFETCH     ACCESS:          0  HIT:          0  MISS:          0  iACCESS:          0  iHIT:          0  iMISS:          0  dACCESS:          0  dHIT:          0  dMISS:          0  itACCESS:          0  itHIT:          0  itMISS:          0  dtACCESS:          0  dtHIT:          0  dtMISS:          0
cpu0_STLB WRITE        ACCESS:          0  HIT:          0  MISS:          0  iACCESS:          0  iHIT:          0  iMISS:          0  dACCESS:          0  dHIT:          0  dMISS:          0  itACCESS:          0  itHIT:          0  itMISS:          0  dtACCESS:          0  dtHIT:          0  dtMISS:          0
cpu0_STLB TRANSLATION  ACCESS:          0  HIT:          0  MISS:          0  iACCESS:          0  iHIT:          0  iMISS:          0  dACCESS:          0  dHIT:          0  dMISS:          0  itACCESS:          0  itHIT:          0  itMISS:          0  dtACCESS:          0  dtHIT:          0  dtMISS:          0
cpu0_STLB PREFETCH  REQUESTED:          0  ISSUED:          0  CROSSED:          0  USEFUL:          0  USELESS:          0
cpu0_STLB AVERAGE iMISS LATENCY: 55.0365 cycles
cpu0_STLB AVERAGE dMISS LATENCY: 190.622 cycles
cpu0_STLB AVERAGE itMISS LATENCY: 0 cycles
cpu0_STLB AVERAGE dtMISS LATENCY: 0 cycles
cpu0_STLB PAGE CROSSINGS (TLB HIT):         0 
cpu0_STLB PAGE CROSSINGS (TLB MISS):         0 
cpu0_STLB AVERAGE MISS LATENCY: 245.658 cycles
cpu0_L1D TOTAL       ACCESS:   44803469  HIT:   39383637  MISS:    5419832  iACCESS:          0  iHIT:          0  iMISS:          0  dACCESS:   44238923  dHIT:   39348567  dMISS:    4890356  itACCESS:     136491  itHIT:      14561  itMISS:     121930  dtACCESS:     428055  dtHIT:      20509  dtMISS:     407546
cpu0_L1D LOAD         ACCESS:   20187349  HIT:   18015344  MISS:    2172005  iACCESS:          0  iHIT:          0  iMISS:          0  dACCESS:   20187349  dHIT:   18015344  dMISS:    2172005  itACCESS:          0  itHIT:          0  itMISS:          0  dtACCESS:          0  dtHIT:          0  dtMISS:          0
cpu0_L1D RFO          ACCESS:          0  HIT:          0  MISS:          0  iACCESS:          0  iHIT:          0  iMISS:          0  dACCESS:          0  dHIT:          0  dMISS:          0  itACCESS:          0  itHIT:          0  itMISS:          0  dtACCESS:          0  dtHIT:          0  dtMISS:          0
cpu0_L1D PREFETCH     ACCESS:   13801233  HIT:   11666868  MISS:    2134365  iACCESS:          0  iHIT:          0  iMISS:          0  dACCESS:   13801233  dHIT:   11666868  dMISS:    2134365  itACCESS:          0  itHIT:          0  itMISS:          0  dtACCESS:          0  dtHIT:          0  dtMISS:          0
cpu0_L1D WRITE        ACCESS:   10250341  HIT:    9666355  MISS:     583986  iACCESS:          0  iHIT:          0  iMISS:          0  dACCESS:   10250341  dHIT:    9666355  dMISS:     583986  itACCESS:          0  itHIT:          0  itMISS:          0  dtACCESS:          0  dtHIT:          0  dtMISS:          0
cpu0_L1D TRANSLATION  ACCESS:     564546  HIT:      35070  MISS:     529476  iACCESS:          0  iHIT:          0  iMISS:          0  dACCESS:          0  dHIT:          0  dMISS:          0  itACCESS:     136491  itHIT:      14561  itMISS:     121930  dtACCESS:     428055  dtHIT:      20509  dtMISS:     407546
cpu0_L1D PREFETCH  REQUESTED:   20187349  ISSUED:   18534121  CROSSED:          0  USEFUL:     355087  USELESS:     936651
cpu0_L1D AVERAGE iMISS LATENCY: 0 cycles
cpu0_L1D AVERAGE dMISS LATENCY: 51.9577 cycles
cpu0_L1D AVERAGE itMISS LATENCY: 3.64193 cycles
cpu0_L1D AVERAGE dtMISS LATENCY: 12.3464 cycles
cpu0_L1D PAGE CROSSINGS (TLB HIT):         0 
cpu0_L1D PAGE CROSSINGS (TLB MISS):         0 
cpu0_L1D AVERAGE MISS LATENCY: 67.9459 cycles
cpu0_L2C TOTAL       ACCESS:    8612073  HIT:    3994167  MISS:    4617906  iACCESS:    3819306  iHIT:    2208033  iMISS:    1611273  dACCESS:    4298663  dHIT:    1721818  dMISS:    2576845  itACCESS:     121520  itHIT:      19352  itMISS:     102168  dtACCESS:     372584  dtHIT:      44964  dtMISS:     327620
cpu0_L2C LOAD         ACCESS:    2061428  HIT:     953887  MISS:    1107541  iACCESS:     858850  iHIT:     515649  iMISS:     343201  dACCESS:    1202578  dHIT:     438238  dMISS:     764340  itACCESS:          0  itHIT:          0  itMISS:          0  dtACCESS:          0  dtHIT:          0  dtMISS:          0
cpu0_L2C RFO          ACCESS:     219180  HIT:      76676  MISS:     142504  iACCESS:          0  iHIT:          0  iMISS:          0  dACCESS:     219180  dHIT:      76676  dMISS:     142504  itACCESS:          0  itHIT:          0  itMISS:          0  dtACCESS:          0  dtHIT:          0  dtMISS:          0
cpu0_L2C PREFETCH     ACCESS:    5495950  HIT:    2576472  MISS:    2919478  iACCESS:    2960456  iHIT:    1692384  iMISS:    1268072  dACCESS:    2535494  dHIT:     884088  dMISS:    1651406  itACCESS:          0  itHIT:          0  itMISS:          0  dtACCESS:          0  dtHIT:          0  dtMISS:          0
cpu0_L2C WRITE        ACCESS:     341411  HIT:     322816  MISS:      18595  iACCESS:          0  iHIT:          0  iMISS:          0  dACCESS:     341411  dHIT:     322816  dMISS:      18595  itACCESS:          0  itHIT:          0  itMISS:          0  dtACCESS:          0  dtHIT:          0  dtMISS:          0
cpu0_L2C TRANSLATION  ACCESS:     494104  HIT:      64316  MISS:     429788  iACCESS:          0  iHIT:          0  iMISS:          0  dACCESS:          0  dHIT:          0  dMISS:          0  itACCESS:     121520  itHIT:      19352  itMISS:     102168  dtACCESS:     372584  dtHIT:      44964  dtMISS:     327620
cpu0_L2C PREFETCH  REQUESTED:    1473353  ISSUED:    1473353  CROSSED:          0  USEFUL:     352252  USELESS:     331949
cpu0_L2C AVERAGE iMISS LATENCY: 38.8136 cycles
cpu0_L2C AVERAGE dMISS LATENCY: 75.4346 cycles
cpu0_L2C AVERAGE itMISS LATENCY: 4.01464 cycles
cpu0_L2C AVERAGE dtMISS LATENCY: 13.6888 cycles
cpu0_L2C PAGE CROSSINGS (TLB HIT):         0 
cpu0_L2C PAGE CROSSINGS (TLB MISS):         0 
cpu0_L2C AVERAGE MISS LATENCY: 131.952 cycles
LLC TOTAL       ACCESS:    4608222  HIT:    1545979  MISS:    3062243  iACCESS:    1521489  iHIT:     564688  iMISS:     956801  dACCESS:    2656945  dHIT:     937945  dMISS:    1719000  itACCESS:     102168  itHIT:       9669  itMISS:      92499  dtACCESS:     327620  dtHIT:      33677  dtMISS:     293943
LLC LOAD         ACCESS:    1102680  HIT:     398069  MISS:     704611  iACCESS:     341984  iHIT:     137831  iMISS:     204153  dACCESS:     760696  dHIT:     260238  dMISS:     500458  itACCESS:          0  itHIT:          0  itMISS:          0  dtACCESS:          0  dtHIT:          0  dtMISS:          0
LLC RFO          ACCESS:     142499  HIT:      44569  MISS:      97930  iACCESS:          0  iHIT:          0  iMISS:          0  dACCESS:     142499  dHIT:      44569  dMISS:      97930  itACCESS:          0  itHIT:          0  itMISS:          0  dtACCESS:          0  dtHIT:          0  dtMISS:          0
LLC PREFETCH     ACCESS:    2718193  HIT:     854643  MISS:    1863550  iACCESS:    1179505  iHIT:     426857  iMISS:     752648  dACCESS:    1538688  dHIT:     427786  dMISS:    1110902  itACCESS:          0  itHIT:          0  itMISS:          0  dtACCESS:          0  dtHIT:          0  dtMISS:          0
LLC WRITE        ACCESS:     215062  HIT:     205352  MISS:       9710  iACCESS:          0  iHIT:          0  iMISS:          0  dACCESS:     215062  dHIT:     205352  dMISS:       9710  itACCESS:          0  itHIT:          0  itMISS:          0  dtACCESS:          0  dtHIT:          0  dtMISS:          0
LLC TRANSLATION  ACCESS:     429788  HIT:      43346  MISS:     386442  iACCESS:          0  iHIT:          0  iMISS:          0  dACCESS:          0  dHIT:          0  dMISS:          0  itACCESS:     102168  itHIT:       9669  itMISS:      92499  dtACCESS:     327620  dtHIT:      33677  dtMISS:     293943
LLC PREFETCH  REQUESTED:          0  ISSUED:          0  CROSSED:          0  USEFUL:          0  USELESS:          0
LLC AVERAGE iMISS LATENCY: 48.7682 cycles
LLC AVERAGE dMISS LATENCY: 98.6914 cycles
LLC AVERAGE itMISS LATENCY: 5.39297 cycles
LLC AVERAGE dtMISS LATENCY: 18.5281 cycles
LLC PAGE CROSSINGS (TLB HIT):         0 
LLC PAGE CROSSINGS (TLB MISS):         0 
LLC AVERAGE MISS LATENCY: 171.381 cycles

PageTableWalker TOTAL       ACCESS:     137632  
PageTableWalker AVERAGE LATENCY: 6.34296 cycles
PageTableWalker TOTAL LATENCY: 872993 cycles

DRAM Statistics
Channel 0
 RQ ROW_BUFFER_HIT:     662305
  ROW_BUFFER_MISS:    2379849
 AVG DBUS CONGESTED CYCLE:    3.64554
 WQ ROW_BUFFER_HIT:      65740
  ROW_BUFFER_MISS:      56476  FULL:          0

