last_page:0x200000000000000
VMEM_RES_CAP:0x100000
PAGE_SIZE:4096
LOG2_PAGE_SIZE:12
LOG2_PAGE_TABLE_SIZE:9
page_table_levels:5
WARNING: physical memory size is smaller than virtual memory size
FDiP enabled with aggresivity 16

*** ChampSim Multicore Out-of-Order Simulator ***

Warmup Instructions: 50000000
Simulation Instructions: 100000000
Number of CPUs: 1
Small page size: 4096
Large page size: 2097152

CPU 0 Bimodal branch predictor
Basic BTB sets: 1024 ways: 8 indirect buffer size: 4096 RAS size: 64
Instruction page size distrubution: 0
Loading instruction page size distribution from /home/bsc/bsc018186/scratch/itp_asplos25_AE/dump/smt_srv540_ap_srv727_ap_1024i.pdst
Data page size distrubution: 0
Loading data page size distribution from /home/bsc/bsc018186/scratch/itp_asplos25_AE/dump/smt_srv540_ap_srv727_ap_1024i.pdst
cpu0_L2C IP-based stride prefetcher
cpu0_L1D next line prefetcher
cpu0_STLB using iTP with max lru@8
cpu0_STLB using iTP with instr@0 and data@2
Init sat counter with 3 bits (max:50).
cpu0_L1I next line prefetcher
Off-chip DRAM Size: 4 GiB Channels: 1 Width: 64-bit Data Rate: 3200 MT/s
Heartbeat CPU 0 instructions: 10000000 cycles: 2500532 heartbeat IPC: 3.99915 cumulative IPC: 3.99915 (Simulation time: 0 hr 0 min 35 sec) 
Heartbeat CPU 0 instructions: 20000001 cycles: 5000658 heartbeat IPC: 3.9998 cumulative IPC: 3.99948 (Simulation time: 0 hr 1 min 12 sec) 
Heartbeat CPU 0 instructions: 30000001 cycles: 7500824 heartbeat IPC: 3.99974 cumulative IPC: 3.99957 (Simulation time: 0 hr 1 min 49 sec) 
Heartbeat CPU 0 instructions: 40000003 cycles: 10000993 heartbeat IPC: 3.99974 cumulative IPC: 3.99961 (Simulation time: 0 hr 2 min 28 sec) 
Heartbeat CPU 0 instructions: 50000002 cycles: 12501101 heartbeat IPC: 3.99983 cumulative IPC: 3.99965 (Simulation time: 0 hr 3 min 6 sec) 
Warmup finished CPU 0 instructions: 50000002 cycles: 12501102 cumulative IPC: 3.99965 (Simulation time: 0 hr 3 min 6 sec) 

Warmup complete CPU 0 instructions: 50000002 cycles: 12501102 (Simulation time: 0 hr 3 min 6 sec) 

Heartbeat CPU 0 instructions: 60000004 cycles: 39645225 heartbeat IPC: 0.368404 cumulative IPC: 0.368404 (Simulation time: 0 hr 4 min 24 sec) 
Heartbeat CPU 0 instructions: 70000004 cycles: 66817838 heartbeat IPC: 0.368018 cumulative IPC: 0.368211 (Simulation time: 0 hr 5 min 42 sec) 
Heartbeat CPU 0 instructions: 80000002 cycles: 94739740 heartbeat IPC: 0.358142 cumulative IPC: 0.364793 (Simulation time: 0 hr 7 min 2 sec) 
Heartbeat CPU 0 instructions: 90000000 cycles: 121993612 heartbeat IPC: 0.366921 cumulative IPC: 0.365322 (Simulation time: 0 hr 8 min 21 sec) 
Heartbeat CPU 0 instructions: 100000001 cycles: 150990331 heartbeat IPC: 0.344867 cumulative IPC: 0.361039 (Simulation time: 0 hr 9 min 43 sec) 
Heartbeat CPU 0 instructions: 110000000 cycles: 179076839 heartbeat IPC: 0.356043 cumulative IPC: 0.360197 (Simulation time: 0 hr 11 min 3 sec) 
Heartbeat CPU 0 instructions: 120000001 cycles: 207299098 heartbeat IPC: 0.354331 cumulative IPC: 0.359347 (Simulation time: 0 hr 12 min 24 sec) 
Heartbeat CPU 0 instructions: 130000001 cycles: 235097718 heartbeat IPC: 0.359731 cumulative IPC: 0.359395 (Simulation time: 0 hr 13 min 45 sec) 
Heartbeat CPU 0 instructions: 140000002 cycles: 263194631 heartbeat IPC: 0.355912 cumulative IPC: 0.359005 (Simulation time: 0 hr 15 min 6 sec) 
Heartbeat CPU 0 instructions: 150000001 cycles: 290793864 heartbeat IPC: 0.362329 cumulative IPC: 0.359334 (Simulation time: 0 hr 16 min 26 sec) 
Simulation finished CPU 0 instructions: 100000004 cycles: 278292764 cumulative IPC: 0.359334 (Simulation time: 0 hr 16 min 26 sec) 

Simulation complete CPU 0 instructions: 100000004 cycles: 278292764 (Simulation time: 0 hr 16 min 26 sec) 


ChampSim completed all CPUs

Saving instructions large page distribution to /home/bsc/bsc018186/scratch/itp_asplos25_AE/dump/smt_srv540_ap_srv727_ap_1024i.pdst...
Saving data large page distribution to /home/bsc/bsc018186/scratch/itp_asplos25_AE/dump/smt_srv540_ap_srv727_ap_1024i.pdst...
=== Simulation ===
CPU 0 runs /gpfs/projects/bsc18/MN4/bsc18/romol/ChampSim/traces/qualcomm_srv/smt_srv540_ap_srv727_ap_1024i.champsimtrace.xz

Region of Interest Statistics

CPU 0 cumulative IPC: 0.359334 instructions: 100000004 cycles: 278292764
CPU 0 Branch Prediction Accuracy: 75.1897% MPKI: 44.6915 Average ROB Occupancy at Mispredict: 10.7023
Branch type MPKI
BRANCH_DIRECT_JUMP: 1.37466
BRANCH_INDIRECT: 23.1064
BRANCH_CONDITIONAL: 13.0098
BRANCH_DIRECT_CALL: 2.66243
BRANCH_INDIRECT_CALL: 1.00783
BRANCH_RETURN: 3.53038

Instructions large pages: 0
Instructions small pages: 9524
Large page distribution for instructions: 0%

Data large pages: 0
Data small pages: 8152
Large page distribution for data: 0%

cpu0_L1I TOTAL       ACCESS:   39406304  HIT:   30250452  MISS:    9155852  iACCESS:   39406304  iHIT:   30250452  iMISS:    9155852  dACCESS:          0  dHIT:          0  dMISS:          0  itACCESS:          0  itHIT:          0  itMISS:          0  dtACCESS:          0  dtHIT:          0  dtMISS:          0
cpu0_L1I LOAD         ACCESS:   11747583  HIT:    9266402  MISS:    2481181  iACCESS:   11747583  iHIT:    9266402  iMISS:    2481181  dACCESS:          0  dHIT:          0  dMISS:          0  itACCESS:          0  itHIT:          0  itMISS:          0  dtACCESS:          0  dtHIT:          0  dtMISS:          0
cpu0_L1I RFO          ACCESS:          0  HIT:          0  MISS:          0  iACCESS:          0  iHIT:          0  iMISS:          0  dACCESS:          0  dHIT:          0  dMISS:          0  itACCESS:          0  itHIT:          0  itMISS:          0  dtACCESS:          0  dtHIT:          0  dtMISS:          0
cpu0_L1I PREFETCH     ACCESS:   27658721  HIT:   20984050  MISS:    6674671  iACCESS:   27658721  iHIT:   20984050  iMISS:    6674671  dACCESS:          0  dHIT:          0  dMISS:          0  itACCESS:          0  itHIT:          0  itMISS:          0  dtACCESS:          0  dtHIT:          0  dtMISS:          0
cpu0_L1I WRITE        ACCESS:          0  HIT:          0  MISS:          0  iACCESS:          0  iHIT:          0  iMISS:          0  dACCESS:          0  dHIT:          0  dMISS:          0  itACCESS:          0  itHIT:          0  itMISS:          0  dtACCESS:          0  dtHIT:          0  dtMISS:          0
cpu0_L1I TRANSLATION  ACCESS:          0  HIT:          0  MISS:          0  iACCESS:          0  iHIT:          0  iMISS:          0  dACCESS:          0  dHIT:          0  dMISS:          0  itACCESS:          0  itHIT:          0  itMISS:          0  dtACCESS:          0  dtHIT:          0  dtMISS:          0
cpu0_L1I PREFETCH  REQUESTED:   30252624  ISSUED:   30250909  CROSSED:          0  USEFUL:    2206272  USELESS:     759652
cpu0_L1I AVERAGE iMISS LATENCY: 24.4348 cycles
cpu0_L1I AVERAGE dMISS LATENCY: 0 cycles
cpu0_L1I AVERAGE itMISS LATENCY: 0 cycles
cpu0_L1I AVERAGE dtMISS LATENCY: 0 cycles
cpu0_L1I PAGE CROSSINGS (TLB HIT):         0 
cpu0_L1I PAGE CROSSINGS (TLB MISS):         0 
cpu0_L1I AVERAGE MISS LATENCY: 24.4348 cycles
cpu0_ITLB TOTAL       ACCESS:   33168776  HIT:   30954688  MISS:    2214088  iACCESS:   33168776  iHIT:   30954688  iMISS:    2214088  dACCESS:          0  dHIT:          0  dMISS:          0  itACCESS:          0  itHIT:          0  itMISS:          0  dtACCESS:          0  dtHIT:          0  dtMISS:          0
cpu0_ITLB LOAD         ACCESS:   33168776  HIT:   30954688  MISS:    2214088  iACCESS:   33168776  iHIT:   30954688  iMISS:    2214088  dACCESS:          0  dHIT:          0  dMISS:          0  itACCESS:          0  itHIT:          0  itMISS:          0  dtACCESS:          0  dtHIT:          0  dtMISS:          0
cpu0_ITLB RFO          ACCESS:          0  HIT:          0  MISS:          0  iACCESS:          0  iHIT:          0  iMISS:          0  dACCESS:          0  dHIT:          0  dMISS:          0  itACCESS:          0  itHIT:          0  itMISS:          0  dtACCESS:          0  dtHIT:          0  dtMISS:          0
cpu0_ITLB PREFETCH     ACCESS:          0  HIT:          0  MISS:          0  iACCESS:          0  iHIT:          0  iMISS:          0  dACCESS:          0  dHIT:          0  dMISS:          0  itACCESS:          0  itHIT:          0  itMISS:          0  dtACCESS:          0  dtHIT:          0  dtMISS:          0
cpu0_ITLB WRITE        ACCESS:          0  HIT:          0  MISS:          0  iACCESS:          0  iHIT:          0  iMISS:          0  dACCESS:          0  dHIT:          0  dMISS:          0  itACCESS:          0  itHIT:          0  itMISS:          0  dtACCESS:          0  dtHIT:          0  dtMISS:          0
cpu0_ITLB TRANSLATION  ACCESS:          0  HIT:          0  MISS:          0  iACCESS:          0  iHIT:          0  iMISS:          0  dACCESS:          0  dHIT:          0  dMISS:          0  itACCESS:          0  itHIT:          0  itMISS:          0  dtACCESS:          0  dtHIT:          0  dtMISS:          0
cpu0_ITLB PREFETCH  REQUESTED:          0  ISSUED:          0  CROSSED:          0  USEFUL:     387870  USELESS:      78811
cpu0_ITLB AVERAGE iMISS LATENCY: 5.83092 cycles
cpu0_ITLB AVERAGE dMISS LATENCY: 0 cycles
cpu0_ITLB AVERAGE itMISS LATENCY: 0 cycles
cpu0_ITLB AVERAGE dtMISS LATENCY: 0 cycles
cpu0_ITLB PAGE CROSSINGS (TLB HIT):         0 
cpu0_ITLB PAGE CROSSINGS (TLB MISS):         0 
cpu0_ITLB AVERAGE MISS LATENCY: 5.83092 cycles
cpu0_DTLB TOTAL       ACCESS:   28871086  HIT:   25272763  MISS:    3598323  iACCESS:          0  iHIT:          0  iMISS:          0  dACCESS:   28871086  dHIT:   25272763  dMISS:    3598323  itACCESS:          0  itHIT:          0  itMISS:          0  dtACCESS:          0  dtHIT:          0  dtMISS:          0
cpu0_DTLB LOAD         ACCESS:   28871086  HIT:   25272763  MISS:    3598323  iACCESS:          0  iHIT:          0  iMISS:          0  dACCESS:   28871086  dHIT:   25272763  dMISS:    3598323  itACCESS:          0  itHIT:          0  itMISS:          0  dtACCESS:          0  dtHIT:          0  dtMISS:          0
cpu0_DTLB RFO          ACCESS:          0  HIT:          0  MISS:          0  iACCESS:          0  iHIT:          0  iMISS:          0  dACCESS:          0  dHIT:          0  dMISS:          0  itACCESS:          0  itHIT:          0  itMISS:          0  dtACCESS:          0  dtHIT:          0  dtMISS:          0
cpu0_DTLB PREFETCH     ACCESS:          0  HIT:          0  MISS:          0  iACCESS:          0  iHIT:          0  iMISS:          0  dACCESS:          0  dHIT:          0  dMISS:          0  itACCESS:          0  itHIT:          0  itMISS:          0  dtACCESS:          0  dtHIT:          0  dtMISS:          0
cpu0_DTLB WRITE        ACCESS:          0  HIT:          0  MISS:          0  iACCESS:          0  iHIT:          0  iMISS:          0  dACCESS:          0  dHIT:          0  dMISS:          0  itACCESS:          0  itHIT:          0  itMISS:          0  dtACCESS:          0  dtHIT:          0  dtMISS:          0
cpu0_DTLB TRANSLATION  ACCESS:          0  HIT:          0  MISS:          0  iACCESS:          0  iHIT:          0  iMISS:          0  dACCESS:          0  dHIT:          0  dMISS:          0  itACCESS:          0  itHIT:          0  itMISS:          0  dtACCESS:          0  dtHIT:          0  dtMISS:          0
cpu0_DTLB PREFETCH  REQUESTED:          0  ISSUED:          0  CROSSED:          0  USEFUL:          0  USELESS:          0
cpu0_DTLB AVERAGE iMISS LATENCY: 0 cycles
cpu0_DTLB AVERAGE dMISS LATENCY: 19.0134 cycles
cpu0_DTLB AVERAGE itMISS LATENCY: 0 cycles
cpu0_DTLB AVERAGE dtMISS LATENCY: 0 cycles
cpu0_DTLB PAGE CROSSINGS (TLB HIT):         0 
cpu0_DTLB PAGE CROSSINGS (TLB MISS):         0 
cpu0_DTLB AVERAGE MISS LATENCY: 19.0134 cycles
cpu0_STLB TOTAL       ACCESS:    2573139  HIT:    2195398  MISS:     377741  iACCESS:     466684  iHIT:     406953  iMISS:      59731  dACCESS:    2106455  dHIT:    1788445  dMISS:     318010  itACCESS:          0  itHIT:          0  itMISS:          0  dtACCESS:          0  dtHIT:          0  dtMISS:          0
cpu0_STLB LOAD         ACCESS:    2573139  HIT:    2195398  MISS:     377741  iACCESS:     466684  iHIT:     406953  iMISS:      59731  dACCESS:    2106455  dHIT:    1788445  dMISS:     318010  itACCESS:          0  itHIT:          0  itMISS:          0  dtACCESS:          0  dtHIT:          0  dtMISS:          0
cpu0_STLB RFO          ACCESS:          0  HIT:          0  MISS:          0  iACCESS:          0  iHIT:          0  iMISS:          0  dACCESS:          0  dHIT:          0  dMISS:          0  itACCESS:          0  itHIT:          0  itMISS:          0  dtACCESS:          0  dtHIT:          0  dtMISS:          0
cpu0_STLB PREFETCH     ACCESS:          0  HIT:          0  MISS:          0  iACCESS:          0  iHIT:          0  iMISS:          0  dACCESS:          0  dHIT:          0  dMISS:          0  itACCESS:          0  itHIT:          0  itMISS:          0  dtACCESS:          0  dtHIT:          0  dtMISS:          0
cpu0_STLB WRITE        ACCESS:          0  HIT:          0  MISS:          0  iACCESS:          0  iHIT:          0  iMISS:          0  dACCESS:          0  dHIT:          0  dMISS:          0  itACCESS:          0  itHIT:          0  itMISS:          0  dtACCESS:          0  dtHIT:          0  dtMISS:          0
cpu0_STLB TRANSLATION  ACCESS:          0  HIT:          0  MISS:          0  iACCESS:          0  iHIT:          0  iMISS:          0  dACCESS:          0  dHIT:          0  dMISS:          0  itACCESS:          0  itHIT:          0  itMISS:          0  dtACCESS:          0  dtHIT:          0  dtMISS:          0
cpu0_STLB PREFETCH  REQUESTED:          0  ISSUED:          0  CROSSED:          0  USEFUL:          0  USELESS:          0
cpu0_STLB AVERAGE iMISS LATENCY: 24.4603 cycles
cpu0_STLB AVERAGE dMISS LATENCY: 136.155 cycles
cpu0_STLB AVERAGE itMISS LATENCY: 0 cycles
cpu0_STLB AVERAGE dtMISS LATENCY: 0 cycles
cpu0_STLB PAGE CROSSINGS (TLB HIT):         0 
cpu0_STLB PAGE CROSSINGS (TLB MISS):         0 
cpu0_STLB AVERAGE MISS LATENCY: 160.615 cycles
cpu0_L1D TOTAL       ACCESS:   44930415  HIT:   39100144  MISS:    5830271  iACCESS:          0  iHIT:          0  iMISS:          0  dACCESS:   44352929  dHIT:   39070379  dMISS:    5282550  itACCESS:      69920  itHIT:       5389  itMISS:      64531  dtACCESS:     507566  dtHIT:      24376  dtMISS:     483190
cpu0_L1D LOAD         ACCESS:   20288316  HIT:   17912658  MISS:    2375658  iACCESS:          0  iHIT:          0  iMISS:          0  dACCESS:   20288316  dHIT:   17912658  dMISS:    2375658  itACCESS:          0  itHIT:          0  itMISS:          0  dtACCESS:          0  dtHIT:          0  dtMISS:          0
cpu0_L1D RFO          ACCESS:          0  HIT:          0  MISS:          0  iACCESS:          0  iHIT:          0  iMISS:          0  dACCESS:          0  dHIT:          0  dMISS:          0  itACCESS:          0  itHIT:          0  itMISS:          0  dtACCESS:          0  dtHIT:          0  dtMISS:          0
cpu0_L1D PREFETCH     ACCESS:   13921261  HIT:   11598919  MISS:    2322342  iACCESS:          0  iHIT:          0  iMISS:          0  dACCESS:   13921261  dHIT:   11598919  dMISS:    2322342  itACCESS:          0  itHIT:          0  itMISS:          0  dtACCESS:          0  dtHIT:          0  dtMISS:          0
cpu0_L1D WRITE        ACCESS:   10143352  HIT:    9558802  MISS:     584550  iACCESS:          0  iHIT:          0  iMISS:          0  dACCESS:   10143352  dHIT:    9558802  dMISS:     584550  itACCESS:          0  itHIT:          0  itMISS:          0  dtACCESS:          0  dtHIT:          0  dtMISS:          0
cpu0_L1D TRANSLATION  ACCESS:     577486  HIT:      29765  MISS:     547721  iACCESS:          0  iHIT:          0  iMISS:          0  dACCESS:          0  dHIT:          0  dMISS:          0  itACCESS:      69920  itHIT:       5389  itMISS:      64531  dtACCESS:     507566  dtHIT:      24376  dtMISS:     483190
cpu0_L1D PREFETCH  REQUESTED:   20288316  ISSUED:   18442407  CROSSED:          0  USEFUL:     361654  USELESS:     928348
cpu0_L1D AVERAGE iMISS LATENCY: 0 cycles
cpu0_L1D AVERAGE dMISS LATENCY: 50.252 cycles
cpu0_L1D AVERAGE itMISS LATENCY: 1.48081 cycles
cpu0_L1D AVERAGE dtMISS LATENCY: 7.96395 cycles
cpu0_L1D PAGE CROSSINGS (TLB HIT):         0 
cpu0_L1D PAGE CROSSINGS (TLB MISS):         0 
cpu0_L1D AVERAGE MISS LATENCY: 59.6968 cycles
cpu0_L2C TOTAL       ACCESS:    8645523  HIT:    1577544  MISS:    7067979  iACCESS:    3764982  iHIT:     827276  iMISS:    2937706  dACCESS:    4362628  dHIT:     543147  dMISS:    3819481  itACCESS:      64335  itHIT:      15723  itMISS:      48612  dtACCESS:     453578  dtHIT:     191398  dtMISS:     262180
cpu0_L2C LOAD         ACCESS:    2035898  HIT:     207668  MISS:    1828230  iACCESS:     835747  iHIT:     115721  iMISS:     720026  dACCESS:    1200151  dHIT:      91947  dMISS:    1108204  itACCESS:          0  itHIT:          0  itMISS:          0  dtACCESS:          0  dtHIT:          0  dtMISS:          0
cpu0_L2C RFO          ACCESS:     220197  HIT:      29485  MISS:     190712  iACCESS:          0  iHIT:          0  iMISS:          0  dACCESS:     220197  dHIT:      29485  dMISS:     190712  itACCESS:          0  itHIT:          0  itMISS:          0  dtACCESS:          0  dtHIT:          0  dtMISS:          0
cpu0_L2C PREFETCH     ACCESS:    5524733  HIT:    1033229  MISS:    4491504  iACCESS:    2929235  iHIT:     711555  iMISS:    2217680  dACCESS:    2595498  dHIT:     321674  dMISS:    2273824  itACCESS:          0  itHIT:          0  itMISS:          0  dtACCESS:          0  dtHIT:          0  dtMISS:          0
cpu0_L2C WRITE        ACCESS:     346782  HIT:     100041  MISS:     246741  iACCESS:          0  iHIT:          0  iMISS:          0  dACCESS:     346782  dHIT:     100041  dMISS:     246741  itACCESS:          0  itHIT:          0  itMISS:          0  dtACCESS:          0  dtHIT:          0  dtMISS:          0
cpu0_L2C TRANSLATION  ACCESS:     517913  HIT:     207121  MISS:     310792  iACCESS:          0  iHIT:          0  iMISS:          0  dACCESS:          0  dHIT:          0  dMISS:          0  itACCESS:      64335  itHIT:      15723  itMISS:      48612  dtACCESS:     453578  dtHIT:     191398  dtMISS:     262180
cpu0_L2C PREFETCH  REQUESTED:    1547993  ISSUED:    1547991  CROSSED:          0  USEFUL:     415261  USELESS:     492727
cpu0_L2C AVERAGE iMISS LATENCY: 27.1217 cycles
cpu0_L2C AVERAGE dMISS LATENCY: 51.1999 cycles
cpu0_L2C AVERAGE itMISS LATENCY: 1.13244 cycles
cpu0_L2C AVERAGE dtMISS LATENCY: 5.95176 cycles
cpu0_L2C PAGE CROSSINGS (TLB HIT):         0 
cpu0_L2C PAGE CROSSINGS (TLB MISS):         0 
cpu0_L2C AVERAGE MISS LATENCY: 85.4057 cycles
LLC TOTAL       ACCESS:    6869181  HIT:    4104684  MISS:    2764497  iACCESS:    2844119  iHIT:    1981847  iMISS:     862272  dACCESS:    3714270  dHIT:    2045269  dMISS:    1669001  itACCESS:      48612  itHIT:       9277  itMISS:      39335  dtACCESS:     262180  dtHIT:      68291  dtMISS:     193889
LLC LOAD         ACCESS:    1820478  HIT:    1155674  MISS:     664804  iACCESS:     718617  iHIT:     536565  iMISS:     182052  dACCESS:    1101861  dHIT:     619109  dMISS:     482752  itACCESS:          0  itHIT:          0  itMISS:          0  dtACCESS:          0  dtHIT:          0  dtMISS:          0
LLC RFO          ACCESS:     190693  HIT:      95940  MISS:      94753  iACCESS:          0  iHIT:          0  iMISS:          0  dACCESS:     190693  dHIT:      95940  dMISS:      94753  itACCESS:          0  itHIT:          0  itMISS:          0  dtACCESS:          0  dtHIT:          0  dtMISS:          0
LLC PREFETCH     ACCESS:    4271364  HIT:    2506031  MISS:    1765333  iACCESS:    2125502  iHIT:    1445282  iMISS:     680220  dACCESS:    2145862  dHIT:    1060749  dMISS:    1085113  itACCESS:          0  itHIT:          0  itMISS:          0  dtACCESS:          0  dtHIT:          0  dtMISS:          0
LLC WRITE        ACCESS:     275854  HIT:     269471  MISS:       6383  iACCESS:          0  iHIT:          0  iMISS:          0  dACCESS:     275854  dHIT:     269471  dMISS:       6383  itACCESS:          0  itHIT:          0  itMISS:          0  dtACCESS:          0  dtHIT:          0  dtMISS:          0
LLC TRANSLATION  ACCESS:     310792  HIT:      77568  MISS:     233224  iACCESS:          0  iHIT:          0  iMISS:          0  dACCESS:          0  dHIT:          0  dMISS:          0  itACCESS:      48612  itHIT:       9277  itMISS:      39335  dtACCESS:     262180  dtHIT:      68291  dtMISS:     193889
LLC PREFETCH  REQUESTED:          0  ISSUED:          0  CROSSED:          0  USEFUL:          0  USELESS:          0
LLC AVERAGE iMISS LATENCY: 49.3582 cycles
LLC AVERAGE dMISS LATENCY: 107.707 cycles
LLC AVERAGE itMISS LATENCY: 2.54832 cycles
LLC AVERAGE dtMISS LATENCY: 13.3506 cycles
LLC PAGE CROSSINGS (TLB HIT):         0 
LLC PAGE CROSSINGS (TLB MISS):         0 
LLC AVERAGE MISS LATENCY: 172.964 cycles

PageTableWalker TOTAL       ACCESS:     188014  
PageTableWalker AVERAGE LATENCY: 6.13421 cycles
PageTableWalker TOTAL LATENCY: 1153316 cycles

DRAM Statistics
Channel 0
 RQ ROW_BUFFER_HIT:     602333
  ROW_BUFFER_MISS:    2136365
 AVG DBUS CONGESTED CYCLE:    3.65787
 WQ ROW_BUFFER_HIT:      66958
  ROW_BUFFER_MISS:      64920  FULL:          0

