last_page:0x200000000000000
VMEM_RES_CAP:0x100000
PAGE_SIZE:4096
LOG2_PAGE_SIZE:12
LOG2_PAGE_TABLE_SIZE:9
page_table_levels:5
WARNING: physical memory size is smaller than virtual memory size
FDiP enabled with aggresivity 16

*** ChampSim Multicore Out-of-Order Simulator ***

Warmup Instructions: 50000000
Simulation Instructions: 100000000
Number of CPUs: 1
Small page size: 4096
Large page size: 2097152

CPU 0 Bimodal branch predictor
Basic BTB sets: 1024 ways: 8 indirect buffer size: 4096 RAS size: 64
Instruction page size distrubution: 0
Loading instruction page size distribution from /home/bsc/bsc018186/scratch/itp_asplos25_AE/dump/smt_srv85_ap_srv73_ap_1024i.pdst
Data page size distrubution: 0
Loading data page size distribution from /home/bsc/bsc018186/scratch/itp_asplos25_AE/dump/smt_srv85_ap_srv73_ap_1024i.pdst
cpu0_L2C IP-based stride prefetcher
cpu0_L1D next line prefetcher
cpu0_L1I next line prefetcher
Off-chip DRAM Size: 4 GiB Channels: 1 Width: 64-bit Data Rate: 3200 MT/s
Heartbeat CPU 0 instructions: 10000003 cycles: 2500759 heartbeat IPC: 3.99879 cumulative IPC: 3.99879 (Simulation time: 0 hr 0 min 40 sec) 
Heartbeat CPU 0 instructions: 20000000 cycles: 5001257 heartbeat IPC: 3.99921 cumulative IPC: 3.999 (Simulation time: 0 hr 1 min 23 sec) 
Heartbeat CPU 0 instructions: 30000002 cycles: 7501593 heartbeat IPC: 3.99947 cumulative IPC: 3.99916 (Simulation time: 0 hr 2 min 6 sec) 
Heartbeat CPU 0 instructions: 40000001 cycles: 10002084 heartbeat IPC: 3.99922 cumulative IPC: 3.99917 (Simulation time: 0 hr 2 min 49 sec) 
Heartbeat CPU 0 instructions: 50000000 cycles: 12503803 heartbeat IPC: 3.99726 cumulative IPC: 3.99879 (Simulation time: 0 hr 3 min 33 sec) 
Warmup finished CPU 0 instructions: 50000000 cycles: 12503804 cumulative IPC: 3.99879 (Simulation time: 0 hr 3 min 33 sec) 

Warmup complete CPU 0 instructions: 50000000 cycles: 12503804 (Simulation time: 0 hr 3 min 33 sec) 

Heartbeat CPU 0 instructions: 60000004 cycles: 35793106 heartbeat IPC: 0.429382 cumulative IPC: 0.429382 (Simulation time: 0 hr 4 min 52 sec) 
Heartbeat CPU 0 instructions: 70000003 cycles: 57164571 heartbeat IPC: 0.467914 cumulative IPC: 0.447821 (Simulation time: 0 hr 6 min 8 sec) 
Heartbeat CPU 0 instructions: 80000000 cycles: 79595433 heartbeat IPC: 0.445815 cumulative IPC: 0.44715 (Simulation time: 0 hr 7 min 35 sec) 
Heartbeat CPU 0 instructions: 90000002 cycles: 108442105 heartbeat IPC: 0.346661 cumulative IPC: 0.416935 (Simulation time: 0 hr 9 min 15 sec) 
Heartbeat CPU 0 instructions: 100000000 cycles: 138157493 heartbeat IPC: 0.336526 cumulative IPC: 0.39792 (Simulation time: 0 hr 10 min 55 sec) 
Heartbeat CPU 0 instructions: 110000001 cycles: 167519103 heartbeat IPC: 0.340581 cumulative IPC: 0.387059 (Simulation time: 0 hr 12 min 37 sec) 
Heartbeat CPU 0 instructions: 120000001 cycles: 195486227 heartbeat IPC: 0.357563 cumulative IPC: 0.382551 (Simulation time: 0 hr 14 min 17 sec) 
Heartbeat CPU 0 instructions: 130000000 cycles: 213390526 heartbeat IPC: 0.558526 cumulative IPC: 0.398235 (Simulation time: 0 hr 15 min 44 sec) 
Heartbeat CPU 0 instructions: 140000004 cycles: 233915579 heartbeat IPC: 0.48721 cumulative IPC: 0.406483 (Simulation time: 0 hr 17 min 15 sec) 
Heartbeat CPU 0 instructions: 150000000 cycles: 262901254 heartbeat IPC: 0.344998 cumulative IPC: 0.399366 (Simulation time: 0 hr 18 min 56 sec) 
Simulation finished CPU 0 instructions: 100000000 cycles: 250397451 cumulative IPC: 0.399366 (Simulation time: 0 hr 18 min 56 sec) 

Simulation complete CPU 0 instructions: 100000000 cycles: 250397451 (Simulation time: 0 hr 18 min 56 sec) 


ChampSim completed all CPUs

Saving instructions large page distribution to /home/bsc/bsc018186/scratch/itp_asplos25_AE/dump/smt_srv85_ap_srv73_ap_1024i.pdst...
Saving data large page distribution to /home/bsc/bsc018186/scratch/itp_asplos25_AE/dump/smt_srv85_ap_srv73_ap_1024i.pdst...
=== Simulation ===
CPU 0 runs /gpfs/projects/bsc18/MN4/bsc18/romol/ChampSim/traces/qualcomm_srv/smt_srv85_ap_srv73_ap_1024i.champsimtrace.xz

Region of Interest Statistics

CPU 0 cumulative IPC: 0.399366 instructions: 100000000 cycles: 250397451
CPU 0 Branch Prediction Accuracy: 77.8344% MPKI: 42.992 Average ROB Occupancy at Mispredict: 11.1313
Branch type MPKI
BRANCH_DIRECT_JUMP: 1.10548
BRANCH_INDIRECT: 23.0236
BRANCH_CONDITIONAL: 12.2427
BRANCH_DIRECT_CALL: 2.01561
BRANCH_INDIRECT_CALL: 1.67552
BRANCH_RETURN: 2.92912

Instructions large pages: 0
Instructions small pages: 11330
Large page distribution for instructions: 0%

Data large pages: 0
Data small pages: 9490
Large page distribution for data: 0%

cpu0_L1I TOTAL       ACCESS:   38509513  HIT:   30957482  MISS:    7552031  iACCESS:   38509513  iHIT:   30957482  iMISS:    7552031  dACCESS:          0  dHIT:          0  dMISS:          0  itACCESS:          0  itHIT:          0  itMISS:          0  dtACCESS:          0  dtHIT:          0  dtMISS:          0
cpu0_L1I LOAD         ACCESS:   10671659  HIT:    8604658  MISS:    2067001  iACCESS:   10671659  iHIT:    8604658  iMISS:    2067001  dACCESS:          0  dHIT:          0  dMISS:          0  itACCESS:          0  itHIT:          0  itMISS:          0  dtACCESS:          0  dtHIT:          0  dtMISS:          0
cpu0_L1I RFO          ACCESS:          0  HIT:          0  MISS:          0  iACCESS:          0  iHIT:          0  iMISS:          0  dACCESS:          0  dHIT:          0  dMISS:          0  itACCESS:          0  itHIT:          0  itMISS:          0  dtACCESS:          0  dtHIT:          0  dtMISS:          0
cpu0_L1I PREFETCH     ACCESS:   27837854  HIT:   22352824  MISS:    5485030  iACCESS:   27837854  iHIT:   22352824  iMISS:    5485030  dACCESS:          0  dHIT:          0  dMISS:          0  itACCESS:          0  itHIT:          0  itMISS:          0  dtACCESS:          0  dtHIT:          0  dtMISS:          0
cpu0_L1I WRITE        ACCESS:          0  HIT:          0  MISS:          0  iACCESS:          0  iHIT:          0  iMISS:          0  dACCESS:          0  dHIT:          0  dMISS:          0  itACCESS:          0  itHIT:          0  itMISS:          0  dtACCESS:          0  dtHIT:          0  dtMISS:          0
cpu0_L1I TRANSLATION  ACCESS:          0  HIT:          0  MISS:          0  iACCESS:          0  iHIT:          0  iMISS:          0  dACCESS:          0  dHIT:          0  dMISS:          0  itACCESS:          0  itHIT:          0  itMISS:          0  dtACCESS:          0  dtHIT:          0  dtMISS:          0
cpu0_L1I PREFETCH  REQUESTED:   30112884  ISSUED:   30111762  CROSSED:          0  USEFUL:    1804457  USELESS:     648993
cpu0_L1I AVERAGE iMISS LATENCY: 24.2142 cycles
cpu0_L1I AVERAGE dMISS LATENCY: 0 cycles
cpu0_L1I AVERAGE itMISS LATENCY: 0 cycles
cpu0_L1I AVERAGE dtMISS LATENCY: 0 cycles
cpu0_L1I PAGE CROSSINGS (TLB HIT):         0 
cpu0_L1I PAGE CROSSINGS (TLB MISS):         0 
cpu0_L1I AVERAGE MISS LATENCY: 24.2142 cycles
cpu0_ITLB TOTAL       ACCESS:   32408779  HIT:   30556082  MISS:    1852697  iACCESS:   32408779  iHIT:   30556082  iMISS:    1852697  dACCESS:          0  dHIT:          0  dMISS:          0  itACCESS:          0  itHIT:          0  itMISS:          0  dtACCESS:          0  dtHIT:          0  dtMISS:          0
cpu0_ITLB LOAD         ACCESS:   32408779  HIT:   30556082  MISS:    1852697  iACCESS:   32408779  iHIT:   30556082  iMISS:    1852697  dACCESS:          0  dHIT:          0  dMISS:          0  itACCESS:          0  itHIT:          0  itMISS:          0  dtACCESS:          0  dtHIT:          0  dtMISS:          0
cpu0_ITLB RFO          ACCESS:          0  HIT:          0  MISS:          0  iACCESS:          0  iHIT:          0  iMISS:          0  dACCESS:          0  dHIT:          0  dMISS:          0  itACCESS:          0  itHIT:          0  itMISS:          0  dtACCESS:          0  dtHIT:          0  dtMISS:          0
cpu0_ITLB PREFETCH     ACCESS:          0  HIT:          0  MISS:          0  iACCESS:          0  iHIT:          0  iMISS:          0  dACCESS:          0  dHIT:          0  dMISS:          0  itACCESS:          0  itHIT:          0  itMISS:          0  dtACCESS:          0  dtHIT:          0  dtMISS:          0
cpu0_ITLB WRITE        ACCESS:          0  HIT:          0  MISS:          0  iACCESS:          0  iHIT:          0  iMISS:          0  dACCESS:          0  dHIT:          0  dMISS:          0  itACCESS:          0  itHIT:          0  itMISS:          0  dtACCESS:          0  dtHIT:          0  dtMISS:          0
cpu0_ITLB TRANSLATION  ACCESS:          0  HIT:          0  MISS:          0  iACCESS:          0  iHIT:          0  iMISS:          0  dACCESS:          0  dHIT:          0  dMISS:          0  itACCESS:          0  itHIT:          0  itMISS:          0  dtACCESS:          0  dtHIT:          0  dtMISS:          0
cpu0_ITLB PREFETCH  REQUESTED:          0  ISSUED:          0  CROSSED:          0  USEFUL:     327515  USELESS:      68455
cpu0_ITLB AVERAGE iMISS LATENCY: 8.06326 cycles
cpu0_ITLB AVERAGE dMISS LATENCY: 0 cycles
cpu0_ITLB AVERAGE itMISS LATENCY: 0 cycles
cpu0_ITLB AVERAGE dtMISS LATENCY: 0 cycles
cpu0_ITLB PAGE CROSSINGS (TLB HIT):         0 
cpu0_ITLB PAGE CROSSINGS (TLB MISS):         0 
cpu0_ITLB AVERAGE MISS LATENCY: 8.06326 cycles
cpu0_DTLB TOTAL       ACCESS:   31284362  HIT:   25955329  MISS:    5329033  iACCESS:          0  iHIT:          0  iMISS:          0  dACCESS:   31284362  dHIT:   25955329  dMISS:    5329033  itACCESS:          0  itHIT:          0  itMISS:          0  dtACCESS:          0  dtHIT:          0  dtMISS:          0
cpu0_DTLB LOAD         ACCESS:   31284362  HIT:   25955329  MISS:    5329033  iACCESS:          0  iHIT:          0  iMISS:          0  dACCESS:   31284362  dHIT:   25955329  dMISS:    5329033  itACCESS:          0  itHIT:          0  itMISS:          0  dtACCESS:          0  dtHIT:          0  dtMISS:          0
cpu0_DTLB RFO          ACCESS:          0  HIT:          0  MISS:          0  iACCESS:          0  iHIT:          0  iMISS:          0  dACCESS:          0  dHIT:          0  dMISS:          0  itACCESS:          0  itHIT:          0  itMISS:          0  dtACCESS:          0  dtHIT:          0  dtMISS:          0
cpu0_DTLB PREFETCH     ACCESS:          0  HIT:          0  MISS:          0  iACCESS:          0  iHIT:          0  iMISS:          0  dACCESS:          0  dHIT:          0  dMISS:          0  itACCESS:          0  itHIT:          0  itMISS:          0  dtACCESS:          0  dtHIT:          0  dtMISS:          0
cpu0_DTLB WRITE        ACCESS:          0  HIT:          0  MISS:          0  iACCESS:          0  iHIT:          0  iMISS:          0  dACCESS:          0  dHIT:          0  dMISS:          0  itACCESS:          0  itHIT:          0  itMISS:          0  dtACCESS:          0  dtHIT:          0  dtMISS:          0
cpu0_DTLB TRANSLATION  ACCESS:          0  HIT:          0  MISS:          0  iACCESS:          0  iHIT:          0  iMISS:          0  dACCESS:          0  dHIT:          0  dMISS:          0  itACCESS:          0  itHIT:          0  itMISS:          0  dtACCESS:          0  dtHIT:          0  dtMISS:          0
cpu0_DTLB PREFETCH  REQUESTED:          0  ISSUED:          0  CROSSED:          0  USEFUL:          0  USELESS:          0
cpu0_DTLB AVERAGE iMISS LATENCY: 0 cycles
cpu0_DTLB AVERAGE dMISS LATENCY: 11.1454 cycles
cpu0_DTLB AVERAGE itMISS LATENCY: 0 cycles
cpu0_DTLB AVERAGE dtMISS LATENCY: 0 cycles
cpu0_DTLB PAGE CROSSINGS (TLB HIT):         0 
cpu0_DTLB PAGE CROSSINGS (TLB MISS):         0 
cpu0_DTLB AVERAGE MISS LATENCY: 11.1454 cycles
cpu0_STLB TOTAL       ACCESS:    3282985  HIT:    2987897  MISS:     295088  iACCESS:     395972  iHIT:     304825  iMISS:      91147  dACCESS:    2887013  dHIT:    2683072  dMISS:     203941  itACCESS:          0  itHIT:          0  itMISS:          0  dtACCESS:          0  dtHIT:          0  dtMISS:          0
cpu0_STLB LOAD         ACCESS:    3282985  HIT:    2987897  MISS:     295088  iACCESS:     395972  iHIT:     304825  iMISS:      91147  dACCESS:    2887013  dHIT:    2683072  dMISS:     203941  itACCESS:          0  itHIT:          0  itMISS:          0  dtACCESS:          0  dtHIT:          0  dtMISS:          0
cpu0_STLB RFO          ACCESS:          0  HIT:          0  MISS:          0  iACCESS:          0  iHIT:          0  iMISS:          0  dACCESS:          0  dHIT:          0  dMISS:          0  itACCESS:          0  itHIT:          0  itMISS:          0  dtACCESS:          0  dtHIT:          0  dtMISS:          0
cpu0_STLB PREFETCH     ACCESS:          0  HIT:          0  MISS:          0  iACCESS:          0  iHIT:          0  iMISS:          0  dACCESS:          0  dHIT:          0  dMISS:          0  itACCESS:          0  itHIT:          0  itMISS:          0  dtACCESS:          0  dtHIT:          0  dtMISS:          0
cpu0_STLB WRITE        ACCESS:          0  HIT:          0  MISS:          0  iACCESS:          0  iHIT:          0  iMISS:          0  dACCESS:          0  dHIT:          0  dMISS:          0  itACCESS:          0  itHIT:          0  itMISS:          0  dtACCESS:          0  dtHIT:          0  dtMISS:          0
cpu0_STLB TRANSLATION  ACCESS:          0  HIT:          0  MISS:          0  iACCESS:          0  iHIT:          0  iMISS:          0  dACCESS:          0  dHIT:          0  dMISS:          0  itACCESS:          0  itHIT:          0  itMISS:          0  dtACCESS:          0  dtHIT:          0  dtMISS:          0
cpu0_STLB PREFETCH  REQUESTED:          0  ISSUED:          0  CROSSED:          0  USEFUL:          0  USELESS:          0
cpu0_STLB AVERAGE iMISS LATENCY: 39.916 cycles
cpu0_STLB AVERAGE dMISS LATENCY: 122.288 cycles
cpu0_STLB AVERAGE itMISS LATENCY: 0 cycles
cpu0_STLB AVERAGE dtMISS LATENCY: 0 cycles
cpu0_STLB PAGE CROSSINGS (TLB HIT):         0 
cpu0_STLB PAGE CROSSINGS (TLB MISS):         0 
cpu0_STLB AVERAGE MISS LATENCY: 162.204 cycles
cpu0_L1D TOTAL       ACCESS:   50391314  HIT:   40803226  MISS:    9588088  iACCESS:          0  iHIT:          0  iMISS:          0  dACCESS:   49916078  dHIT:   40779745  dMISS:    9136333  itACCESS:     112079  itHIT:       9898  itMISS:     102181  dtACCESS:     363157  dtHIT:      13583  dtMISS:     349574
cpu0_L1D LOAD         ACCESS:   24141382  HIT:   19298845  MISS:    4842537  iACCESS:          0  iHIT:          0  iMISS:          0  dACCESS:   24141382  dHIT:   19298845  dMISS:    4842537  itACCESS:          0  itHIT:          0  itMISS:          0  dtACCESS:          0  dtHIT:          0  dtMISS:          0
cpu0_L1D RFO          ACCESS:          0  HIT:          0  MISS:          0  iACCESS:          0  iHIT:          0  iMISS:          0  dACCESS:          0  dHIT:          0  dMISS:          0  itACCESS:          0  itHIT:          0  itMISS:          0  dtACCESS:          0  dtHIT:          0  dtMISS:          0
cpu0_L1D PREFETCH     ACCESS:   15940428  HIT:   12438005  MISS:    3502423  iACCESS:          0  iHIT:          0  iMISS:          0  dACCESS:   15940428  dHIT:   12438005  dMISS:    3502423  itACCESS:          0  itHIT:          0  itMISS:          0  dtACCESS:          0  dtHIT:          0  dtMISS:          0
cpu0_L1D WRITE        ACCESS:    9834268  HIT:    9042895  MISS:     791373  iACCESS:          0  iHIT:          0  iMISS:          0  dACCESS:    9834268  dHIT:    9042895  dMISS:     791373  itACCESS:          0  itHIT:          0  itMISS:          0  dtACCESS:          0  dtHIT:          0  dtMISS:          0
cpu0_L1D TRANSLATION  ACCESS:     475236  HIT:      23481  MISS:     451755  iACCESS:          0  iHIT:          0  iMISS:          0  dACCESS:          0  dHIT:          0  dMISS:          0  itACCESS:     112079  itHIT:       9898  itMISS:     102181  dtACCESS:     363157  dtHIT:      13583  dtMISS:     349574
cpu0_L1D PREFETCH  REQUESTED:   24141382  ISSUED:   19751356  CROSSED:          0  USEFUL:     342037  USELESS:    1045042
cpu0_L1D AVERAGE iMISS LATENCY: 0 cycles
cpu0_L1D AVERAGE dMISS LATENCY: 30.611 cycles
cpu0_L1D AVERAGE itMISS LATENCY: 1.12948 cycles
cpu0_L1D AVERAGE dtMISS LATENCY: 3.37457 cycles
cpu0_L1D PAGE CROSSINGS (TLB HIT):         0 
cpu0_L1D PAGE CROSSINGS (TLB MISS):         0 
cpu0_L1D AVERAGE MISS LATENCY: 35.115 cycles
cpu0_L2C TOTAL       ACCESS:    9129328  HIT:    1873603  MISS:    7255725  iACCESS:    3123399  iHIT:     674236  iMISS:    2449163  dACCESS:    5626229  dHIT:    1060729  dMISS:    4565500  itACCESS:      92319  itHIT:      29540  itMISS:      62779  dtACCESS:     287381  dtHIT:     109098  dtMISS:     178283
cpu0_L2C LOAD         ACCESS:    3328275  HIT:     671541  MISS:    2656734  iACCESS:     697087  iHIT:     105863  iMISS:     591224  dACCESS:    2631188  dHIT:     565678  dMISS:    2065510  itACCESS:          0  itHIT:          0  itMISS:          0  dtACCESS:          0  dtHIT:          0  dtMISS:          0
cpu0_L2C RFO          ACCESS:     234946  HIT:      45253  MISS:     189693  iACCESS:          0  iHIT:          0  iMISS:          0  dACCESS:     234946  dHIT:      45253  dMISS:     189693  itACCESS:          0  itHIT:          0  itMISS:          0  dtACCESS:          0  dtHIT:          0  dtMISS:          0
cpu0_L2C PREFETCH     ACCESS:    4852282  HIT:     905397  MISS:    3946885  iACCESS:    2426312  iHIT:     568373  iMISS:    1857939  dACCESS:    2425970  dHIT:     337024  dMISS:    2088946  itACCESS:          0  itHIT:          0  itMISS:          0  dtACCESS:          0  dtHIT:          0  dtMISS:          0
cpu0_L2C WRITE        ACCESS:     334125  HIT:     112774  MISS:     221351  iACCESS:          0  iHIT:          0  iMISS:          0  dACCESS:     334125  dHIT:     112774  dMISS:     221351  itACCESS:          0  itHIT:          0  itMISS:          0  dtACCESS:          0  dtHIT:          0  dtMISS:          0
cpu0_L2C TRANSLATION  ACCESS:     379700  HIT:     138638  MISS:     241062  iACCESS:          0  iHIT:          0  iMISS:          0  dACCESS:          0  dHIT:          0  dMISS:          0  itACCESS:      92319  itHIT:      29540  itMISS:      62779  dtACCESS:     287381  dtHIT:     109098  dtMISS:     178283
cpu0_L2C PREFETCH  REQUESTED:    1225290  ISSUED:    1225287  CROSSED:          0  USEFUL:     318824  USELESS:     399105
cpu0_L2C AVERAGE iMISS LATENCY: 21.5403 cycles
cpu0_L2C AVERAGE dMISS LATENCY: 44.7905 cycles
cpu0_L2C AVERAGE itMISS LATENCY: 1.36906 cycles
cpu0_L2C AVERAGE dtMISS LATENCY: 4.07654 cycles
cpu0_L2C PAGE CROSSINGS (TLB HIT):         0 
cpu0_L2C PAGE CROSSINGS (TLB MISS):         0 
cpu0_L2C AVERAGE MISS LATENCY: 71.7763 cycles
LLC TOTAL       ACCESS:    7107849  HIT:    4853893  MISS:    2253956  iACCESS:    2380337  iHIT:    1686338  iMISS:     693999  dACCESS:    4486450  dHIT:    3111299  dMISS:    1375151  itACCESS:      62779  itHIT:      13938  itMISS:      48841  dtACCESS:     178283  dtHIT:      42318  dtMISS:     135965
LLC LOAD         ACCESS:    2650043  HIT:    2096333  MISS:     553710  iACCESS:     590168  iHIT:     445493  iMISS:     144675  dACCESS:    2059875  dHIT:    1650840  dMISS:     409035  itACCESS:          0  itHIT:          0  itMISS:          0  dtACCESS:          0  dtHIT:          0  dtMISS:          0
LLC RFO          ACCESS:     189664  HIT:      96687  MISS:      92977  iACCESS:          0  iHIT:          0  iMISS:          0  dACCESS:     189664  dHIT:      96687  dMISS:      92977  itACCESS:          0  itHIT:          0  itMISS:          0  dtACCESS:          0  dtHIT:          0  dtMISS:          0
LLC PREFETCH     ACCESS:    3767478  HIT:    2351020  MISS:    1416458  iACCESS:    1790169  iHIT:    1240845  iMISS:     549324  dACCESS:    1977309  dHIT:    1110175  dMISS:     867134  itACCESS:          0  itHIT:          0  itMISS:          0  dtACCESS:          0  dtHIT:          0  dtMISS:          0
LLC WRITE        ACCESS:     259602  HIT:     253597  MISS:       6005  iACCESS:          0  iHIT:          0  iMISS:          0  dACCESS:     259602  dHIT:     253597  dMISS:       6005  itACCESS:          0  itHIT:          0  itMISS:          0  dtACCESS:          0  dtHIT:          0  dtMISS:          0
LLC TRANSLATION  ACCESS:     241062  HIT:      56256  MISS:     184806  iACCESS:          0  iHIT:          0  iMISS:          0  dACCESS:          0  dHIT:          0  dMISS:          0  itACCESS:      62779  itHIT:      13938  itMISS:      48841  dtACCESS:     178283  dtHIT:      42318  dtMISS:     135965
LLC PREFETCH  REQUESTED:          0  ISSUED:          0  CROSSED:          0  USEFUL:          0  USELESS:          0
LLC AVERAGE iMISS LATENCY: 48.8314 cycles
LLC AVERAGE dMISS LATENCY: 108.603 cycles
LLC AVERAGE itMISS LATENCY: 3.85809 cycles
LLC AVERAGE dtMISS LATENCY: 11.5657 cycles
LLC PAGE CROSSINGS (TLB HIT):         0 
LLC PAGE CROSSINGS (TLB MISS):         0 
LLC AVERAGE MISS LATENCY: 172.858 cycles

PageTableWalker TOTAL       ACCESS:     193385  
PageTableWalker AVERAGE LATENCY: 5.99842 cycles
PageTableWalker TOTAL LATENCY: 1160003 cycles

DRAM Statistics
Channel 0
 RQ ROW_BUFFER_HIT:     487625
  ROW_BUFFER_MISS:    1745724
 AVG DBUS CONGESTED CYCLE:    3.65773
 WQ ROW_BUFFER_HIT:      57570
  ROW_BUFFER_MISS:      61130  FULL:          0

