last_page:0x200000000000000
VMEM_RES_CAP:0x100000
PAGE_SIZE:4096
LOG2_PAGE_SIZE:12
LOG2_PAGE_TABLE_SIZE:9
page_table_levels:5
WARNING: physical memory size is smaller than virtual memory size
FDiP enabled with aggresivity 16

*** ChampSim Multicore Out-of-Order Simulator ***

Warmup Instructions: 50000000
Simulation Instructions: 100000000
Number of CPUs: 1
Small page size: 4096
Large page size: 2097152

CPU 0 Bimodal branch predictor
Basic BTB sets: 1024 ways: 8 indirect buffer size: 4096 RAS size: 64
Instruction page size distrubution: 0
Loading instruction page size distribution from /home/bsc/bsc018186/scratch/itp_asplos25_AE/dump/smt_srv12_ap_srv73_ap_1024i.pdst
Data page size distrubution: 0
Loading data page size distribution from /home/bsc/bsc018186/scratch/itp_asplos25_AE/dump/smt_srv12_ap_srv73_ap_1024i.pdst
cpu0_L2C IP-based stride prefetcher
cpu0_L2C is using PTP replacement policy:
	TLB_STRESS_THRESHOLD:0
	PTE_EVICTION_RATIO:0
cpu0_L1D next line prefetcher
CHiRPing...
cpu0_L1I next line prefetcher
Off-chip DRAM Size: 4 GiB Channels: 1 Width: 64-bit Data Rate: 3200 MT/s
Heartbeat CPU 0 instructions: 10000002 cycles: 2500625 heartbeat IPC: 3.99901 cumulative IPC: 3.99901 (Simulation time: 0 hr 0 min 46 sec) 
Heartbeat CPU 0 instructions: 20000003 cycles: 5001116 heartbeat IPC: 3.99922 cumulative IPC: 3.99911 (Simulation time: 0 hr 1 min 33 sec) 
Heartbeat CPU 0 instructions: 30000000 cycles: 7501780 heartbeat IPC: 3.99894 cumulative IPC: 3.99906 (Simulation time: 0 hr 2 min 23 sec) 
Heartbeat CPU 0 instructions: 40000003 cycles: 10002361 heartbeat IPC: 3.99908 cumulative IPC: 3.99906 (Simulation time: 0 hr 3 min 11 sec) 
Heartbeat CPU 0 instructions: 50000000 cycles: 12503259 heartbeat IPC: 3.99857 cumulative IPC: 3.99896 (Simulation time: 0 hr 4 min 0 sec) 
Warmup finished CPU 0 instructions: 50000000 cycles: 12503260 cumulative IPC: 3.99896 (Simulation time: 0 hr 4 min 0 sec) 

Warmup complete CPU 0 instructions: 50000000 cycles: 12503260 (Simulation time: 0 hr 4 min 0 sec) 

Heartbeat CPU 0 instructions: 60000001 cycles: 38055092 heartbeat IPC: 0.391362 cumulative IPC: 0.391362 (Simulation time: 0 hr 5 min 28 sec) 
Heartbeat CPU 0 instructions: 70000000 cycles: 61150647 heartbeat IPC: 0.432984 cumulative IPC: 0.411122 (Simulation time: 0 hr 6 min 54 sec) 
Heartbeat CPU 0 instructions: 80000001 cycles: 85731331 heartbeat IPC: 0.406824 cumulative IPC: 0.409679 (Simulation time: 0 hr 8 min 21 sec) 
Heartbeat CPU 0 instructions: 90000003 cycles: 113770492 heartbeat IPC: 0.356645 cumulative IPC: 0.394995 (Simulation time: 0 hr 9 min 53 sec) 
Heartbeat CPU 0 instructions: 100000000 cycles: 145385092 heartbeat IPC: 0.31631 cumulative IPC: 0.376275 (Simulation time: 0 hr 11 min 33 sec) 
Heartbeat CPU 0 instructions: 110000002 cycles: 177614297 heartbeat IPC: 0.310278 cumulative IPC: 0.363392 (Simulation time: 0 hr 13 min 14 sec) 
Heartbeat CPU 0 instructions: 120000001 cycles: 207328553 heartbeat IPC: 0.336539 cumulative IPC: 0.359297 (Simulation time: 0 hr 14 min 49 sec) 
Heartbeat CPU 0 instructions: 130000004 cycles: 225304173 heartbeat IPC: 0.55631 cumulative IPC: 0.375939 (Simulation time: 0 hr 16 min 12 sec) 
Heartbeat CPU 0 instructions: 140000000 cycles: 246813585 heartbeat IPC: 0.464913 cumulative IPC: 0.384106 (Simulation time: 0 hr 17 min 40 sec) 
Heartbeat CPU 0 instructions: 150000002 cycles: 277793054 heartbeat IPC: 0.322795 cumulative IPC: 0.376947 (Simulation time: 0 hr 19 min 17 sec) 
Simulation finished CPU 0 instructions: 100000002 cycles: 265289795 cumulative IPC: 0.376947 (Simulation time: 0 hr 19 min 17 sec) 

Simulation complete CPU 0 instructions: 100000002 cycles: 265289795 (Simulation time: 0 hr 19 min 17 sec) 


ChampSim completed all CPUs

Saving instructions large page distribution to /home/bsc/bsc018186/scratch/itp_asplos25_AE/dump/smt_srv12_ap_srv73_ap_1024i.pdst...
Saving data large page distribution to /home/bsc/bsc018186/scratch/itp_asplos25_AE/dump/smt_srv12_ap_srv73_ap_1024i.pdst...
=== Simulation ===
CPU 0 runs /gpfs/projects/bsc18/MN4/bsc18/romol/ChampSim/traces/qualcomm_srv/smt_srv12_ap_srv73_ap_1024i.champsimtrace.xz

Region of Interest Statistics

CPU 0 cumulative IPC: 0.376947 instructions: 100000002 cycles: 265289795
CPU 0 Branch Prediction Accuracy: 77.5128% MPKI: 43.838 Average ROB Occupancy at Mispredict: 10.7369
Branch type MPKI
BRANCH_DIRECT_JUMP: 1.16918
BRANCH_INDIRECT: 23.1063
BRANCH_CONDITIONAL: 12.637
BRANCH_DIRECT_CALL: 2.15754
BRANCH_INDIRECT_CALL: 1.79687
BRANCH_RETURN: 2.97121

Instructions large pages: 0
Instructions small pages: 12334
Large page distribution for instructions: 0%

Data large pages: 0
Data small pages: 10484
Large page distribution for data: 0%

cpu0_L1I TOTAL       ACCESS:   38230023  HIT:   31158172  MISS:    7071851  iACCESS:   38230023  iHIT:   31158172  iMISS:    7071851  dACCESS:          0  dHIT:          0  dMISS:          0  itACCESS:          0  itHIT:          0  itMISS:          0  dtACCESS:          0  dtHIT:          0  dtMISS:          0
cpu0_L1I LOAD         ACCESS:   10541960  HIT:    8607540  MISS:    1934420  iACCESS:   10541960  iHIT:    8607540  iMISS:    1934420  dACCESS:          0  dHIT:          0  dMISS:          0  itACCESS:          0  itHIT:          0  itMISS:          0  dtACCESS:          0  dtHIT:          0  dtMISS:          0
cpu0_L1I RFO          ACCESS:          0  HIT:          0  MISS:          0  iACCESS:          0  iHIT:          0  iMISS:          0  dACCESS:          0  dHIT:          0  dMISS:          0  itACCESS:          0  itHIT:          0  itMISS:          0  dtACCESS:          0  dtHIT:          0  dtMISS:          0
cpu0_L1I PREFETCH     ACCESS:   27688063  HIT:   22550632  MISS:    5137431  iACCESS:   27688063  iHIT:   22550632  iMISS:    5137431  dACCESS:          0  dHIT:          0  dMISS:          0  itACCESS:          0  itHIT:          0  itMISS:          0  dtACCESS:          0  dtHIT:          0  dtMISS:          0
cpu0_L1I WRITE        ACCESS:          0  HIT:          0  MISS:          0  iACCESS:          0  iHIT:          0  iMISS:          0  dACCESS:          0  dHIT:          0  dMISS:          0  itACCESS:          0  itHIT:          0  itMISS:          0  dtACCESS:          0  dtHIT:          0  dtMISS:          0
cpu0_L1I TRANSLATION  ACCESS:          0  HIT:          0  MISS:          0  iACCESS:          0  iHIT:          0  iMISS:          0  dACCESS:          0  dHIT:          0  dMISS:          0  itACCESS:          0  itHIT:          0  itMISS:          0  dtACCESS:          0  dtHIT:          0  dtMISS:          0
cpu0_L1I PREFETCH  REQUESTED:   30088589  ISSUED:   30088414  CROSSED:          0  USEFUL:    1796838  USELESS:     651039
cpu0_L1I AVERAGE iMISS LATENCY: 24.9095 cycles
cpu0_L1I AVERAGE dMISS LATENCY: 0 cycles
cpu0_L1I AVERAGE itMISS LATENCY: 0 cycles
cpu0_L1I AVERAGE dtMISS LATENCY: 0 cycles
cpu0_L1I PAGE CROSSINGS (TLB HIT):         0 
cpu0_L1I PAGE CROSSINGS (TLB MISS):         0 
cpu0_L1I AVERAGE MISS LATENCY: 24.9095 cycles
cpu0_ITLB TOTAL       ACCESS:   32420148  HIT:   30574695  MISS:    1845453  iACCESS:   32420148  iHIT:   30574695  iMISS:    1845453  dACCESS:          0  dHIT:          0  dMISS:          0  itACCESS:          0  itHIT:          0  itMISS:          0  dtACCESS:          0  dtHIT:          0  dtMISS:          0
cpu0_ITLB LOAD         ACCESS:   32420148  HIT:   30574695  MISS:    1845453  iACCESS:   32420148  iHIT:   30574695  iMISS:    1845453  dACCESS:          0  dHIT:          0  dMISS:          0  itACCESS:          0  itHIT:          0  itMISS:          0  dtACCESS:          0  dtHIT:          0  dtMISS:          0
cpu0_ITLB RFO          ACCESS:          0  HIT:          0  MISS:          0  iACCESS:          0  iHIT:          0  iMISS:          0  dACCESS:          0  dHIT:          0  dMISS:          0  itACCESS:          0  itHIT:          0  itMISS:          0  dtACCESS:          0  dtHIT:          0  dtMISS:          0
cpu0_ITLB PREFETCH     ACCESS:          0  HIT:          0  MISS:          0  iACCESS:          0  iHIT:          0  iMISS:          0  dACCESS:          0  dHIT:          0  dMISS:          0  itACCESS:          0  itHIT:          0  itMISS:          0  dtACCESS:          0  dtHIT:          0  dtMISS:          0
cpu0_ITLB WRITE        ACCESS:          0  HIT:          0  MISS:          0  iACCESS:          0  iHIT:          0  iMISS:          0  dACCESS:          0  dHIT:          0  dMISS:          0  itACCESS:          0  itHIT:          0  itMISS:          0  dtACCESS:          0  dtHIT:          0  dtMISS:          0
cpu0_ITLB TRANSLATION  ACCESS:          0  HIT:          0  MISS:          0  iACCESS:          0  iHIT:          0  iMISS:          0  dACCESS:          0  dHIT:          0  dMISS:          0  itACCESS:          0  itHIT:          0  itMISS:          0  dtACCESS:          0  dtHIT:          0  dtMISS:          0
cpu0_ITLB PREFETCH  REQUESTED:          0  ISSUED:          0  CROSSED:          0  USEFUL:     329136  USELESS:      68141
cpu0_ITLB AVERAGE iMISS LATENCY: 10.6031 cycles
cpu0_ITLB AVERAGE dMISS LATENCY: 0 cycles
cpu0_ITLB AVERAGE itMISS LATENCY: 0 cycles
cpu0_ITLB AVERAGE dtMISS LATENCY: 0 cycles
cpu0_ITLB PAGE CROSSINGS (TLB HIT):         0 
cpu0_ITLB PAGE CROSSINGS (TLB MISS):         0 
cpu0_ITLB AVERAGE MISS LATENCY: 10.6031 cycles
cpu0_DTLB TOTAL       ACCESS:   31373596  HIT:   26071634  MISS:    5301962  iACCESS:          0  iHIT:          0  iMISS:          0  dACCESS:   31373596  dHIT:   26071634  dMISS:    5301962  itACCESS:          0  itHIT:          0  itMISS:          0  dtACCESS:          0  dtHIT:          0  dtMISS:          0
cpu0_DTLB LOAD         ACCESS:   31373596  HIT:   26071634  MISS:    5301962  iACCESS:          0  iHIT:          0  iMISS:          0  dACCESS:   31373596  dHIT:   26071634  dMISS:    5301962  itACCESS:          0  itHIT:          0  itMISS:          0  dtACCESS:          0  dtHIT:          0  dtMISS:          0
cpu0_DTLB RFO          ACCESS:          0  HIT:          0  MISS:          0  iACCESS:          0  iHIT:          0  iMISS:          0  dACCESS:          0  dHIT:          0  dMISS:          0  itACCESS:          0  itHIT:          0  itMISS:          0  dtACCESS:          0  dtHIT:          0  dtMISS:          0
cpu0_DTLB PREFETCH     ACCESS:          0  HIT:          0  MISS:          0  iACCESS:          0  iHIT:          0  iMISS:          0  dACCESS:          0  dHIT:          0  dMISS:          0  itACCESS:          0  itHIT:          0  itMISS:          0  dtACCESS:          0  dtHIT:          0  dtMISS:          0
cpu0_DTLB WRITE        ACCESS:          0  HIT:          0  MISS:          0  iACCESS:          0  iHIT:          0  iMISS:          0  dACCESS:          0  dHIT:          0  dMISS:          0  itACCESS:          0  itHIT:          0  itMISS:          0  dtACCESS:          0  dtHIT:          0  dtMISS:          0
cpu0_DTLB TRANSLATION  ACCESS:          0  HIT:          0  MISS:          0  iACCESS:          0  iHIT:          0  iMISS:          0  dACCESS:          0  dHIT:          0  dMISS:          0  itACCESS:          0  itHIT:          0  itMISS:          0  dtACCESS:          0  dtHIT:          0  dtMISS:          0
cpu0_DTLB PREFETCH  REQUESTED:          0  ISSUED:          0  CROSSED:          0  USEFUL:          0  USELESS:          0
cpu0_DTLB AVERAGE iMISS LATENCY: 0 cycles
cpu0_DTLB AVERAGE dMISS LATENCY: 14.4726 cycles
cpu0_DTLB AVERAGE itMISS LATENCY: 0 cycles
cpu0_DTLB AVERAGE dtMISS LATENCY: 0 cycles
cpu0_DTLB PAGE CROSSINGS (TLB HIT):         0 
cpu0_DTLB PAGE CROSSINGS (TLB MISS):         0 
cpu0_DTLB AVERAGE MISS LATENCY: 14.4726 cycles
cpu0_STLB TOTAL       ACCESS:    3221126  HIT:    2934410  MISS:     286716  iACCESS:     397281  iHIT:     303686  iMISS:      93595  dACCESS:    2823845  dHIT:    2630724  dMISS:     193121  itACCESS:          0  itHIT:          0  itMISS:          0  dtACCESS:          0  dtHIT:          0  dtMISS:          0
cpu0_STLB LOAD         ACCESS:    3221126  HIT:    2934410  MISS:     286716  iACCESS:     397281  iHIT:     303686  iMISS:      93595  dACCESS:    2823845  dHIT:    2630724  dMISS:     193121  itACCESS:          0  itHIT:          0  itMISS:          0  dtACCESS:          0  dtHIT:          0  dtMISS:          0
cpu0_STLB RFO          ACCESS:          0  HIT:          0  MISS:          0  iACCESS:          0  iHIT:          0  iMISS:          0  dACCESS:          0  dHIT:          0  dMISS:          0  itACCESS:          0  itHIT:          0  itMISS:          0  dtACCESS:          0  dtHIT:          0  dtMISS:          0
cpu0_STLB PREFETCH     ACCESS:          0  HIT:          0  MISS:          0  iACCESS:          0  iHIT:          0  iMISS:          0  dACCESS:          0  dHIT:          0  dMISS:          0  itACCESS:          0  itHIT:          0  itMISS:          0  dtACCESS:          0  dtHIT:          0  dtMISS:          0
cpu0_STLB WRITE        ACCESS:          0  HIT:          0  MISS:          0  iACCESS:          0  iHIT:          0  iMISS:          0  dACCESS:          0  dHIT:          0  dMISS:          0  itACCESS:          0  itHIT:          0  itMISS:          0  dtACCESS:          0  dtHIT:          0  dtMISS:          0
cpu0_STLB TRANSLATION  ACCESS:          0  HIT:          0  MISS:          0  iACCESS:          0  iHIT:          0  iMISS:          0  dACCESS:          0  dHIT:          0  dMISS:          0  itACCESS:          0  itHIT:          0  itMISS:          0  dtACCESS:          0  dtHIT:          0  dtMISS:          0
cpu0_STLB PREFETCH  REQUESTED:          0  ISSUED:          0  CROSSED:          0  USEFUL:          0  USELESS:          0
cpu0_STLB AVERAGE iMISS LATENCY: 57.172 cycles
cpu0_STLB AVERAGE dMISS LATENCY: 188.064 cycles
cpu0_STLB AVERAGE itMISS LATENCY: 0 cycles
cpu0_STLB AVERAGE dtMISS LATENCY: 0 cycles
cpu0_STLB PAGE CROSSINGS (TLB HIT):         0 
cpu0_STLB PAGE CROSSINGS (TLB MISS):         0 
cpu0_STLB AVERAGE MISS LATENCY: 245.236 cycles
cpu0_L1D TOTAL       ACCESS:   49012967  HIT:   40909762  MISS:    8103205  iACCESS:          0  iHIT:          0  iMISS:          0  dACCESS:   48538686  dHIT:   40886431  dMISS:    7652255  itACCESS:     112922  itHIT:      10255  itMISS:     102667  dtACCESS:     361359  dtHIT:      13076  dtMISS:     348283
cpu0_L1D LOAD         ACCESS:   23459770  HIT:   19391872  MISS:    4067898  iACCESS:          0  iHIT:          0  iMISS:          0  dACCESS:   23459770  dHIT:   19391872  dMISS:    4067898  itACCESS:          0  itHIT:          0  itMISS:          0  dtACCESS:          0  dtHIT:          0  dtMISS:          0
cpu0_L1D RFO          ACCESS:          0  HIT:          0  MISS:          0  iACCESS:          0  iHIT:          0  iMISS:          0  dACCESS:          0  dHIT:          0  dMISS:          0  itACCESS:          0  itHIT:          0  itMISS:          0  dtACCESS:          0  dtHIT:          0  dtMISS:          0
cpu0_L1D PREFETCH     ACCESS:   15209663  HIT:   12417710  MISS:    2791953  iACCESS:          0  iHIT:          0  iMISS:          0  dACCESS:   15209663  dHIT:   12417710  dMISS:    2791953  itACCESS:          0  itHIT:          0  itMISS:          0  dtACCESS:          0  dtHIT:          0  dtMISS:          0
cpu0_L1D WRITE        ACCESS:    9869253  HIT:    9076849  MISS:     792404  iACCESS:          0  iHIT:          0  iMISS:          0  dACCESS:    9869253  dHIT:    9076849  dMISS:     792404  itACCESS:          0  itHIT:          0  itMISS:          0  dtACCESS:          0  dtHIT:          0  dtMISS:          0
cpu0_L1D TRANSLATION  ACCESS:     474281  HIT:      23331  MISS:     450950  iACCESS:          0  iHIT:          0  iMISS:          0  dACCESS:          0  dHIT:          0  dMISS:          0  itACCESS:     112922  itHIT:      10255  itMISS:     102667  dtACCESS:     361359  dtHIT:      13076  dtMISS:     348283
cpu0_L1D PREFETCH  REQUESTED:   23459770  ISSUED:   19823380  CROSSED:          0  USEFUL:     343074  USELESS:    1105661
cpu0_L1D AVERAGE iMISS LATENCY: 0 cycles
cpu0_L1D AVERAGE dMISS LATENCY: 33.2434 cycles
cpu0_L1D AVERAGE itMISS LATENCY: 1.90608 cycles
cpu0_L1D AVERAGE dtMISS LATENCY: 6.17509 cycles
cpu0_L1D PAGE CROSSINGS (TLB HIT):         0 
cpu0_L1D PAGE CROSSINGS (TLB MISS):         0 
cpu0_L1D AVERAGE MISS LATENCY: 41.3246 cycles
cpu0_L2C TOTAL       ACCESS:    9198186  HIT:    5440437  MISS:    3757749  iACCESS:    3114511  iHIT:    1867733  iMISS:    1246778  dACCESS:    5716350  dHIT:    3526067  dMISS:    2190283  itACCESS:      94363  itHIT:      15664  itMISS:      78699  dtACCESS:     272962  dtHIT:      30973  dtMISS:     241989
cpu0_L2C LOAD         ACCESS:    3340026  HIT:    2395317  MISS:     944709  iACCESS:     694447  iHIT:     433896  iMISS:     260551  dACCESS:    2645579  dHIT:    1961421  dMISS:     684158  itACCESS:          0  itHIT:          0  itMISS:          0  dtACCESS:          0  dtHIT:          0  dtMISS:          0
cpu0_L2C RFO          ACCESS:     240182  HIT:     107136  MISS:     133046  iACCESS:          0  iHIT:          0  iMISS:          0  dACCESS:     240182  dHIT:     107136  dMISS:     133046  itACCESS:          0  itHIT:          0  itMISS:          0  dtACCESS:          0  dtHIT:          0  dtMISS:          0
cpu0_L2C PREFETCH     ACCESS:    4921111  HIT:    2572566  MISS:    2348545  iACCESS:    2420064  iHIT:    1433837  iMISS:     986227  dACCESS:    2501047  dHIT:    1138729  dMISS:    1362318  itACCESS:          0  itHIT:          0  itMISS:          0  dtACCESS:          0  dtHIT:          0  dtMISS:          0
cpu0_L2C WRITE        ACCESS:     329542  HIT:     318781  MISS:      10761  iACCESS:          0  iHIT:          0  iMISS:          0  dACCESS:     329542  dHIT:     318781  dMISS:      10761  itACCESS:          0  itHIT:          0  itMISS:          0  dtACCESS:          0  dtHIT:          0  dtMISS:          0
cpu0_L2C TRANSLATION  ACCESS:     367325  HIT:      46637  MISS:     320688  iACCESS:          0  iHIT:          0  iMISS:          0  dACCESS:          0  dHIT:          0  dMISS:          0  itACCESS:      94363  itHIT:      15664  itMISS:      78699  dtACCESS:     272962  dtHIT:      30973  dtMISS:     241989
cpu0_L2C PREFETCH  REQUESTED:    1232739  ISSUED:    1232705  CROSSED:          0  USEFUL:     278246  USELESS:     264639
cpu0_L2C AVERAGE iMISS LATENCY: 40.0112 cycles
cpu0_L2C AVERAGE dMISS LATENCY: 79.5106 cycles
cpu0_L2C AVERAGE itMISS LATENCY: 3.86265 cycles
cpu0_L2C AVERAGE dtMISS LATENCY: 12.5939 cycles
cpu0_L2C PAGE CROSSINGS (TLB HIT):         0 
cpu0_L2C PAGE CROSSINGS (TLB MISS):         0 
cpu0_L2C AVERAGE MISS LATENCY: 135.979 cycles
LLC TOTAL       ACCESS:    3769409  HIT:    1214677  MISS:    2554732  iACCESS:    1177603  iHIT:     375266  iMISS:     802337  dACCESS:    2271118  dHIT:     808864  dMISS:    1462254  itACCESS:      78699  itHIT:       5997  itMISS:      72702  dtACCESS:     241989  dtHIT:      24550  dtMISS:     217439
LLC LOAD         ACCESS:     939103  HIT:     340888  MISS:     598215  iACCESS:     259646  iHIT:      91939  iMISS:     167707  dACCESS:     679457  dHIT:     248949  dMISS:     430508  itACCESS:          0  itHIT:          0  itMISS:          0  dtACCESS:          0  dtHIT:          0  dtMISS:          0
LLC RFO          ACCESS:     133032  HIT:      37952  MISS:      95080  iACCESS:          0  iHIT:          0  iMISS:          0  dACCESS:     133032  dHIT:      37952  dMISS:      95080  itACCESS:          0  itHIT:          0  itMISS:          0  dtACCESS:          0  dtHIT:          0  dtMISS:          0
LLC PREFETCH     ACCESS:    2188627  HIT:     624936  MISS:    1563691  iACCESS:     917957  iHIT:     283327  iMISS:     634630  dACCESS:    1270670  dHIT:     341609  dMISS:     929061  itACCESS:          0  itHIT:          0  itMISS:          0  dtACCESS:          0  dtHIT:          0  dtMISS:          0
LLC WRITE        ACCESS:     187959  HIT:     180354  MISS:       7605  iACCESS:          0  iHIT:          0  iMISS:          0  dACCESS:     187959  dHIT:     180354  dMISS:       7605  itACCESS:          0  itHIT:          0  itMISS:          0  dtACCESS:          0  dtHIT:          0  dtMISS:          0
LLC TRANSLATION  ACCESS:     320688  HIT:      30547  MISS:     290141  iACCESS:          0  iHIT:          0  iMISS:          0  dACCESS:          0  dHIT:          0  dMISS:          0  itACCESS:      78699  itHIT:       5997  itMISS:      72702  dtACCESS:     241989  dtHIT:      24550  dtMISS:     217439
LLC PREFETCH  REQUESTED:          0  ISSUED:          0  CROSSED:          0  USEFUL:          0  USELESS:          0
LLC AVERAGE iMISS LATENCY: 49.7739 cycles
LLC AVERAGE dMISS LATENCY: 101.698 cycles
LLC AVERAGE itMISS LATENCY: 5.07062 cycles
LLC AVERAGE dtMISS LATENCY: 16.6518 cycles
LLC PAGE CROSSINGS (TLB HIT):         0 
LLC PAGE CROSSINGS (TLB MISS):         0 
LLC AVERAGE MISS LATENCY: 173.194 cycles

PageTableWalker TOTAL       ACCESS:     180914  
PageTableWalker AVERAGE LATENCY: 6.41125 cycles
PageTableWalker TOTAL LATENCY: 1159884 cycles

DRAM Statistics
Channel 0
 RQ ROW_BUFFER_HIT:     541125
  ROW_BUFFER_MISS:    1992283
 AVG DBUS CONGESTED CYCLE:    3.65341
 WQ ROW_BUFFER_HIT:      56126
  ROW_BUFFER_MISS:      51503  FULL:          0

