last_page:0x200000000000000
VMEM_RES_CAP:0x100000
PAGE_SIZE:4096
LOG2_PAGE_SIZE:12
LOG2_PAGE_TABLE_SIZE:9
page_table_levels:5
WARNING: physical memory size is smaller than virtual memory size
FDiP enabled with aggresivity 16

*** ChampSim Multicore Out-of-Order Simulator ***

Warmup Instructions: 50000000
Simulation Instructions: 100000000
Number of CPUs: 1
Small page size: 4096
Large page size: 2097152

CPU 0 Bimodal branch predictor
Basic BTB sets: 1024 ways: 8 indirect buffer size: 4096 RAS size: 64
Instruction page size distrubution: 0
Loading instruction page size distribution from /home/bsc/bsc018186/scratch/itp_asplos25_AE/dump/smt_srv537_ap_srv442_ap_1024i.pdst
Data page size distrubution: 0
Loading data page size distribution from /home/bsc/bsc018186/scratch/itp_asplos25_AE/dump/smt_srv537_ap_srv442_ap_1024i.pdst
cpu0_L2C IP-based stride prefetcher
cpu0_L1D next line prefetcher
CHiRPing...
cpu0_L1I next line prefetcher
Off-chip DRAM Size: 4 GiB Channels: 1 Width: 64-bit Data Rate: 3200 MT/s
Heartbeat CPU 0 instructions: 10000000 cycles: 2500896 heartbeat IPC: 3.99857 cumulative IPC: 3.99857 (Simulation time: 0 hr 0 min 46 sec) 
Heartbeat CPU 0 instructions: 20000003 cycles: 5001234 heartbeat IPC: 3.99947 cumulative IPC: 3.99902 (Simulation time: 0 hr 1 min 33 sec) 
Heartbeat CPU 0 instructions: 30000001 cycles: 7501627 heartbeat IPC: 3.99938 cumulative IPC: 3.99914 (Simulation time: 0 hr 2 min 22 sec) 
Heartbeat CPU 0 instructions: 40000000 cycles: 10001770 heartbeat IPC: 3.99978 cumulative IPC: 3.9993 (Simulation time: 0 hr 3 min 10 sec) 
Heartbeat CPU 0 instructions: 50000002 cycles: 12502275 heartbeat IPC: 3.9992 cumulative IPC: 3.99928 (Simulation time: 0 hr 3 min 59 sec) 
Warmup finished CPU 0 instructions: 50000002 cycles: 12502276 cumulative IPC: 3.99928 (Simulation time: 0 hr 3 min 59 sec) 

Warmup complete CPU 0 instructions: 50000002 cycles: 12502276 (Simulation time: 0 hr 3 min 59 sec) 

Heartbeat CPU 0 instructions: 60000000 cycles: 41210731 heartbeat IPC: 0.34833 cumulative IPC: 0.34833 (Simulation time: 0 hr 5 min 36 sec) 
Heartbeat CPU 0 instructions: 70000004 cycles: 70071378 heartbeat IPC: 0.346493 cumulative IPC: 0.347409 (Simulation time: 0 hr 7 min 13 sec) 
Heartbeat CPU 0 instructions: 80000003 cycles: 97778223 heartbeat IPC: 0.360922 cumulative IPC: 0.3518 (Simulation time: 0 hr 8 min 50 sec) 
Heartbeat CPU 0 instructions: 90000000 cycles: 126295073 heartbeat IPC: 0.35067 cumulative IPC: 0.351517 (Simulation time: 0 hr 10 min 29 sec) 
Heartbeat CPU 0 instructions: 100000003 cycles: 155189611 heartbeat IPC: 0.346087 cumulative IPC: 0.350417 (Simulation time: 0 hr 12 min 8 sec) 
Heartbeat CPU 0 instructions: 110000003 cycles: 184698257 heartbeat IPC: 0.338884 cumulative IPC: 0.348441 (Simulation time: 0 hr 13 min 49 sec) 
Heartbeat CPU 0 instructions: 120000002 cycles: 213922284 heartbeat IPC: 0.342185 cumulative IPC: 0.347533 (Simulation time: 0 hr 15 min 26 sec) 
Heartbeat CPU 0 instructions: 130000001 cycles: 242599204 heartbeat IPC: 0.348713 cumulative IPC: 0.34768 (Simulation time: 0 hr 16 min 53 sec) 
Heartbeat CPU 0 instructions: 140000003 cycles: 270603212 heartbeat IPC: 0.357092 cumulative IPC: 0.348701 (Simulation time: 0 hr 18 min 18 sec) 
Heartbeat CPU 0 instructions: 150000002 cycles: 299858033 heartbeat IPC: 0.341824 cumulative IPC: 0.348001 (Simulation time: 0 hr 19 min 46 sec) 
Simulation finished CPU 0 instructions: 100000000 cycles: 287355758 cumulative IPC: 0.348001 (Simulation time: 0 hr 19 min 46 sec) 

Simulation complete CPU 0 instructions: 100000000 cycles: 287355758 (Simulation time: 0 hr 19 min 46 sec) 


ChampSim completed all CPUs

Saving instructions large page distribution to /home/bsc/bsc018186/scratch/itp_asplos25_AE/dump/smt_srv537_ap_srv442_ap_1024i.pdst...
Saving data large page distribution to /home/bsc/bsc018186/scratch/itp_asplos25_AE/dump/smt_srv537_ap_srv442_ap_1024i.pdst...
=== Simulation ===
CPU 0 runs /gpfs/projects/bsc18/MN4/bsc18/romol/ChampSim/traces/qualcomm_srv/smt_srv537_ap_srv442_ap_1024i.champsimtrace.xz

Region of Interest Statistics

CPU 0 cumulative IPC: 0.348001 instructions: 100000000 cycles: 287355758
CPU 0 Branch Prediction Accuracy: 76.4472% MPKI: 42.5537 Average ROB Occupancy at Mispredict: 11.2726
Branch type MPKI
BRANCH_DIRECT_JUMP: 1.30473
BRANCH_INDIRECT: 22.7349
BRANCH_CONDITIONAL: 11.6924
BRANCH_DIRECT_CALL: 2.42253
BRANCH_INDIRECT_CALL: 1.0061
BRANCH_RETURN: 3.39314

Instructions large pages: 0
Instructions small pages: 10371
Large page distribution for instructions: 0%

Data large pages: 0
Data small pages: 9181
Large page distribution for data: 0%

cpu0_L1I TOTAL       ACCESS:   38998592  HIT:   30119312  MISS:    8879280  iACCESS:   38998592  iHIT:   30119312  iMISS:    8879280  dACCESS:          0  dHIT:          0  dMISS:          0  itACCESS:          0  itHIT:          0  itMISS:          0  dtACCESS:          0  dtHIT:          0  dtMISS:          0
cpu0_L1I LOAD         ACCESS:   11715931  HIT:    9266743  MISS:    2449188  iACCESS:   11715931  iHIT:    9266743  iMISS:    2449188  dACCESS:          0  dHIT:          0  dMISS:          0  itACCESS:          0  itHIT:          0  itMISS:          0  dtACCESS:          0  dtHIT:          0  dtMISS:          0
cpu0_L1I RFO          ACCESS:          0  HIT:          0  MISS:          0  iACCESS:          0  iHIT:          0  iMISS:          0  dACCESS:          0  dHIT:          0  dMISS:          0  itACCESS:          0  itHIT:          0  itMISS:          0  dtACCESS:          0  dtHIT:          0  dtMISS:          0
cpu0_L1I PREFETCH     ACCESS:   27282661  HIT:   20852569  MISS:    6430092  iACCESS:   27282661  iHIT:   20852569  iMISS:    6430092  dACCESS:          0  dHIT:          0  dMISS:          0  itACCESS:          0  itHIT:          0  itMISS:          0  dtACCESS:          0  dtHIT:          0  dtMISS:          0
cpu0_L1I WRITE        ACCESS:          0  HIT:          0  MISS:          0  iACCESS:          0  iHIT:          0  iMISS:          0  dACCESS:          0  dHIT:          0  dMISS:          0  itACCESS:          0  itHIT:          0  itMISS:          0  dtACCESS:          0  dtHIT:          0  dtMISS:          0
cpu0_L1I TRANSLATION  ACCESS:          0  HIT:          0  MISS:          0  iACCESS:          0  iHIT:          0  iMISS:          0  dACCESS:          0  dHIT:          0  dMISS:          0  itACCESS:          0  itHIT:          0  itMISS:          0  dtACCESS:          0  dtHIT:          0  dtMISS:          0
cpu0_L1I PREFETCH  REQUESTED:   30160931  ISSUED:   30160626  CROSSED:          0  USEFUL:    2228195  USELESS:     779898
cpu0_L1I AVERAGE iMISS LATENCY: 21.514 cycles
cpu0_L1I AVERAGE dMISS LATENCY: 0 cycles
cpu0_L1I AVERAGE itMISS LATENCY: 0 cycles
cpu0_L1I AVERAGE dtMISS LATENCY: 0 cycles
cpu0_L1I PAGE CROSSINGS (TLB HIT):         0 
cpu0_L1I PAGE CROSSINGS (TLB MISS):         0 
cpu0_L1I AVERAGE MISS LATENCY: 21.514 cycles
cpu0_ITLB TOTAL       ACCESS:   32934244  HIT:   30618237  MISS:    2316007  iACCESS:   32934244  iHIT:   30618237  iMISS:    2316007  dACCESS:          0  dHIT:          0  dMISS:          0  itACCESS:          0  itHIT:          0  itMISS:          0  dtACCESS:          0  dtHIT:          0  dtMISS:          0
cpu0_ITLB LOAD         ACCESS:   32934244  HIT:   30618237  MISS:    2316007  iACCESS:   32934244  iHIT:   30618237  iMISS:    2316007  dACCESS:          0  dHIT:          0  dMISS:          0  itACCESS:          0  itHIT:          0  itMISS:          0  dtACCESS:          0  dtHIT:          0  dtMISS:          0
cpu0_ITLB RFO          ACCESS:          0  HIT:          0  MISS:          0  iACCESS:          0  iHIT:          0  iMISS:          0  dACCESS:          0  dHIT:          0  dMISS:          0  itACCESS:          0  itHIT:          0  itMISS:          0  dtACCESS:          0  dtHIT:          0  dtMISS:          0
cpu0_ITLB PREFETCH     ACCESS:          0  HIT:          0  MISS:          0  iACCESS:          0  iHIT:          0  iMISS:          0  dACCESS:          0  dHIT:          0  dMISS:          0  itACCESS:          0  itHIT:          0  itMISS:          0  dtACCESS:          0  dtHIT:          0  dtMISS:          0
cpu0_ITLB WRITE        ACCESS:          0  HIT:          0  MISS:          0  iACCESS:          0  iHIT:          0  iMISS:          0  dACCESS:          0  dHIT:          0  dMISS:          0  itACCESS:          0  itHIT:          0  itMISS:          0  dtACCESS:          0  dtHIT:          0  dtMISS:          0
cpu0_ITLB TRANSLATION  ACCESS:          0  HIT:          0  MISS:          0  iACCESS:          0  iHIT:          0  iMISS:          0  dACCESS:          0  dHIT:          0  dMISS:          0  itACCESS:          0  itHIT:          0  itMISS:          0  dtACCESS:          0  dtHIT:          0  dtMISS:          0
cpu0_ITLB PREFETCH  REQUESTED:          0  ISSUED:          0  CROSSED:          0  USEFUL:     391993  USELESS:      84509
cpu0_ITLB AVERAGE iMISS LATENCY: 9.44421 cycles
cpu0_ITLB AVERAGE dMISS LATENCY: 0 cycles
cpu0_ITLB AVERAGE itMISS LATENCY: 0 cycles
cpu0_ITLB AVERAGE dtMISS LATENCY: 0 cycles
cpu0_ITLB PAGE CROSSINGS (TLB HIT):         0 
cpu0_ITLB PAGE CROSSINGS (TLB MISS):         0 
cpu0_ITLB AVERAGE MISS LATENCY: 9.44421 cycles
cpu0_DTLB TOTAL       ACCESS:   28808629  HIT:   25375620  MISS:    3433009  iACCESS:          0  iHIT:          0  iMISS:          0  dACCESS:   28808629  dHIT:   25375620  dMISS:    3433009  itACCESS:          0  itHIT:          0  itMISS:          0  dtACCESS:          0  dtHIT:          0  dtMISS:          0
cpu0_DTLB LOAD         ACCESS:   28808629  HIT:   25375620  MISS:    3433009  iACCESS:          0  iHIT:          0  iMISS:          0  dACCESS:   28808629  dHIT:   25375620  dMISS:    3433009  itACCESS:          0  itHIT:          0  itMISS:          0  dtACCESS:          0  dtHIT:          0  dtMISS:          0
cpu0_DTLB RFO          ACCESS:          0  HIT:          0  MISS:          0  iACCESS:          0  iHIT:          0  iMISS:          0  dACCESS:          0  dHIT:          0  dMISS:          0  itACCESS:          0  itHIT:          0  itMISS:          0  dtACCESS:          0  dtHIT:          0  dtMISS:          0
cpu0_DTLB PREFETCH     ACCESS:          0  HIT:          0  MISS:          0  iACCESS:          0  iHIT:          0  iMISS:          0  dACCESS:          0  dHIT:          0  dMISS:          0  itACCESS:          0  itHIT:          0  itMISS:          0  dtACCESS:          0  dtHIT:          0  dtMISS:          0
cpu0_DTLB WRITE        ACCESS:          0  HIT:          0  MISS:          0  iACCESS:          0  iHIT:          0  iMISS:          0  dACCESS:          0  dHIT:          0  dMISS:          0  itACCESS:          0  itHIT:          0  itMISS:          0  dtACCESS:          0  dtHIT:          0  dtMISS:          0
cpu0_DTLB TRANSLATION  ACCESS:          0  HIT:          0  MISS:          0  iACCESS:          0  iHIT:          0  iMISS:          0  dACCESS:          0  dHIT:          0  dMISS:          0  itACCESS:          0  itHIT:          0  itMISS:          0  dtACCESS:          0  dtHIT:          0  dtMISS:          0
cpu0_DTLB PREFETCH  REQUESTED:          0  ISSUED:          0  CROSSED:          0  USEFUL:          0  USELESS:          0
cpu0_DTLB AVERAGE iMISS LATENCY: 0 cycles
cpu0_DTLB AVERAGE dMISS LATENCY: 25.7855 cycles
cpu0_DTLB AVERAGE itMISS LATENCY: 0 cycles
cpu0_DTLB AVERAGE dtMISS LATENCY: 0 cycles
cpu0_DTLB PAGE CROSSINGS (TLB HIT):         0 
cpu0_DTLB PAGE CROSSINGS (TLB MISS):         0 
cpu0_DTLB AVERAGE MISS LATENCY: 25.7855 cycles
cpu0_STLB TOTAL       ACCESS:    2428277  HIT:    2065424  MISS:     362853  iACCESS:     476500  iHIT:     369846  iMISS:     106654  dACCESS:    1951777  dHIT:    1695578  dMISS:     256199  itACCESS:          0  itHIT:          0  itMISS:          0  dtACCESS:          0  dtHIT:          0  dtMISS:          0
cpu0_STLB LOAD         ACCESS:    2428277  HIT:    2065424  MISS:     362853  iACCESS:     476500  iHIT:     369846  iMISS:     106654  dACCESS:    1951777  dHIT:    1695578  dMISS:     256199  itACCESS:          0  itHIT:          0  itMISS:          0  dtACCESS:          0  dtHIT:          0  dtMISS:          0
cpu0_STLB RFO          ACCESS:          0  HIT:          0  MISS:          0  iACCESS:          0  iHIT:          0  iMISS:          0  dACCESS:          0  dHIT:          0  dMISS:          0  itACCESS:          0  itHIT:          0  itMISS:          0  dtACCESS:          0  dtHIT:          0  dtMISS:          0
cpu0_STLB PREFETCH     ACCESS:          0  HIT:          0  MISS:          0  iACCESS:          0  iHIT:          0  iMISS:          0  dACCESS:          0  dHIT:          0  dMISS:          0  itACCESS:          0  itHIT:          0  itMISS:          0  dtACCESS:          0  dtHIT:          0  dtMISS:          0
cpu0_STLB WRITE        ACCESS:          0  HIT:          0  MISS:          0  iACCESS:          0  iHIT:          0  iMISS:          0  dACCESS:          0  dHIT:          0  dMISS:          0  itACCESS:          0  itHIT:          0  itMISS:          0  dtACCESS:          0  dtHIT:          0  dtMISS:          0
cpu0_STLB TRANSLATION  ACCESS:          0  HIT:          0  MISS:          0  iACCESS:          0  iHIT:          0  iMISS:          0  dACCESS:          0  dHIT:          0  dMISS:          0  itACCESS:          0  itHIT:          0  itMISS:          0  dtACCESS:          0  dtHIT:          0  dtMISS:          0
cpu0_STLB PREFETCH  REQUESTED:          0  ISSUED:          0  CROSSED:          0  USEFUL:          0  USELESS:          0
cpu0_STLB AVERAGE iMISS LATENCY: 49.803 cycles
cpu0_STLB AVERAGE dMISS LATENCY: 200.698 cycles
cpu0_STLB AVERAGE itMISS LATENCY: 0 cycles
cpu0_STLB AVERAGE dtMISS LATENCY: 0 cycles
cpu0_STLB PAGE CROSSINGS (TLB HIT):         0 
cpu0_STLB PAGE CROSSINGS (TLB MISS):         0 
cpu0_STLB AVERAGE MISS LATENCY: 250.501 cycles
cpu0_L1D TOTAL       ACCESS:   44975193  HIT:   39102491  MISS:    5872702  iACCESS:          0  iHIT:          0  iMISS:          0  dACCESS:   44436616  dHIT:   39071766  dMISS:    5364850  itACCESS:     119604  itHIT:      13196  itMISS:     106408  dtACCESS:     418973  dtHIT:      17529  dtMISS:     401444
cpu0_L1D LOAD         ACCESS:   20272393  HIT:   17853968  MISS:    2418425  iACCESS:          0  iHIT:          0  iMISS:          0  dACCESS:   20272393  dHIT:   17853968  dMISS:    2418425  itACCESS:          0  itHIT:          0  itMISS:          0  dtACCESS:          0  dtHIT:          0  dtMISS:          0
cpu0_L1D RFO          ACCESS:          0  HIT:          0  MISS:          0  iACCESS:          0  iHIT:          0  iMISS:          0  dACCESS:          0  dHIT:          0  dMISS:          0  itACCESS:          0  itHIT:          0  itMISS:          0  dtACCESS:          0  dtHIT:          0  dtMISS:          0
cpu0_L1D PREFETCH     ACCESS:   13987755  HIT:   11611127  MISS:    2376628  iACCESS:          0  iHIT:          0  iMISS:          0  dACCESS:   13987755  dHIT:   11611127  dMISS:    2376628  itACCESS:          0  itHIT:          0  itMISS:          0  dtACCESS:          0  dtHIT:          0  dtMISS:          0
cpu0_L1D WRITE        ACCESS:   10176468  HIT:    9606671  MISS:     569797  iACCESS:          0  iHIT:          0  iMISS:          0  dACCESS:   10176468  dHIT:    9606671  dMISS:     569797  itACCESS:          0  itHIT:          0  itMISS:          0  dtACCESS:          0  dtHIT:          0  dtMISS:          0
cpu0_L1D TRANSLATION  ACCESS:     538577  HIT:      30725  MISS:     507852  iACCESS:          0  iHIT:          0  iMISS:          0  dACCESS:          0  dHIT:          0  dMISS:          0  itACCESS:     119604  itHIT:      13196  itMISS:     106408  dtACCESS:     418973  dtHIT:      17529  dtMISS:     401444
cpu0_L1D PREFETCH  REQUESTED:   20272393  ISSUED:   18388789  CROSSED:          0  USEFUL:     371511  USELESS:     920620
cpu0_L1D AVERAGE iMISS LATENCY: 0 cycles
cpu0_L1D AVERAGE dMISS LATENCY: 48.8794 cycles
cpu0_L1D AVERAGE itMISS LATENCY: 2.90299 cycles
cpu0_L1D AVERAGE dtMISS LATENCY: 11.6055 cycles
cpu0_L1D PAGE CROSSINGS (TLB HIT):         0 
cpu0_L1D PAGE CROSSINGS (TLB MISS):         0 
cpu0_L1D AVERAGE MISS LATENCY: 63.3878 cycles
cpu0_L2C TOTAL       ACCESS:    8661594  HIT:    4329337  MISS:    4332257  iACCESS:    3850375  iHIT:    2426137  iMISS:    1424238  dACCESS:    4338006  dHIT:    1847191  dMISS:    2490815  itACCESS:     106020  itHIT:      18221  itMISS:      87799  dtACCESS:     367193  dtHIT:      37788  dtMISS:     329405
cpu0_L2C LOAD         ACCESS:    2101558  HIT:    1052625  MISS:    1048933  iACCESS:     881144  iHIT:     581110  iMISS:     300034  dACCESS:    1220414  dHIT:     471515  dMISS:     748899  itACCESS:          0  itHIT:          0  itMISS:          0  dtACCESS:          0  dtHIT:          0  dtMISS:          0
cpu0_L2C RFO          ACCESS:     216516  HIT:      82659  MISS:     133857  iACCESS:          0  iHIT:          0  iMISS:          0  dACCESS:     216516  dHIT:      82659  dMISS:     133857  itACCESS:          0  itHIT:          0  itMISS:          0  dtACCESS:          0  dtHIT:          0  dtMISS:          0
cpu0_L2C PREFETCH     ACCESS:    5521759  HIT:    2793678  MISS:    2728081  iACCESS:    2969231  iHIT:    1845027  iMISS:    1124204  dACCESS:    2552528  dHIT:     948651  dMISS:    1603877  itACCESS:          0  itHIT:          0  itMISS:          0  dtACCESS:          0  dtHIT:          0  dtMISS:          0
cpu0_L2C WRITE        ACCESS:     348548  HIT:     344366  MISS:       4182  iACCESS:          0  iHIT:          0  iMISS:          0  dACCESS:     348548  dHIT:     344366  dMISS:       4182  itACCESS:          0  itHIT:          0  itMISS:          0  dtACCESS:          0  dtHIT:          0  dtMISS:          0
cpu0_L2C TRANSLATION  ACCESS:     473213  HIT:      56009  MISS:     417204  iACCESS:          0  iHIT:          0  iMISS:          0  dACCESS:          0  dHIT:          0  dMISS:          0  itACCESS:     106020  itHIT:      18221  itMISS:      87799  dtACCESS:     367193  dtHIT:      37788  dtMISS:     329405
cpu0_L2C PREFETCH  REQUESTED:    1522859  ISSUED:    1522856  CROSSED:          0  USEFUL:     355720  USELESS:     299447
cpu0_L2C AVERAGE iMISS LATENCY: 36.3841 cycles
cpu0_L2C AVERAGE dMISS LATENCY: 79.3512 cycles
cpu0_L2C AVERAGE itMISS LATENCY: 3.69398 cycles
cpu0_L2C AVERAGE dtMISS LATENCY: 14.8882 cycles
cpu0_L2C PAGE CROSSINGS (TLB HIT):         0 
cpu0_L2C PAGE CROSSINGS (TLB MISS):         0 
cpu0_L2C AVERAGE MISS LATENCY: 134.318 cycles
LLC TOTAL       ACCESS:    4353350  HIT:    1462407  MISS:    2890943  iACCESS:    1344613  iHIT:     509228  iMISS:     835385  dACCESS:    2591533  dHIT:     914013  dMISS:    1677520  itACCESS:      87799  itHIT:       7521  itMISS:      80278  dtACCESS:     329405  dtHIT:      31645  dtMISS:     297760
LLC LOAD         ACCESS:    1041031  HIT:     350002  MISS:     691029  iACCESS:     298809  iHIT:     119815  iMISS:     178994  dACCESS:     742222  dHIT:     230187  dMISS:     512035  itACCESS:          0  itHIT:          0  itMISS:          0  dtACCESS:          0  dtHIT:          0  dtMISS:          0
LLC RFO          ACCESS:     133847  HIT:      42474  MISS:      91373  iACCESS:          0  iHIT:          0  iMISS:          0  dACCESS:     133847  dHIT:      42474  dMISS:      91373  itACCESS:          0  itHIT:          0  itMISS:          0  dtACCESS:          0  dtHIT:          0  dtMISS:          0
LLC PREFETCH     ACCESS:    2545604  HIT:     825050  MISS:    1720554  iACCESS:    1045804  iHIT:     389413  iMISS:     656391  dACCESS:    1499800  dHIT:     435637  dMISS:    1064163  itACCESS:          0  itHIT:          0  itMISS:          0  dtACCESS:          0  dtHIT:          0  dtMISS:          0
LLC WRITE        ACCESS:     215664  HIT:     205715  MISS:       9949  iACCESS:          0  iHIT:          0  iMISS:          0  dACCESS:     215664  dHIT:     205715  dMISS:       9949  itACCESS:          0  itHIT:          0  itMISS:          0  dtACCESS:          0  dtHIT:          0  dtMISS:          0
LLC TRANSLATION  ACCESS:     417204  HIT:      39166  MISS:     378038  iACCESS:          0  iHIT:          0  iMISS:          0  dACCESS:          0  dHIT:          0  dMISS:          0  itACCESS:      87799  itHIT:       7521  itMISS:      80278  dtACCESS:     329405  dtHIT:      31645  dtMISS:     297760
LLC PREFETCH  REQUESTED:          0  ISSUED:          0  CROSSED:          0  USEFUL:          0  USELESS:          0
LLC AVERAGE iMISS LATENCY: 45.3837 cycles
LLC AVERAGE dMISS LATENCY: 103.696 cycles
LLC AVERAGE itMISS LATENCY: 4.9335 cycles
LLC AVERAGE dtMISS LATENCY: 20.057 cycles
LLC PAGE CROSSINGS (TLB HIT):         0 
LLC PAGE CROSSINGS (TLB MISS):         0 
LLC AVERAGE MISS LATENCY: 174.07 cycles

PageTableWalker TOTAL       ACCESS:     174460  
PageTableWalker AVERAGE LATENCY: 6.56327 cycles
PageTableWalker TOTAL LATENCY: 1145028 cycles

DRAM Statistics
Channel 0
 RQ ROW_BUFFER_HIT:     598200
  ROW_BUFFER_MISS:    2262363
 AVG DBUS CONGESTED CYCLE:    3.64659
 WQ ROW_BUFFER_HIT:      65272
  ROW_BUFFER_MISS:      55971  FULL:          0

