last_page:0x200000000000000
VMEM_RES_CAP:0x100000
PAGE_SIZE:4096
LOG2_PAGE_SIZE:12
LOG2_PAGE_TABLE_SIZE:9
page_table_levels:5
WARNING: physical memory size is smaller than virtual memory size
FDiP enabled with aggresivity 16

*** ChampSim Multicore Out-of-Order Simulator ***

Warmup Instructions: 50000000
Simulation Instructions: 100000000
Number of CPUs: 1
Small page size: 4096
Large page size: 2097152

CPU 0 Bimodal branch predictor
Basic BTB sets: 1024 ways: 8 indirect buffer size: 4096 RAS size: 64
Instruction page size distrubution: 0
Loading instruction page size distribution from /home/bsc/bsc018186/scratch/itp_asplos25_AE/dump/smt_srv12_ap_srv180_ap_1024i.pdst
Data page size distrubution: 0
Loading data page size distribution from /home/bsc/bsc018186/scratch/itp_asplos25_AE/dump/smt_srv12_ap_srv180_ap_1024i.pdst
cpu0_L2C IP-based stride prefetcher
cpu0_L2C is using PTP replacement policy:
	TLB_STRESS_THRESHOLD:0
	PTE_EVICTION_RATIO:0
cpu0_L1D next line prefetcher
cpu0_STLB using iTP with max lru@8
cpu0_STLB using iTP with instr@0 and data@2
Init sat counter with 3 bits (max:50).
cpu0_L1I next line prefetcher
Off-chip DRAM Size: 4 GiB Channels: 1 Width: 64-bit Data Rate: 3200 MT/s
Heartbeat CPU 0 instructions: 10000000 cycles: 2500522 heartbeat IPC: 3.99917 cumulative IPC: 3.99917 (Simulation time: 0 hr 0 min 47 sec) 
Heartbeat CPU 0 instructions: 20000000 cycles: 5000584 heartbeat IPC: 3.99991 cumulative IPC: 3.99954 (Simulation time: 0 hr 1 min 33 sec) 
Heartbeat CPU 0 instructions: 30000003 cycles: 7501348 heartbeat IPC: 3.99878 cumulative IPC: 3.99929 (Simulation time: 0 hr 2 min 20 sec) 
Heartbeat CPU 0 instructions: 40000001 cycles: 10001652 heartbeat IPC: 3.99952 cumulative IPC: 3.99934 (Simulation time: 0 hr 3 min 6 sec) 
Heartbeat CPU 0 instructions: 50000001 cycles: 12501756 heartbeat IPC: 3.99984 cumulative IPC: 3.99944 (Simulation time: 0 hr 3 min 55 sec) 
Warmup finished CPU 0 instructions: 50000001 cycles: 12501757 cumulative IPC: 3.99944 (Simulation time: 0 hr 3 min 55 sec) 

Warmup complete CPU 0 instructions: 50000001 cycles: 12501757 (Simulation time: 0 hr 3 min 55 sec) 

Heartbeat CPU 0 instructions: 60000001 cycles: 42495599 heartbeat IPC: 0.333402 cumulative IPC: 0.333402 (Simulation time: 0 hr 5 min 40 sec) 
Heartbeat CPU 0 instructions: 70000001 cycles: 71296872 heartbeat IPC: 0.347207 cumulative IPC: 0.340165 (Simulation time: 0 hr 7 min 21 sec) 
Heartbeat CPU 0 instructions: 80000001 cycles: 101916335 heartbeat IPC: 0.32659 cumulative IPC: 0.335516 (Simulation time: 0 hr 9 min 4 sec) 
Heartbeat CPU 0 instructions: 90000000 cycles: 127807177 heartbeat IPC: 0.386237 cumulative IPC: 0.346905 (Simulation time: 0 hr 10 min 38 sec) 
Heartbeat CPU 0 instructions: 100000000 cycles: 156808423 heartbeat IPC: 0.344813 cumulative IPC: 0.346485 (Simulation time: 0 hr 12 min 19 sec) 
Heartbeat CPU 0 instructions: 110000000 cycles: 186376558 heartbeat IPC: 0.338202 cumulative IPC: 0.345076 (Simulation time: 0 hr 14 min 3 sec) 
Heartbeat CPU 0 instructions: 120000000 cycles: 215385996 heartbeat IPC: 0.344716 cumulative IPC: 0.345025 (Simulation time: 0 hr 15 min 30 sec) 
Heartbeat CPU 0 instructions: 130000000 cycles: 244022220 heartbeat IPC: 0.349209 cumulative IPC: 0.345542 (Simulation time: 0 hr 16 min 50 sec) 
Heartbeat CPU 0 instructions: 140000000 cycles: 274132052 heartbeat IPC: 0.332118 cumulative IPC: 0.343997 (Simulation time: 0 hr 18 min 12 sec) 
Heartbeat CPU 0 instructions: 150000002 cycles: 303234574 heartbeat IPC: 0.343613 cumulative IPC: 0.343959 (Simulation time: 0 hr 19 min 32 sec) 
Simulation finished CPU 0 instructions: 100000001 cycles: 290732818 cumulative IPC: 0.343959 (Simulation time: 0 hr 19 min 32 sec) 

Simulation complete CPU 0 instructions: 100000001 cycles: 290732818 (Simulation time: 0 hr 19 min 32 sec) 


ChampSim completed all CPUs

Saving instructions large page distribution to /home/bsc/bsc018186/scratch/itp_asplos25_AE/dump/smt_srv12_ap_srv180_ap_1024i.pdst...
Saving data large page distribution to /home/bsc/bsc018186/scratch/itp_asplos25_AE/dump/smt_srv12_ap_srv180_ap_1024i.pdst...
=== Simulation ===
CPU 0 runs /gpfs/projects/bsc18/MN4/bsc18/romol/ChampSim/traces/qualcomm_srv/smt_srv12_ap_srv180_ap_1024i.champsimtrace.xz

Region of Interest Statistics

CPU 0 cumulative IPC: 0.343959 instructions: 100000001 cycles: 290732818
CPU 0 Branch Prediction Accuracy: 75.5619% MPKI: 44.1516 Average ROB Occupancy at Mispredict: 11.2799
Branch type MPKI
BRANCH_DIRECT_JUMP: 1.35207
BRANCH_INDIRECT: 22.6833
BRANCH_CONDITIONAL: 13.0284
BRANCH_DIRECT_CALL: 2.59576
BRANCH_INDIRECT_CALL: 1.03949
BRANCH_RETURN: 3.45256

Instructions large pages: 0
Instructions small pages: 14796
Large page distribution for instructions: 0%

Data large pages: 0
Data small pages: 13082
Large page distribution for data: 0%

cpu0_L1I TOTAL       ACCESS:   38987146  HIT:   30333646  MISS:    8653500  iACCESS:   38987146  iHIT:   30333646  iMISS:    8653500  dACCESS:          0  dHIT:          0  dMISS:          0  itACCESS:          0  itHIT:          0  itMISS:          0  dtACCESS:          0  dtHIT:          0  dtMISS:          0
cpu0_L1I LOAD         ACCESS:   11644780  HIT:    9289129  MISS:    2355651  iACCESS:   11644780  iHIT:    9289129  iMISS:    2355651  dACCESS:          0  dHIT:          0  dMISS:          0  itACCESS:          0  itHIT:          0  itMISS:          0  dtACCESS:          0  dtHIT:          0  dtMISS:          0
cpu0_L1I RFO          ACCESS:          0  HIT:          0  MISS:          0  iACCESS:          0  iHIT:          0  iMISS:          0  dACCESS:          0  dHIT:          0  dMISS:          0  itACCESS:          0  itHIT:          0  itMISS:          0  dtACCESS:          0  dtHIT:          0  dtMISS:          0
cpu0_L1I PREFETCH     ACCESS:   27342366  HIT:   21044517  MISS:    6297849  iACCESS:   27342366  iHIT:   21044517  iMISS:    6297849  dACCESS:          0  dHIT:          0  dMISS:          0  itACCESS:          0  itHIT:          0  itMISS:          0  dtACCESS:          0  dtHIT:          0  dtMISS:          0
cpu0_L1I WRITE        ACCESS:          0  HIT:          0  MISS:          0  iACCESS:          0  iHIT:          0  iMISS:          0  dACCESS:          0  dHIT:          0  dMISS:          0  itACCESS:          0  itHIT:          0  itMISS:          0  dtACCESS:          0  dtHIT:          0  dtMISS:          0
cpu0_L1I TRANSLATION  ACCESS:          0  HIT:          0  MISS:          0  iACCESS:          0  iHIT:          0  iMISS:          0  dACCESS:          0  dHIT:          0  dMISS:          0  itACCESS:          0  itHIT:          0  itMISS:          0  dtACCESS:          0  dtHIT:          0  dtMISS:          0
cpu0_L1I PREFETCH  REQUESTED:   30139074  ISSUED:   30139066  CROSSED:          0  USEFUL:    2194624  USELESS:     755390
cpu0_L1I AVERAGE iMISS LATENCY: 23.7973 cycles
cpu0_L1I AVERAGE dMISS LATENCY: 0 cycles
cpu0_L1I AVERAGE itMISS LATENCY: 0 cycles
cpu0_L1I AVERAGE dtMISS LATENCY: 0 cycles
cpu0_L1I PAGE CROSSINGS (TLB HIT):         0 
cpu0_L1I PAGE CROSSINGS (TLB MISS):         0 
cpu0_L1I AVERAGE MISS LATENCY: 23.7973 cycles
cpu0_ITLB TOTAL       ACCESS:   32977215  HIT:   30789436  MISS:    2187779  iACCESS:   32977215  iHIT:   30789436  iMISS:    2187779  dACCESS:          0  dHIT:          0  dMISS:          0  itACCESS:          0  itHIT:          0  itMISS:          0  dtACCESS:          0  dtHIT:          0  dtMISS:          0
cpu0_ITLB LOAD         ACCESS:   32977215  HIT:   30789436  MISS:    2187779  iACCESS:   32977215  iHIT:   30789436  iMISS:    2187779  dACCESS:          0  dHIT:          0  dMISS:          0  itACCESS:          0  itHIT:          0  itMISS:          0  dtACCESS:          0  dtHIT:          0  dtMISS:          0
cpu0_ITLB RFO          ACCESS:          0  HIT:          0  MISS:          0  iACCESS:          0  iHIT:          0  iMISS:          0  dACCESS:          0  dHIT:          0  dMISS:          0  itACCESS:          0  itHIT:          0  itMISS:          0  dtACCESS:          0  dtHIT:          0  dtMISS:          0
cpu0_ITLB PREFETCH     ACCESS:          0  HIT:          0  MISS:          0  iACCESS:          0  iHIT:          0  iMISS:          0  dACCESS:          0  dHIT:          0  dMISS:          0  itACCESS:          0  itHIT:          0  itMISS:          0  dtACCESS:          0  dtHIT:          0  dtMISS:          0
cpu0_ITLB WRITE        ACCESS:          0  HIT:          0  MISS:          0  iACCESS:          0  iHIT:          0  iMISS:          0  dACCESS:          0  dHIT:          0  dMISS:          0  itACCESS:          0  itHIT:          0  itMISS:          0  dtACCESS:          0  dtHIT:          0  dtMISS:          0
cpu0_ITLB TRANSLATION  ACCESS:          0  HIT:          0  MISS:          0  iACCESS:          0  iHIT:          0  iMISS:          0  dACCESS:          0  dHIT:          0  dMISS:          0  itACCESS:          0  itHIT:          0  itMISS:          0  dtACCESS:          0  dtHIT:          0  dtMISS:          0
cpu0_ITLB PREFETCH  REQUESTED:          0  ISSUED:          0  CROSSED:          0  USEFUL:     386621  USELESS:      77863
cpu0_ITLB AVERAGE iMISS LATENCY: 6.43448 cycles
cpu0_ITLB AVERAGE dMISS LATENCY: 0 cycles
cpu0_ITLB AVERAGE itMISS LATENCY: 0 cycles
cpu0_ITLB AVERAGE dtMISS LATENCY: 0 cycles
cpu0_ITLB PAGE CROSSINGS (TLB HIT):         0 
cpu0_ITLB PAGE CROSSINGS (TLB MISS):         0 
cpu0_ITLB AVERAGE MISS LATENCY: 6.43448 cycles
cpu0_DTLB TOTAL       ACCESS:   28865392  HIT:   25274398  MISS:    3590994  iACCESS:          0  iHIT:          0  iMISS:          0  dACCESS:   28865392  dHIT:   25274398  dMISS:    3590994  itACCESS:          0  itHIT:          0  itMISS:          0  dtACCESS:          0  dtHIT:          0  dtMISS:          0
cpu0_DTLB LOAD         ACCESS:   28865392  HIT:   25274398  MISS:    3590994  iACCESS:          0  iHIT:          0  iMISS:          0  dACCESS:   28865392  dHIT:   25274398  dMISS:    3590994  itACCESS:          0  itHIT:          0  itMISS:          0  dtACCESS:          0  dtHIT:          0  dtMISS:          0
cpu0_DTLB RFO          ACCESS:          0  HIT:          0  MISS:          0  iACCESS:          0  iHIT:          0  iMISS:          0  dACCESS:          0  dHIT:          0  dMISS:          0  itACCESS:          0  itHIT:          0  itMISS:          0  dtACCESS:          0  dtHIT:          0  dtMISS:          0
cpu0_DTLB PREFETCH     ACCESS:          0  HIT:          0  MISS:          0  iACCESS:          0  iHIT:          0  iMISS:          0  dACCESS:          0  dHIT:          0  dMISS:          0  itACCESS:          0  itHIT:          0  itMISS:          0  dtACCESS:          0  dtHIT:          0  dtMISS:          0
cpu0_DTLB WRITE        ACCESS:          0  HIT:          0  MISS:          0  iACCESS:          0  iHIT:          0  iMISS:          0  dACCESS:          0  dHIT:          0  dMISS:          0  itACCESS:          0  itHIT:          0  itMISS:          0  dtACCESS:          0  dtHIT:          0  dtMISS:          0
cpu0_DTLB TRANSLATION  ACCESS:          0  HIT:          0  MISS:          0  iACCESS:          0  iHIT:          0  iMISS:          0  dACCESS:          0  dHIT:          0  dMISS:          0  itACCESS:          0  itHIT:          0  itMISS:          0  dtACCESS:          0  dtHIT:          0  dtMISS:          0
cpu0_DTLB PREFETCH  REQUESTED:          0  ISSUED:          0  CROSSED:          0  USEFUL:          0  USELESS:          0
cpu0_DTLB AVERAGE iMISS LATENCY: 0 cycles
cpu0_DTLB AVERAGE dMISS LATENCY: 26.8488 cycles
cpu0_DTLB AVERAGE itMISS LATENCY: 0 cycles
cpu0_DTLB AVERAGE dtMISS LATENCY: 0 cycles
cpu0_DTLB PAGE CROSSINGS (TLB HIT):         0 
cpu0_DTLB PAGE CROSSINGS (TLB MISS):         0 
cpu0_DTLB AVERAGE MISS LATENCY: 26.8488 cycles
cpu0_STLB TOTAL       ACCESS:    2554346  HIT:    2195069  MISS:     359277  iACCESS:     464490  iHIT:     409800  iMISS:      54690  dACCESS:    2089856  dHIT:    1785269  dMISS:     304587  itACCESS:          0  itHIT:          0  itMISS:          0  dtACCESS:          0  dtHIT:          0  dtMISS:          0
cpu0_STLB LOAD         ACCESS:    2554346  HIT:    2195069  MISS:     359277  iACCESS:     464490  iHIT:     409800  iMISS:      54690  dACCESS:    2089856  dHIT:    1785269  dMISS:     304587  itACCESS:          0  itHIT:          0  itMISS:          0  dtACCESS:          0  dtHIT:          0  dtMISS:          0
cpu0_STLB RFO          ACCESS:          0  HIT:          0  MISS:          0  iACCESS:          0  iHIT:          0  iMISS:          0  dACCESS:          0  dHIT:          0  dMISS:          0  itACCESS:          0  itHIT:          0  itMISS:          0  dtACCESS:          0  dtHIT:          0  dtMISS:          0
cpu0_STLB PREFETCH     ACCESS:          0  HIT:          0  MISS:          0  iACCESS:          0  iHIT:          0  iMISS:          0  dACCESS:          0  dHIT:          0  dMISS:          0  itACCESS:          0  itHIT:          0  itMISS:          0  dtACCESS:          0  dtHIT:          0  dtMISS:          0
cpu0_STLB WRITE        ACCESS:          0  HIT:          0  MISS:          0  iACCESS:          0  iHIT:          0  iMISS:          0  dACCESS:          0  dHIT:          0  dMISS:          0  itACCESS:          0  itHIT:          0  itMISS:          0  dtACCESS:          0  dtHIT:          0  dtMISS:          0
cpu0_STLB TRANSLATION  ACCESS:          0  HIT:          0  MISS:          0  iACCESS:          0  iHIT:          0  iMISS:          0  dACCESS:          0  dHIT:          0  dMISS:          0  itACCESS:          0  itHIT:          0  itMISS:          0  dtACCESS:          0  dtHIT:          0  dtMISS:          0
cpu0_STLB PREFETCH  REQUESTED:          0  ISSUED:          0  CROSSED:          0  USEFUL:          0  USELESS:          0
cpu0_STLB AVERAGE iMISS LATENCY: 29.0227 cycles
cpu0_STLB AVERAGE dMISS LATENCY: 221.405 cycles
cpu0_STLB AVERAGE itMISS LATENCY: 0 cycles
cpu0_STLB AVERAGE dtMISS LATENCY: 0 cycles
cpu0_STLB PAGE CROSSINGS (TLB HIT):         0 
cpu0_STLB PAGE CROSSINGS (TLB MISS):         0 
cpu0_STLB AVERAGE MISS LATENCY: 250.428 cycles
cpu0_L1D TOTAL       ACCESS:   44377614  HIT:   39154903  MISS:    5222711  iACCESS:          0  iHIT:          0  iMISS:          0  dACCESS:   43815589  dHIT:   39125547  dMISS:    4690042  itACCESS:      66964  itHIT:       5674  itMISS:      61290  dtACCESS:     495061  dtHIT:      23682  dtMISS:     471379
cpu0_L1D LOAD         ACCESS:   20026199  HIT:   17944349  MISS:    2081850  iACCESS:          0  iHIT:          0  iMISS:          0  dACCESS:   20026199  dHIT:   17944349  dMISS:    2081850  itACCESS:          0  itHIT:          0  itMISS:          0  dtACCESS:          0  dtHIT:          0  dtMISS:          0
cpu0_L1D RFO          ACCESS:          0  HIT:          0  MISS:          0  iACCESS:          0  iHIT:          0  iMISS:          0  dACCESS:          0  dHIT:          0  dMISS:          0  itACCESS:          0  itHIT:          0  itMISS:          0  dtACCESS:          0  dtHIT:          0  dtMISS:          0
cpu0_L1D PREFETCH     ACCESS:   13630134  HIT:   11581384  MISS:    2048750  iACCESS:          0  iHIT:          0  iMISS:          0  dACCESS:   13630134  dHIT:   11581384  dMISS:    2048750  itACCESS:          0  itHIT:          0  itMISS:          0  dtACCESS:          0  dtHIT:          0  dtMISS:          0
cpu0_L1D WRITE        ACCESS:   10159256  HIT:    9599814  MISS:     559442  iACCESS:          0  iHIT:          0  iMISS:          0  dACCESS:   10159256  dHIT:    9599814  dMISS:     559442  itACCESS:          0  itHIT:          0  itMISS:          0  dtACCESS:          0  dtHIT:          0  dtMISS:          0
cpu0_L1D TRANSLATION  ACCESS:     562025  HIT:      29356  MISS:     532669  iACCESS:          0  iHIT:          0  iMISS:          0  dACCESS:          0  dHIT:          0  dMISS:          0  itACCESS:      66964  itHIT:       5674  itMISS:      61290  dtACCESS:     495061  dtHIT:      23682  dtMISS:     471379
cpu0_L1D PREFETCH  REQUESTED:   20026199  ISSUED:   18380513  CROSSED:          0  USEFUL:     360058  USELESS:     927613
cpu0_L1D AVERAGE iMISS LATENCY: 0 cycles
cpu0_L1D AVERAGE dMISS LATENCY: 51.7409 cycles
cpu0_L1D AVERAGE itMISS LATENCY: 1.87225 cycles
cpu0_L1D AVERAGE dtMISS LATENCY: 14.0793 cycles
cpu0_L1D PAGE CROSSINGS (TLB HIT):         0 
cpu0_L1D PAGE CROSSINGS (TLB MISS):         0 
cpu0_L1D AVERAGE MISS LATENCY: 67.6925 cycles
cpu0_L2C TOTAL       ACCESS:    8543797  HIT:    3922014  MISS:    4621783  iACCESS:    3747328  iHIT:    2141310  iMISS:    1606018  dACCESS:    4297420  dHIT:    1704926  dMISS:    2592494  itACCESS:      59097  itHIT:       8829  itMISS:      50268  dtACCESS:     439952  dtHIT:      66949  dtMISS:     373003
cpu0_L2C LOAD         ACCESS:    2031716  HIT:     923516  MISS:    1108200  iACCESS:     835737  iHIT:     489013  iMISS:     346724  dACCESS:    1195979  dHIT:     434503  dMISS:     761476  itACCESS:          0  itHIT:          0  itMISS:          0  dtACCESS:          0  dtHIT:          0  dtMISS:          0
cpu0_L2C RFO          ACCESS:     209287  HIT:      74902  MISS:     134385  iACCESS:          0  iHIT:          0  iMISS:          0  dACCESS:     209287  dHIT:      74902  dMISS:     134385  itACCESS:          0  itHIT:          0  itMISS:          0  dtACCESS:          0  dtHIT:          0  dtMISS:          0
cpu0_L2C PREFETCH     ACCESS:    5462012  HIT:    2534859  MISS:    2927153  iACCESS:    2911591  iHIT:    1652297  iMISS:    1259294  dACCESS:    2550421  dHIT:     882562  dMISS:    1667859  itACCESS:          0  itHIT:          0  itMISS:          0  dtACCESS:          0  dtHIT:          0  dtMISS:          0
cpu0_L2C WRITE        ACCESS:     341733  HIT:     312959  MISS:      28774  iACCESS:          0  iHIT:          0  iMISS:          0  dACCESS:     341733  dHIT:     312959  dMISS:      28774  itACCESS:          0  itHIT:          0  itMISS:          0  dtACCESS:          0  dtHIT:          0  dtMISS:          0
cpu0_L2C TRANSLATION  ACCESS:     499049  HIT:      75778  MISS:     423271  iACCESS:          0  iHIT:          0  iMISS:          0  dACCESS:          0  dHIT:          0  dMISS:          0  itACCESS:      59097  itHIT:       8829  itMISS:      50268  dtACCESS:     439952  dtHIT:      66949  dtMISS:     373003
cpu0_L2C PREFETCH  REQUESTED:    1503945  ISSUED:    1503942  CROSSED:          0  USEFUL:     362699  USELESS:     334426
cpu0_L2C AVERAGE iMISS LATENCY: 37.6536 cycles
cpu0_L2C AVERAGE dMISS LATENCY: 72.9174 cycles
cpu0_L2C AVERAGE itMISS LATENCY: 1.98937 cycles
cpu0_L2C AVERAGE dtMISS LATENCY: 14.9669 cycles
cpu0_L2C PAGE CROSSINGS (TLB HIT):         0 
cpu0_L2C PAGE CROSSINGS (TLB MISS):         0 
cpu0_L2C AVERAGE MISS LATENCY: 127.528 cycles
LLC TOTAL       ACCESS:    4601819  HIT:    1659899  MISS:    2941920  iACCESS:    1514054  iHIT:     597053  iMISS:     917001  dACCESS:    2664494  dHIT:    1006856  dMISS:    1657638  itACCESS:      50268  itHIT:       4462  itMISS:      45806  dtACCESS:     373003  dtHIT:      51528  dtMISS:     321475
LLC LOAD         ACCESS:    1103740  HIT:     434939  MISS:     668801  iACCESS:     345556  iHIT:     152274  iMISS:     193282  dACCESS:     758184  dHIT:     282665  dMISS:     475519  itACCESS:          0  itHIT:          0  itMISS:          0  dtACCESS:          0  dtHIT:          0  dtMISS:          0
LLC RFO          ACCESS:     134378  HIT:      46584  MISS:      87794  iACCESS:          0  iHIT:          0  iMISS:          0  dACCESS:     134378  dHIT:      46584  dMISS:      87794  itACCESS:          0  itHIT:          0  itMISS:          0  dtACCESS:          0  dtHIT:          0  dtMISS:          0
LLC PREFETCH     ACCESS:    2722070  HIT:     913487  MISS:    1808583  iACCESS:    1168498  iHIT:     444779  iMISS:     723719  dACCESS:    1553572  dHIT:     468708  dMISS:    1084864  itACCESS:          0  itHIT:          0  itMISS:          0  dtACCESS:          0  dtHIT:          0  dtMISS:          0
LLC WRITE        ACCESS:     218360  HIT:     208899  MISS:       9461  iACCESS:          0  iHIT:          0  iMISS:          0  dACCESS:     218360  dHIT:     208899  dMISS:       9461  itACCESS:          0  itHIT:          0  itMISS:          0  dtACCESS:          0  dtHIT:          0  dtMISS:          0
LLC TRANSLATION  ACCESS:     423271  HIT:      55990  MISS:     367281  iACCESS:          0  iHIT:          0  iMISS:          0  dACCESS:          0  dHIT:          0  dMISS:          0  itACCESS:      50268  itHIT:       4462  itMISS:      45806  dtACCESS:     373003  dtHIT:      51528  dtMISS:     321475
LLC PREFETCH  REQUESTED:          0  ISSUED:          0  CROSSED:          0  USEFUL:          0  USELESS:          0
LLC AVERAGE iMISS LATENCY: 49.0536 cycles
LLC AVERAGE dMISS LATENCY: 98.8251 cycles
LLC AVERAGE itMISS LATENCY: 2.78686 cycles
LLC AVERAGE dtMISS LATENCY: 21.0089 cycles
LLC PAGE CROSSINGS (TLB HIT):         0 
LLC PAGE CROSSINGS (TLB MISS):         0 
LLC AVERAGE MISS LATENCY: 171.675 cycles

PageTableWalker TOTAL       ACCESS:     170155  
PageTableWalker AVERAGE LATENCY: 6.67652 cycles
PageTableWalker TOTAL LATENCY: 1136043 cycles

DRAM Statistics
Channel 0
 RQ ROW_BUFFER_HIT:     646082
  ROW_BUFFER_MISS:    2277280
 AVG DBUS CONGESTED CYCLE:    3.64783
 WQ ROW_BUFFER_HIT:      63982
  ROW_BUFFER_MISS:      54282  FULL:          0

