last_page:0x200000000000000
VMEM_RES_CAP:0x100000
PAGE_SIZE:4096
LOG2_PAGE_SIZE:12
LOG2_PAGE_TABLE_SIZE:9
page_table_levels:5
WARNING: physical memory size is smaller than virtual memory size
FDiP enabled with aggresivity 16

*** ChampSim Multicore Out-of-Order Simulator ***

Warmup Instructions: 50000000
Simulation Instructions: 100000000
Number of CPUs: 1
Small page size: 4096
Large page size: 2097152

CPU 0 Bimodal branch predictor
Basic BTB sets: 1024 ways: 8 indirect buffer size: 4096 RAS size: 64
Instruction page size distrubution: 0
Loading instruction page size distribution from /home/bsc/bsc018186/scratch/itp_asplos25_AE/dump/smt_srv12_ap_srv727_ap_1024i.pdst
Data page size distrubution: 0
Loading data page size distribution from /home/bsc/bsc018186/scratch/itp_asplos25_AE/dump/smt_srv12_ap_srv727_ap_1024i.pdst
cpu0_L2C IP-based stride prefetcher
cpu0_L1D next line prefetcher
CHiRPing...
cpu0_L1I next line prefetcher
Off-chip DRAM Size: 4 GiB Channels: 1 Width: 64-bit Data Rate: 3200 MT/s
Heartbeat CPU 0 instructions: 10000003 cycles: 2500741 heartbeat IPC: 3.99882 cumulative IPC: 3.99882 (Simulation time: 0 hr 0 min 43 sec) 
Heartbeat CPU 0 instructions: 20000003 cycles: 5001027 heartbeat IPC: 3.99955 cumulative IPC: 3.99918 (Simulation time: 0 hr 1 min 29 sec) 
Heartbeat CPU 0 instructions: 30000000 cycles: 7501642 heartbeat IPC: 3.99902 cumulative IPC: 3.99913 (Simulation time: 0 hr 2 min 15 sec) 
Heartbeat CPU 0 instructions: 40000002 cycles: 10001868 heartbeat IPC: 3.99964 cumulative IPC: 3.99926 (Simulation time: 0 hr 3 min 2 sec) 
Heartbeat CPU 0 instructions: 50000002 cycles: 12502157 heartbeat IPC: 3.99954 cumulative IPC: 3.99932 (Simulation time: 0 hr 3 min 49 sec) 
Warmup finished CPU 0 instructions: 50000002 cycles: 12502158 cumulative IPC: 3.99931 (Simulation time: 0 hr 3 min 49 sec) 

Warmup complete CPU 0 instructions: 50000002 cycles: 12502158 (Simulation time: 0 hr 3 min 49 sec) 

Heartbeat CPU 0 instructions: 60000004 cycles: 40661275 heartbeat IPC: 0.355125 cumulative IPC: 0.355125 (Simulation time: 0 hr 5 min 18 sec) 
Heartbeat CPU 0 instructions: 70000001 cycles: 69142672 heartbeat IPC: 0.351107 cumulative IPC: 0.353105 (Simulation time: 0 hr 6 min 48 sec) 
Heartbeat CPU 0 instructions: 80000001 cycles: 98360671 heartbeat IPC: 0.342255 cumulative IPC: 0.349413 (Simulation time: 0 hr 8 min 16 sec) 
Heartbeat CPU 0 instructions: 90000002 cycles: 124233419 heartbeat IPC: 0.386508 cumulative IPC: 0.358002 (Simulation time: 0 hr 9 min 36 sec) 
Heartbeat CPU 0 instructions: 100000000 cycles: 152929332 heartbeat IPC: 0.348482 cumulative IPC: 0.356057 (Simulation time: 0 hr 11 min 2 sec) 
Heartbeat CPU 0 instructions: 110000000 cycles: 182332349 heartbeat IPC: 0.340102 cumulative IPC: 0.353295 (Simulation time: 0 hr 12 min 29 sec) 
Heartbeat CPU 0 instructions: 120000002 cycles: 210219495 heartbeat IPC: 0.358589 cumulative IPC: 0.354041 (Simulation time: 0 hr 13 min 54 sec) 
Heartbeat CPU 0 instructions: 130000000 cycles: 238994814 heartbeat IPC: 0.34752 cumulative IPC: 0.353213 (Simulation time: 0 hr 15 min 20 sec) 
Heartbeat CPU 0 instructions: 140000000 cycles: 268195054 heartbeat IPC: 0.342463 cumulative IPC: 0.351985 (Simulation time: 0 hr 16 min 46 sec) 
Heartbeat CPU 0 instructions: 150000002 cycles: 296730437 heartbeat IPC: 0.350443 cumulative IPC: 0.35183 (Simulation time: 0 hr 18 min 12 sec) 
Simulation finished CPU 0 instructions: 100000000 cycles: 284228280 cumulative IPC: 0.35183 (Simulation time: 0 hr 18 min 12 sec) 

Simulation complete CPU 0 instructions: 100000000 cycles: 284228280 (Simulation time: 0 hr 18 min 12 sec) 


ChampSim completed all CPUs

Saving instructions large page distribution to /home/bsc/bsc018186/scratch/itp_asplos25_AE/dump/smt_srv12_ap_srv727_ap_1024i.pdst...
Saving data large page distribution to /home/bsc/bsc018186/scratch/itp_asplos25_AE/dump/smt_srv12_ap_srv727_ap_1024i.pdst...
=== Simulation ===
CPU 0 runs /gpfs/projects/bsc18/MN4/bsc18/romol/ChampSim/traces/qualcomm_srv/smt_srv12_ap_srv727_ap_1024i.champsimtrace.xz

Region of Interest Statistics

CPU 0 cumulative IPC: 0.35183 instructions: 100000000 cycles: 284228280
CPU 0 Branch Prediction Accuracy: 74.6726% MPKI: 45.8504 Average ROB Occupancy at Mispredict: 10.284
Branch type MPKI
BRANCH_DIRECT_JUMP: 1.44036
BRANCH_INDIRECT: 23.3875
BRANCH_CONDITIONAL: 13.5391
BRANCH_DIRECT_CALL: 2.79709
BRANCH_INDIRECT_CALL: 1.12405
BRANCH_RETURN: 3.56237

Instructions large pages: 0
Instructions small pages: 11302
Large page distribution for instructions: 0%

Data large pages: 0
Data small pages: 9440
Large page distribution for data: 0%

cpu0_L1I TOTAL       ACCESS:   39487132  HIT:   30325129  MISS:    9162003  iACCESS:   39487132  iHIT:   30325129  iMISS:    9162003  dACCESS:          0  dHIT:          0  dMISS:          0  itACCESS:          0  itHIT:          0  itMISS:          0  dtACCESS:          0  dtHIT:          0  dtMISS:          0
cpu0_L1I LOAD         ACCESS:   11703388  HIT:    9228085  MISS:    2475303  iACCESS:   11703388  iHIT:    9228085  iMISS:    2475303  dACCESS:          0  dHIT:          0  dMISS:          0  itACCESS:          0  itHIT:          0  itMISS:          0  dtACCESS:          0  dtHIT:          0  dtMISS:          0
cpu0_L1I RFO          ACCESS:          0  HIT:          0  MISS:          0  iACCESS:          0  iHIT:          0  iMISS:          0  dACCESS:          0  dHIT:          0  dMISS:          0  itACCESS:          0  itHIT:          0  itMISS:          0  dtACCESS:          0  dtHIT:          0  dtMISS:          0
cpu0_L1I PREFETCH     ACCESS:   27783744  HIT:   21097044  MISS:    6686700  iACCESS:   27783744  iHIT:   21097044  iMISS:    6686700  dACCESS:          0  dHIT:          0  dMISS:          0  itACCESS:          0  itHIT:          0  itMISS:          0  dtACCESS:          0  dtHIT:          0  dtMISS:          0
cpu0_L1I WRITE        ACCESS:          0  HIT:          0  MISS:          0  iACCESS:          0  iHIT:          0  iMISS:          0  dACCESS:          0  dHIT:          0  dMISS:          0  itACCESS:          0  itHIT:          0  itMISS:          0  dtACCESS:          0  dtHIT:          0  dtMISS:          0
cpu0_L1I TRANSLATION  ACCESS:          0  HIT:          0  MISS:          0  iACCESS:          0  iHIT:          0  iMISS:          0  dACCESS:          0  dHIT:          0  dMISS:          0  itACCESS:          0  itHIT:          0  itMISS:          0  dtACCESS:          0  dtHIT:          0  dtMISS:          0
cpu0_L1I PREFETCH  REQUESTED:   30312625  ISSUED:   30310874  CROSSED:          0  USEFUL:    2213366  USELESS:     769381
cpu0_L1I AVERAGE iMISS LATENCY: 25.1934 cycles
cpu0_L1I AVERAGE dMISS LATENCY: 0 cycles
cpu0_L1I AVERAGE itMISS LATENCY: 0 cycles
cpu0_L1I AVERAGE dtMISS LATENCY: 0 cycles
cpu0_L1I PAGE CROSSINGS (TLB HIT):         0 
cpu0_L1I PAGE CROSSINGS (TLB MISS):         0 
cpu0_L1I AVERAGE MISS LATENCY: 25.1934 cycles
cpu0_ITLB TOTAL       ACCESS:   33310836  HIT:   31084689  MISS:    2226147  iACCESS:   33310836  iHIT:   31084689  iMISS:    2226147  dACCESS:          0  dHIT:          0  dMISS:          0  itACCESS:          0  itHIT:          0  itMISS:          0  dtACCESS:          0  dtHIT:          0  dtMISS:          0
cpu0_ITLB LOAD         ACCESS:   33310836  HIT:   31084689  MISS:    2226147  iACCESS:   33310836  iHIT:   31084689  iMISS:    2226147  dACCESS:          0  dHIT:          0  dMISS:          0  itACCESS:          0  itHIT:          0  itMISS:          0  dtACCESS:          0  dtHIT:          0  dtMISS:          0
cpu0_ITLB RFO          ACCESS:          0  HIT:          0  MISS:          0  iACCESS:          0  iHIT:          0  iMISS:          0  dACCESS:          0  dHIT:          0  dMISS:          0  itACCESS:          0  itHIT:          0  itMISS:          0  dtACCESS:          0  dtHIT:          0  dtMISS:          0
cpu0_ITLB PREFETCH     ACCESS:          0  HIT:          0  MISS:          0  iACCESS:          0  iHIT:          0  iMISS:          0  dACCESS:          0  dHIT:          0  dMISS:          0  itACCESS:          0  itHIT:          0  itMISS:          0  dtACCESS:          0  dtHIT:          0  dtMISS:          0
cpu0_ITLB WRITE        ACCESS:          0  HIT:          0  MISS:          0  iACCESS:          0  iHIT:          0  iMISS:          0  dACCESS:          0  dHIT:          0  dMISS:          0  itACCESS:          0  itHIT:          0  itMISS:          0  dtACCESS:          0  dtHIT:          0  dtMISS:          0
cpu0_ITLB TRANSLATION  ACCESS:          0  HIT:          0  MISS:          0  iACCESS:          0  iHIT:          0  iMISS:          0  dACCESS:          0  dHIT:          0  dMISS:          0  itACCESS:          0  itHIT:          0  itMISS:          0  dtACCESS:          0  dtHIT:          0  dtMISS:          0
cpu0_ITLB PREFETCH  REQUESTED:          0  ISSUED:          0  CROSSED:          0  USEFUL:     394009  USELESS:      79779
cpu0_ITLB AVERAGE iMISS LATENCY: 8.27714 cycles
cpu0_ITLB AVERAGE dMISS LATENCY: 0 cycles
cpu0_ITLB AVERAGE itMISS LATENCY: 0 cycles
cpu0_ITLB AVERAGE dtMISS LATENCY: 0 cycles
cpu0_ITLB PAGE CROSSINGS (TLB HIT):         0 
cpu0_ITLB PAGE CROSSINGS (TLB MISS):         0 
cpu0_ITLB AVERAGE MISS LATENCY: 8.27714 cycles
cpu0_DTLB TOTAL       ACCESS:   29009650  HIT:   25532215  MISS:    3477435  iACCESS:          0  iHIT:          0  iMISS:          0  dACCESS:   29009650  dHIT:   25532215  dMISS:    3477435  itACCESS:          0  itHIT:          0  itMISS:          0  dtACCESS:          0  dtHIT:          0  dtMISS:          0
cpu0_DTLB LOAD         ACCESS:   29009650  HIT:   25532215  MISS:    3477435  iACCESS:          0  iHIT:          0  iMISS:          0  dACCESS:   29009650  dHIT:   25532215  dMISS:    3477435  itACCESS:          0  itHIT:          0  itMISS:          0  dtACCESS:          0  dtHIT:          0  dtMISS:          0
cpu0_DTLB RFO          ACCESS:          0  HIT:          0  MISS:          0  iACCESS:          0  iHIT:          0  iMISS:          0  dACCESS:          0  dHIT:          0  dMISS:          0  itACCESS:          0  itHIT:          0  itMISS:          0  dtACCESS:          0  dtHIT:          0  dtMISS:          0
cpu0_DTLB PREFETCH     ACCESS:          0  HIT:          0  MISS:          0  iACCESS:          0  iHIT:          0  iMISS:          0  dACCESS:          0  dHIT:          0  dMISS:          0  itACCESS:          0  itHIT:          0  itMISS:          0  dtACCESS:          0  dtHIT:          0  dtMISS:          0
cpu0_DTLB WRITE        ACCESS:          0  HIT:          0  MISS:          0  iACCESS:          0  iHIT:          0  iMISS:          0  dACCESS:          0  dHIT:          0  dMISS:          0  itACCESS:          0  itHIT:          0  itMISS:          0  dtACCESS:          0  dtHIT:          0  dtMISS:          0
cpu0_DTLB TRANSLATION  ACCESS:          0  HIT:          0  MISS:          0  iACCESS:          0  iHIT:          0  iMISS:          0  dACCESS:          0  dHIT:          0  dMISS:          0  itACCESS:          0  itHIT:          0  itMISS:          0  dtACCESS:          0  dtHIT:          0  dtMISS:          0
cpu0_DTLB PREFETCH  REQUESTED:          0  ISSUED:          0  CROSSED:          0  USEFUL:          0  USELESS:          0
cpu0_DTLB AVERAGE iMISS LATENCY: 0 cycles
cpu0_DTLB AVERAGE dMISS LATENCY: 17.6857 cycles
cpu0_DTLB AVERAGE itMISS LATENCY: 0 cycles
cpu0_DTLB AVERAGE dtMISS LATENCY: 0 cycles
cpu0_DTLB PAGE CROSSINGS (TLB HIT):         0 
cpu0_DTLB PAGE CROSSINGS (TLB MISS):         0 
cpu0_DTLB AVERAGE MISS LATENCY: 17.6857 cycles
cpu0_STLB TOTAL       ACCESS:    2538215  HIT:    2156568  MISS:     381647  iACCESS:     473797  iHIT:     353569  iMISS:     120228  dACCESS:    2064418  dHIT:    1802999  dMISS:     261419  itACCESS:          0  itHIT:          0  itMISS:          0  dtACCESS:          0  dtHIT:          0  dtMISS:          0
cpu0_STLB LOAD         ACCESS:    2538215  HIT:    2156568  MISS:     381647  iACCESS:     473797  iHIT:     353569  iMISS:     120228  dACCESS:    2064418  dHIT:    1802999  dMISS:     261419  itACCESS:          0  itHIT:          0  itMISS:          0  dtACCESS:          0  dtHIT:          0  dtMISS:          0
cpu0_STLB RFO          ACCESS:          0  HIT:          0  MISS:          0  iACCESS:          0  iHIT:          0  iMISS:          0  dACCESS:          0  dHIT:          0  dMISS:          0  itACCESS:          0  itHIT:          0  itMISS:          0  dtACCESS:          0  dtHIT:          0  dtMISS:          0
cpu0_STLB PREFETCH     ACCESS:          0  HIT:          0  MISS:          0  iACCESS:          0  iHIT:          0  iMISS:          0  dACCESS:          0  dHIT:          0  dMISS:          0  itACCESS:          0  itHIT:          0  itMISS:          0  dtACCESS:          0  dtHIT:          0  dtMISS:          0
cpu0_STLB WRITE        ACCESS:          0  HIT:          0  MISS:          0  iACCESS:          0  iHIT:          0  iMISS:          0  dACCESS:          0  dHIT:          0  dMISS:          0  itACCESS:          0  itHIT:          0  itMISS:          0  dtACCESS:          0  dtHIT:          0  dtMISS:          0
cpu0_STLB TRANSLATION  ACCESS:          0  HIT:          0  MISS:          0  iACCESS:          0  iHIT:          0  iMISS:          0  dACCESS:          0  dHIT:          0  dMISS:          0  itACCESS:          0  itHIT:          0  itMISS:          0  dtACCESS:          0  dtHIT:          0  dtMISS:          0
cpu0_STLB PREFETCH  REQUESTED:          0  ISSUED:          0  CROSSED:          0  USEFUL:          0  USELESS:          0
cpu0_STLB AVERAGE iMISS LATENCY: 38.346 cycles
cpu0_STLB AVERAGE dMISS LATENCY: 117.657 cycles
cpu0_STLB AVERAGE itMISS LATENCY: 0 cycles
cpu0_STLB AVERAGE dtMISS LATENCY: 0 cycles
cpu0_STLB PAGE CROSSINGS (TLB HIT):         0 
cpu0_STLB PAGE CROSSINGS (TLB MISS):         0 
cpu0_STLB AVERAGE MISS LATENCY: 156.002 cycles
cpu0_L1D TOTAL       ACCESS:   45141157  HIT:   39361461  MISS:    5779696  iACCESS:          0  iHIT:          0  iMISS:          0  dACCESS:   44576054  dHIT:   39328091  dMISS:    5247963  itACCESS:     134453  itHIT:      14961  itMISS:     119492  dtACCESS:     430650  dtHIT:      18409  dtMISS:     412241
cpu0_L1D LOAD         ACCESS:   20384314  HIT:   18046565  MISS:    2337749  iACCESS:          0  iHIT:          0  iMISS:          0  dACCESS:   20384314  dHIT:   18046565  dMISS:    2337749  itACCESS:          0  itHIT:          0  itMISS:          0  dtACCESS:          0  dtHIT:          0  dtMISS:          0
cpu0_L1D RFO          ACCESS:          0  HIT:          0  MISS:          0  iACCESS:          0  iHIT:          0  iMISS:          0  dACCESS:          0  dHIT:          0  dMISS:          0  itACCESS:          0  itHIT:          0  itMISS:          0  dtACCESS:          0  dtHIT:          0  dtMISS:          0
cpu0_L1D PREFETCH     ACCESS:   14019991  HIT:   11699456  MISS:    2320535  iACCESS:          0  iHIT:          0  iMISS:          0  dACCESS:   14019991  dHIT:   11699456  dMISS:    2320535  itACCESS:          0  itHIT:          0  itMISS:          0  dtACCESS:          0  dtHIT:          0  dtMISS:          0
cpu0_L1D WRITE        ACCESS:   10171749  HIT:    9582070  MISS:     589679  iACCESS:          0  iHIT:          0  iMISS:          0  dACCESS:   10171749  dHIT:    9582070  dMISS:     589679  itACCESS:          0  itHIT:          0  itMISS:          0  dtACCESS:          0  dtHIT:          0  dtMISS:          0
cpu0_L1D TRANSLATION  ACCESS:     565103  HIT:      33370  MISS:     531733  iACCESS:          0  iHIT:          0  iMISS:          0  dACCESS:          0  dHIT:          0  dMISS:          0  itACCESS:     134453  itHIT:      14961  itMISS:     119492  dtACCESS:     430650  dtHIT:      18409  dtMISS:     412241
cpu0_L1D PREFETCH  REQUESTED:   20384314  ISSUED:   18587990  CROSSED:          0  USEFUL:     362879  USELESS:     933558
cpu0_L1D AVERAGE iMISS LATENCY: 0 cycles
cpu0_L1D AVERAGE dMISS LATENCY: 50.9703 cycles
cpu0_L1D AVERAGE itMISS LATENCY: 2.32232 cycles
cpu0_L1D AVERAGE dtMISS LATENCY: 6.96723 cycles
cpu0_L1D PAGE CROSSINGS (TLB HIT):         0 
cpu0_L1D PAGE CROSSINGS (TLB MISS):         0 
cpu0_L1D AVERAGE MISS LATENCY: 60.2599 cycles
cpu0_L2C TOTAL       ACCESS:    8650417  HIT:    1529915  MISS:    7120502  iACCESS:    3783083  iHIT:     810863  iMISS:    2972220  dACCESS:    4374570  dHIT:     524661  dMISS:    3849909  itACCESS:     118835  itHIT:      40630  itMISS:      78205  dtACCESS:     373929  dtHIT:     153761  dtMISS:     220168
cpu0_L2C LOAD         ACCESS:    2046704  HIT:     204502  MISS:    1842202  iACCESS:     835998  iHIT:     113739  iMISS:     722259  dACCESS:    1210706  dHIT:      90763  dMISS:    1119943  itACCESS:          0  itHIT:          0  itMISS:          0  dtACCESS:          0  dtHIT:          0  dtMISS:          0
cpu0_L2C RFO          ACCESS:     215201  HIT:      25961  MISS:     189240  iACCESS:          0  iHIT:          0  iMISS:          0  dACCESS:     215201  dHIT:      25961  dMISS:     189240  itACCESS:          0  itHIT:          0  itMISS:          0  dtACCESS:          0  dtHIT:          0  dtMISS:          0
cpu0_L2C PREFETCH     ACCESS:    5554995  HIT:    1007782  MISS:    4547213  iACCESS:    2947085  iHIT:     697124  iMISS:    2249961  dACCESS:    2607910  dHIT:     310658  dMISS:    2297252  itACCESS:          0  itHIT:          0  itMISS:          0  dtACCESS:          0  dtHIT:          0  dtMISS:          0
cpu0_L2C WRITE        ACCESS:     340753  HIT:      97279  MISS:     243474  iACCESS:          0  iHIT:          0  iMISS:          0  dACCESS:     340753  dHIT:      97279  dMISS:     243474  itACCESS:          0  itHIT:          0  itMISS:          0  dtACCESS:          0  dtHIT:          0  dtMISS:          0
cpu0_L2C TRANSLATION  ACCESS:     492764  HIT:     194391  MISS:     298373  iACCESS:          0  iHIT:          0  iMISS:          0  dACCESS:          0  dHIT:          0  dMISS:          0  itACCESS:     118835  itHIT:      40630  itMISS:      78205  dtACCESS:     373929  dtHIT:     153761  dtMISS:     220168
cpu0_L2C PREFETCH  REQUESTED:    1548099  ISSUED:    1548097  CROSSED:          0  USEFUL:     419271  USELESS:     500390
cpu0_L2C AVERAGE iMISS LATENCY: 27.9151 cycles
cpu0_L2C AVERAGE dMISS LATENCY: 51.5581 cycles
cpu0_L2C AVERAGE itMISS LATENCY: 1.72339 cycles
cpu0_L2C AVERAGE dtMISS LATENCY: 5.14951 cycles
cpu0_L2C PAGE CROSSINGS (TLB HIT):         0 
cpu0_L2C PAGE CROSSINGS (TLB MISS):         0 
cpu0_L2C AVERAGE MISS LATENCY: 86.3461 cycles
LLC TOTAL       ACCESS:    6920392  HIT:    4076067  MISS:    2844325  iACCESS:    2876770  iHIT:    1963713  iMISS:     913057  dACCESS:    3745249  dHIT:    2043076  dMISS:    1702173  itACCESS:      78205  itHIT:      18130  itMISS:      60075  dtACCESS:     220168  dtHIT:      51148  dtMISS:     169020
LLC LOAD         ACCESS:    1835410  HIT:    1155768  MISS:     679642  iACCESS:     720989  iHIT:     529110  iMISS:     191879  dACCESS:    1114421  dHIT:     626658  dMISS:     487763  itACCESS:          0  itHIT:          0  itMISS:          0  dtACCESS:          0  dtHIT:          0  dtMISS:          0
LLC RFO          ACCESS:     189225  HIT:      93602  MISS:      95623  iACCESS:          0  iHIT:          0  iMISS:          0  dACCESS:     189225  dHIT:      93602  dMISS:      95623  itACCESS:          0  itHIT:          0  itMISS:          0  dtACCESS:          0  dtHIT:          0  dtMISS:          0
LLC PREFETCH     ACCESS:    4322761  HIT:    2488653  MISS:    1834108  iACCESS:    2155781  iHIT:    1434603  iMISS:     721178  dACCESS:    2166980  dHIT:    1054050  dMISS:    1112930  itACCESS:          0  itHIT:          0  itMISS:          0  dtACCESS:          0  dtHIT:          0  dtMISS:          0
LLC WRITE        ACCESS:     274623  HIT:     268766  MISS:       5857  iACCESS:          0  iHIT:          0  iMISS:          0  dACCESS:     274623  dHIT:     268766  dMISS:       5857  itACCESS:          0  itHIT:          0  itMISS:          0  dtACCESS:          0  dtHIT:          0  dtMISS:          0
LLC TRANSLATION  ACCESS:     298373  HIT:      69278  MISS:     229095  iACCESS:          0  iHIT:          0  iMISS:          0  dACCESS:          0  dHIT:          0  dMISS:          0  itACCESS:      78205  itHIT:      18130  itMISS:      60075  dtACCESS:     220168  dtHIT:      51148  dtMISS:     169020
LLC PREFETCH  REQUESTED:          0  ISSUED:          0  CROSSED:          0  USEFUL:          0  USELESS:          0
LLC AVERAGE iMISS LATENCY: 50.2269 cycles
LLC AVERAGE dMISS LATENCY: 106.218 cycles
LLC AVERAGE itMISS LATENCY: 3.77261 cycles
LLC AVERAGE dtMISS LATENCY: 11.367 cycles
LLC PAGE CROSSINGS (TLB HIT):         0 
LLC PAGE CROSSINGS (TLB MISS):         0 
LLC AVERAGE MISS LATENCY: 171.585 cycles

PageTableWalker TOTAL       ACCESS:     186772  
PageTableWalker AVERAGE LATENCY: 5.85197 cycles
PageTableWalker TOTAL LATENCY: 1092984 cycles

DRAM Statistics
Channel 0
 RQ ROW_BUFFER_HIT:     646204
  ROW_BUFFER_MISS:    2174126
 AVG DBUS CONGESTED CYCLE:    3.65597
 WQ ROW_BUFFER_HIT:      68736
  ROW_BUFFER_MISS:      62851  FULL:          0

