last_page:0x200000000000000
VMEM_RES_CAP:0x100000
PAGE_SIZE:4096
LOG2_PAGE_SIZE:12
LOG2_PAGE_TABLE_SIZE:9
page_table_levels:5
WARNING: physical memory size is smaller than virtual memory size
FDiP enabled with aggresivity 16

*** ChampSim Multicore Out-of-Order Simulator ***

Warmup Instructions: 50000000
Simulation Instructions: 100000000
Number of CPUs: 1
Small page size: 4096
Large page size: 2097152

CPU 0 Bimodal branch predictor
Basic BTB sets: 1024 ways: 8 indirect buffer size: 4096 RAS size: 64
Instruction page size distrubution: 0
Loading instruction page size distribution from /home/bsc/bsc018186/scratch/itp_asplos25_AE/dump/smt_srv207_ap_srv727_ap_1024i.pdst
Data page size distrubution: 0
Loading data page size distribution from /home/bsc/bsc018186/scratch/itp_asplos25_AE/dump/smt_srv207_ap_srv727_ap_1024i.pdst
cpu0_L2C IP-based stride prefetcher
cpu0_L1D next line prefetcher
CHiRPing...
cpu0_L1I next line prefetcher
Off-chip DRAM Size: 4 GiB Channels: 1 Width: 64-bit Data Rate: 3200 MT/s
Heartbeat CPU 0 instructions: 10000000 cycles: 2501054 heartbeat IPC: 3.99832 cumulative IPC: 3.99832 (Simulation time: 0 hr 0 min 40 sec) 
Heartbeat CPU 0 instructions: 20000000 cycles: 5001419 heartbeat IPC: 3.99942 cumulative IPC: 3.99887 (Simulation time: 0 hr 1 min 22 sec) 
Heartbeat CPU 0 instructions: 30000001 cycles: 7501732 heartbeat IPC: 3.9995 cumulative IPC: 3.99908 (Simulation time: 0 hr 2 min 4 sec) 
Heartbeat CPU 0 instructions: 40000003 cycles: 10002276 heartbeat IPC: 3.99914 cumulative IPC: 3.9991 (Simulation time: 0 hr 2 min 47 sec) 
Heartbeat CPU 0 instructions: 50000003 cycles: 12502735 heartbeat IPC: 3.99927 cumulative IPC: 3.99913 (Simulation time: 0 hr 3 min 29 sec) 
Warmup finished CPU 0 instructions: 50000003 cycles: 12502736 cumulative IPC: 3.99913 (Simulation time: 0 hr 3 min 29 sec) 

Warmup complete CPU 0 instructions: 50000003 cycles: 12502736 (Simulation time: 0 hr 3 min 29 sec) 

Heartbeat CPU 0 instructions: 60000004 cycles: 40465765 heartbeat IPC: 0.357616 cumulative IPC: 0.357616 (Simulation time: 0 hr 4 min 54 sec) 
Heartbeat CPU 0 instructions: 70000004 cycles: 69246923 heartbeat IPC: 0.34745 cumulative IPC: 0.35246 (Simulation time: 0 hr 6 min 20 sec) 
Heartbeat CPU 0 instructions: 80000001 cycles: 99085791 heartbeat IPC: 0.335134 cumulative IPC: 0.346489 (Simulation time: 0 hr 7 min 48 sec) 
Heartbeat CPU 0 instructions: 90000000 cycles: 128455336 heartbeat IPC: 0.340489 cumulative IPC: 0.344969 (Simulation time: 0 hr 9 min 15 sec) 
Heartbeat CPU 0 instructions: 100000000 cycles: 157330439 heartbeat IPC: 0.34632 cumulative IPC: 0.345238 (Simulation time: 0 hr 10 min 41 sec) 
Heartbeat CPU 0 instructions: 110000000 cycles: 187072044 heartbeat IPC: 0.33623 cumulative IPC: 0.343704 (Simulation time: 0 hr 12 min 9 sec) 
Heartbeat CPU 0 instructions: 120000002 cycles: 215998325 heartbeat IPC: 0.345707 cumulative IPC: 0.343988 (Simulation time: 0 hr 13 min 35 sec) 
Heartbeat CPU 0 instructions: 130000000 cycles: 244046881 heartbeat IPC: 0.356525 cumulative IPC: 0.345507 (Simulation time: 0 hr 15 min 1 sec) 
Heartbeat CPU 0 instructions: 140000002 cycles: 273688130 heartbeat IPC: 0.337368 cumulative IPC: 0.344583 (Simulation time: 0 hr 16 min 27 sec) 
Heartbeat CPU 0 instructions: 150000003 cycles: 302300848 heartbeat IPC: 0.349495 cumulative IPC: 0.345068 (Simulation time: 0 hr 17 min 53 sec) 
Simulation finished CPU 0 instructions: 100000000 cycles: 289798113 cumulative IPC: 0.345068 (Simulation time: 0 hr 17 min 53 sec) 

Simulation complete CPU 0 instructions: 100000000 cycles: 289798113 (Simulation time: 0 hr 17 min 53 sec) 


ChampSim completed all CPUs

Saving instructions large page distribution to /home/bsc/bsc018186/scratch/itp_asplos25_AE/dump/smt_srv207_ap_srv727_ap_1024i.pdst...
Saving data large page distribution to /home/bsc/bsc018186/scratch/itp_asplos25_AE/dump/smt_srv207_ap_srv727_ap_1024i.pdst...
=== Simulation ===
CPU 0 runs /gpfs/projects/bsc18/MN4/bsc18/romol/ChampSim/traces/qualcomm_srv/smt_srv207_ap_srv727_ap_1024i.champsimtrace.xz

Region of Interest Statistics

CPU 0 cumulative IPC: 0.345068 instructions: 100000000 cycles: 289798113
CPU 0 Branch Prediction Accuracy: 74.5167% MPKI: 45.8478 Average ROB Occupancy at Mispredict: 10.4968
Branch type MPKI
BRANCH_DIRECT_JUMP: 1.43369
BRANCH_INDIRECT: 24.037
BRANCH_CONDITIONAL: 13.0153
BRANCH_DIRECT_CALL: 2.74011
BRANCH_INDIRECT_CALL: 1.02378
BRANCH_RETURN: 3.59799

Instructions large pages: 0
Instructions small pages: 11368
Large page distribution for instructions: 0%

Data large pages: 0
Data small pages: 9849
Large page distribution for data: 0%

cpu0_L1I TOTAL       ACCESS:   39396205  HIT:   30149357  MISS:    9246848  iACCESS:   39396205  iHIT:   30149357  iMISS:    9246848  dACCESS:          0  dHIT:          0  dMISS:          0  itACCESS:          0  itHIT:          0  itMISS:          0  dtACCESS:          0  dtHIT:          0  dtMISS:          0
cpu0_L1I LOAD         ACCESS:   11630981  HIT:    9121760  MISS:    2509221  iACCESS:   11630981  iHIT:    9121760  iMISS:    2509221  dACCESS:          0  dHIT:          0  dMISS:          0  itACCESS:          0  itHIT:          0  itMISS:          0  dtACCESS:          0  dtHIT:          0  dtMISS:          0
cpu0_L1I RFO          ACCESS:          0  HIT:          0  MISS:          0  iACCESS:          0  iHIT:          0  iMISS:          0  dACCESS:          0  dHIT:          0  dMISS:          0  itACCESS:          0  itHIT:          0  itMISS:          0  dtACCESS:          0  dtHIT:          0  dtMISS:          0
cpu0_L1I PREFETCH     ACCESS:   27765224  HIT:   21027597  MISS:    6737627  iACCESS:   27765224  iHIT:   21027597  iMISS:    6737627  dACCESS:          0  dHIT:          0  dMISS:          0  itACCESS:          0  itHIT:          0  itMISS:          0  dtACCESS:          0  dtHIT:          0  dtMISS:          0
cpu0_L1I WRITE        ACCESS:          0  HIT:          0  MISS:          0  iACCESS:          0  iHIT:          0  iMISS:          0  dACCESS:          0  dHIT:          0  dMISS:          0  itACCESS:          0  itHIT:          0  itMISS:          0  dtACCESS:          0  dtHIT:          0  dtMISS:          0
cpu0_L1I TRANSLATION  ACCESS:          0  HIT:          0  MISS:          0  iACCESS:          0  iHIT:          0  iMISS:          0  dACCESS:          0  dHIT:          0  dMISS:          0  itACCESS:          0  itHIT:          0  itMISS:          0  dtACCESS:          0  dtHIT:          0  dtMISS:          0
cpu0_L1I PREFETCH  REQUESTED:   30257389  ISSUED:   30255544  CROSSED:          0  USEFUL:    2212268  USELESS:     791312
cpu0_L1I AVERAGE iMISS LATENCY: 25.0221 cycles
cpu0_L1I AVERAGE dMISS LATENCY: 0 cycles
cpu0_L1I AVERAGE itMISS LATENCY: 0 cycles
cpu0_L1I AVERAGE dtMISS LATENCY: 0 cycles
cpu0_L1I PAGE CROSSINGS (TLB HIT):         0 
cpu0_L1I PAGE CROSSINGS (TLB MISS):         0 
cpu0_L1I AVERAGE MISS LATENCY: 25.0221 cycles
cpu0_ITLB TOTAL       ACCESS:   33243531  HIT:   30982744  MISS:    2260787  iACCESS:   33243531  iHIT:   30982744  iMISS:    2260787  dACCESS:          0  dHIT:          0  dMISS:          0  itACCESS:          0  itHIT:          0  itMISS:          0  dtACCESS:          0  dtHIT:          0  dtMISS:          0
cpu0_ITLB LOAD         ACCESS:   33243531  HIT:   30982744  MISS:    2260787  iACCESS:   33243531  iHIT:   30982744  iMISS:    2260787  dACCESS:          0  dHIT:          0  dMISS:          0  itACCESS:          0  itHIT:          0  itMISS:          0  dtACCESS:          0  dtHIT:          0  dtMISS:          0
cpu0_ITLB RFO          ACCESS:          0  HIT:          0  MISS:          0  iACCESS:          0  iHIT:          0  iMISS:          0  dACCESS:          0  dHIT:          0  dMISS:          0  itACCESS:          0  itHIT:          0  itMISS:          0  dtACCESS:          0  dtHIT:          0  dtMISS:          0
cpu0_ITLB PREFETCH     ACCESS:          0  HIT:          0  MISS:          0  iACCESS:          0  iHIT:          0  iMISS:          0  dACCESS:          0  dHIT:          0  dMISS:          0  itACCESS:          0  itHIT:          0  itMISS:          0  dtACCESS:          0  dtHIT:          0  dtMISS:          0
cpu0_ITLB WRITE        ACCESS:          0  HIT:          0  MISS:          0  iACCESS:          0  iHIT:          0  iMISS:          0  dACCESS:          0  dHIT:          0  dMISS:          0  itACCESS:          0  itHIT:          0  itMISS:          0  dtACCESS:          0  dtHIT:          0  dtMISS:          0
cpu0_ITLB TRANSLATION  ACCESS:          0  HIT:          0  MISS:          0  iACCESS:          0  iHIT:          0  iMISS:          0  dACCESS:          0  dHIT:          0  dMISS:          0  itACCESS:          0  itHIT:          0  itMISS:          0  dtACCESS:          0  dtHIT:          0  dtMISS:          0
cpu0_ITLB PREFETCH  REQUESTED:          0  ISSUED:          0  CROSSED:          0  USEFUL:     399437  USELESS:      82405
cpu0_ITLB AVERAGE iMISS LATENCY: 8.34006 cycles
cpu0_ITLB AVERAGE dMISS LATENCY: 0 cycles
cpu0_ITLB AVERAGE itMISS LATENCY: 0 cycles
cpu0_ITLB AVERAGE dtMISS LATENCY: 0 cycles
cpu0_ITLB PAGE CROSSINGS (TLB HIT):         0 
cpu0_ITLB PAGE CROSSINGS (TLB MISS):         0 
cpu0_ITLB AVERAGE MISS LATENCY: 8.34006 cycles
cpu0_DTLB TOTAL       ACCESS:   29252281  HIT:   25743268  MISS:    3509013  iACCESS:          0  iHIT:          0  iMISS:          0  dACCESS:   29252281  dHIT:   25743268  dMISS:    3509013  itACCESS:          0  itHIT:          0  itMISS:          0  dtACCESS:          0  dtHIT:          0  dtMISS:          0
cpu0_DTLB LOAD         ACCESS:   29252281  HIT:   25743268  MISS:    3509013  iACCESS:          0  iHIT:          0  iMISS:          0  dACCESS:   29252281  dHIT:   25743268  dMISS:    3509013  itACCESS:          0  itHIT:          0  itMISS:          0  dtACCESS:          0  dtHIT:          0  dtMISS:          0
cpu0_DTLB RFO          ACCESS:          0  HIT:          0  MISS:          0  iACCESS:          0  iHIT:          0  iMISS:          0  dACCESS:          0  dHIT:          0  dMISS:          0  itACCESS:          0  itHIT:          0  itMISS:          0  dtACCESS:          0  dtHIT:          0  dtMISS:          0
cpu0_DTLB PREFETCH     ACCESS:          0  HIT:          0  MISS:          0  iACCESS:          0  iHIT:          0  iMISS:          0  dACCESS:          0  dHIT:          0  dMISS:          0  itACCESS:          0  itHIT:          0  itMISS:          0  dtACCESS:          0  dtHIT:          0  dtMISS:          0
cpu0_DTLB WRITE        ACCESS:          0  HIT:          0  MISS:          0  iACCESS:          0  iHIT:          0  iMISS:          0  dACCESS:          0  dHIT:          0  dMISS:          0  itACCESS:          0  itHIT:          0  itMISS:          0  dtACCESS:          0  dtHIT:          0  dtMISS:          0
cpu0_DTLB TRANSLATION  ACCESS:          0  HIT:          0  MISS:          0  iACCESS:          0  iHIT:          0  iMISS:          0  dACCESS:          0  dHIT:          0  dMISS:          0  itACCESS:          0  itHIT:          0  itMISS:          0  dtACCESS:          0  dtHIT:          0  dtMISS:          0
cpu0_DTLB PREFETCH  REQUESTED:          0  ISSUED:          0  CROSSED:          0  USEFUL:          0  USELESS:          0
cpu0_DTLB AVERAGE iMISS LATENCY: 0 cycles
cpu0_DTLB AVERAGE dMISS LATENCY: 18.2679 cycles
cpu0_DTLB AVERAGE itMISS LATENCY: 0 cycles
cpu0_DTLB AVERAGE dtMISS LATENCY: 0 cycles
cpu0_DTLB PAGE CROSSINGS (TLB HIT):         0 
cpu0_DTLB PAGE CROSSINGS (TLB MISS):         0 
cpu0_DTLB AVERAGE MISS LATENCY: 18.2679 cycles
cpu0_STLB TOTAL       ACCESS:    2567335  HIT:    2174600  MISS:     392735  iACCESS:     481854  iHIT:     361758  iMISS:     120096  dACCESS:    2085481  dHIT:    1812842  dMISS:     272639  itACCESS:          0  itHIT:          0  itMISS:          0  dtACCESS:          0  dtHIT:          0  dtMISS:          0
cpu0_STLB LOAD         ACCESS:    2567335  HIT:    2174600  MISS:     392735  iACCESS:     481854  iHIT:     361758  iMISS:     120096  dACCESS:    2085481  dHIT:    1812842  dMISS:     272639  itACCESS:          0  itHIT:          0  itMISS:          0  dtACCESS:          0  dtHIT:          0  dtMISS:          0
cpu0_STLB RFO          ACCESS:          0  HIT:          0  MISS:          0  iACCESS:          0  iHIT:          0  iMISS:          0  dACCESS:          0  dHIT:          0  dMISS:          0  itACCESS:          0  itHIT:          0  itMISS:          0  dtACCESS:          0  dtHIT:          0  dtMISS:          0
cpu0_STLB PREFETCH     ACCESS:          0  HIT:          0  MISS:          0  iACCESS:          0  iHIT:          0  iMISS:          0  dACCESS:          0  dHIT:          0  dMISS:          0  itACCESS:          0  itHIT:          0  itMISS:          0  dtACCESS:          0  dtHIT:          0  dtMISS:          0
cpu0_STLB WRITE        ACCESS:          0  HIT:          0  MISS:          0  iACCESS:          0  iHIT:          0  iMISS:          0  dACCESS:          0  dHIT:          0  dMISS:          0  itACCESS:          0  itHIT:          0  itMISS:          0  dtACCESS:          0  dtHIT:          0  dtMISS:          0
cpu0_STLB TRANSLATION  ACCESS:          0  HIT:          0  MISS:          0  iACCESS:          0  iHIT:          0  iMISS:          0  dACCESS:          0  dHIT:          0  dMISS:          0  itACCESS:          0  itHIT:          0  itMISS:          0  dtACCESS:          0  dtHIT:          0  dtMISS:          0
cpu0_STLB PREFETCH  REQUESTED:          0  ISSUED:          0  CROSSED:          0  USEFUL:          0  USELESS:          0
cpu0_STLB AVERAGE iMISS LATENCY: 38.1972 cycles
cpu0_STLB AVERAGE dMISS LATENCY: 120.52 cycles
cpu0_STLB AVERAGE itMISS LATENCY: 0 cycles
cpu0_STLB AVERAGE dtMISS LATENCY: 0 cycles
cpu0_STLB PAGE CROSSINGS (TLB HIT):         0 
cpu0_STLB PAGE CROSSINGS (TLB MISS):         0 
cpu0_STLB AVERAGE MISS LATENCY: 158.717 cycles
cpu0_L1D TOTAL       ACCESS:   45673108  HIT:   39707927  MISS:    5965181  iACCESS:          0  iHIT:          0  iMISS:          0  dACCESS:   45105813  dHIT:   39674989  dMISS:    5430824  itACCESS:     134265  itHIT:      13967  itMISS:     120298  dtACCESS:     433030  dtHIT:      18971  dtMISS:     414059
cpu0_L1D LOAD         ACCESS:   20671991  HIT:   18227271  MISS:    2444720  iACCESS:          0  iHIT:          0  iMISS:          0  dACCESS:   20671991  dHIT:   18227271  dMISS:    2444720  itACCESS:          0  itHIT:          0  itMISS:          0  dtACCESS:          0  dtHIT:          0  dtMISS:          0
cpu0_L1D RFO          ACCESS:          0  HIT:          0  MISS:          0  iACCESS:          0  iHIT:          0  iMISS:          0  dACCESS:          0  dHIT:          0  dMISS:          0  itACCESS:          0  itHIT:          0  itMISS:          0  dtACCESS:          0  dtHIT:          0  dtMISS:          0
cpu0_L1D PREFETCH     ACCESS:   14313343  HIT:   11936919  MISS:    2376424  iACCESS:          0  iHIT:          0  iMISS:          0  dACCESS:   14313343  dHIT:   11936919  dMISS:    2376424  itACCESS:          0  itHIT:          0  itMISS:          0  dtACCESS:          0  dtHIT:          0  dtMISS:          0
cpu0_L1D WRITE        ACCESS:   10120479  HIT:    9510799  MISS:     609680  iACCESS:          0  iHIT:          0  iMISS:          0  dACCESS:   10120479  dHIT:    9510799  dMISS:     609680  itACCESS:          0  itHIT:          0  itMISS:          0  dtACCESS:          0  dtHIT:          0  dtMISS:          0
cpu0_L1D TRANSLATION  ACCESS:     567295  HIT:      32938  MISS:     534357  iACCESS:          0  iHIT:          0  iMISS:          0  dACCESS:          0  dHIT:          0  dMISS:          0  itACCESS:     134265  itHIT:      13967  itMISS:     120298  dtACCESS:     433030  dtHIT:      18971  dtMISS:     414059
cpu0_L1D PREFETCH  REQUESTED:   20671991  ISSUED:   18891178  CROSSED:          0  USEFUL:     381358  USELESS:     958578
cpu0_L1D AVERAGE iMISS LATENCY: 0 cycles
cpu0_L1D AVERAGE dMISS LATENCY: 51.8848 cycles
cpu0_L1D AVERAGE itMISS LATENCY: 2.32505 cycles
cpu0_L1D AVERAGE dtMISS LATENCY: 7.1693 cycles
cpu0_L1D PAGE CROSSINGS (TLB HIT):         0 
cpu0_L1D PAGE CROSSINGS (TLB MISS):         0 
cpu0_L1D AVERAGE MISS LATENCY: 61.3791 cycles
cpu0_L2C TOTAL       ACCESS:    8791723  HIT:    1477008  MISS:    7314715  iACCESS:    3819721  iHIT:     767116  iMISS:    3052605  dACCESS:    4465980  dHIT:     515225  dMISS:    3950755  itACCESS:     119955  itHIT:      39225  itMISS:      80730  dtACCESS:     386067  dtHIT:     155442  dtMISS:     230625
cpu0_L2C LOAD         ACCESS:    2105970  HIT:     191466  MISS:    1914504  iACCESS:     849227  iHIT:     106731  iMISS:     742496  dACCESS:    1256743  dHIT:      84735  dMISS:    1172008  itACCESS:          0  itHIT:          0  itMISS:          0  dtACCESS:          0  dtHIT:          0  dtMISS:          0
cpu0_L2C RFO          ACCESS:     225643  HIT:      27746  MISS:     197897  iACCESS:          0  iHIT:          0  iMISS:          0  dACCESS:     225643  dHIT:      27746  dMISS:     197897  itACCESS:          0  itHIT:          0  itMISS:          0  dtACCESS:          0  dtHIT:          0  dtMISS:          0
cpu0_L2C PREFETCH     ACCESS:    5603847  HIT:     964353  MISS:    4639494  iACCESS:    2970494  iHIT:     660385  iMISS:    2310109  dACCESS:    2633353  dHIT:     303968  dMISS:    2329385  itACCESS:          0  itHIT:          0  itMISS:          0  dtACCESS:          0  dtHIT:          0  dtMISS:          0
cpu0_L2C WRITE        ACCESS:     350241  HIT:      98776  MISS:     251465  iACCESS:          0  iHIT:          0  iMISS:          0  dACCESS:     350241  dHIT:      98776  dMISS:     251465  itACCESS:          0  itHIT:          0  itMISS:          0  dtACCESS:          0  dtHIT:          0  dtMISS:          0
cpu0_L2C TRANSLATION  ACCESS:     506022  HIT:     194667  MISS:     311355  iACCESS:          0  iHIT:          0  iMISS:          0  dACCESS:          0  dHIT:          0  dMISS:          0  itACCESS:     119955  itHIT:      39225  itMISS:      80730  dtACCESS:     386067  dtHIT:     155442  dtMISS:     230625
cpu0_L2C PREFETCH  REQUESTED:    1532666  ISSUED:    1532662  CROSSED:          0  USEFUL:     408877  USELESS:     505998
cpu0_L2C AVERAGE iMISS LATENCY: 27.1841 cycles
cpu0_L2C AVERAGE dMISS LATENCY: 51.8985 cycles
cpu0_L2C AVERAGE itMISS LATENCY: 1.73702 cycles
cpu0_L2C AVERAGE dtMISS LATENCY: 5.33778 cycles
cpu0_L2C PAGE CROSSINGS (TLB HIT):         0 
cpu0_L2C PAGE CROSSINGS (TLB MISS):         0 
cpu0_L2C AVERAGE MISS LATENCY: 86.1573 cycles
LLC TOTAL       ACCESS:    7127517  HIT:    4244843  MISS:    2882674  iACCESS:    2962743  iHIT:    2067964  iMISS:     894779  dACCESS:    3853419  dHIT:    2107488  dMISS:    1745931  itACCESS:      80730  itHIT:      18735  itMISS:      61995  dtACCESS:     230625  dtHIT:      50656  dtMISS:     179969
LLC LOAD         ACCESS:    1905994  HIT:    1199105  MISS:     706889  iACCESS:     741113  iHIT:     553160  iMISS:     187953  dACCESS:    1164881  dHIT:     645945  dMISS:     518936  itACCESS:          0  itHIT:          0  itMISS:          0  dtACCESS:          0  dtHIT:          0  dtMISS:          0
LLC RFO          ACCESS:     197819  HIT:     100364  MISS:      97455  iACCESS:          0  iHIT:          0  iMISS:          0  dACCESS:     197819  dHIT:     100364  dMISS:      97455  itACCESS:          0  itHIT:          0  itMISS:          0  dtACCESS:          0  dtHIT:          0  dtMISS:          0
LLC PREFETCH     ACCESS:    4424799  HIT:    2593804  MISS:    1830995  iACCESS:    2221630  iHIT:    1514804  iMISS:     706826  dACCESS:    2203169  dHIT:    1079000  dMISS:    1124169  itACCESS:          0  itHIT:          0  itMISS:          0  dtACCESS:          0  dtHIT:          0  dtMISS:          0
LLC WRITE        ACCESS:     287550  HIT:     282179  MISS:       5371  iACCESS:          0  iHIT:          0  iMISS:          0  dACCESS:     287550  dHIT:     282179  dMISS:       5371  itACCESS:          0  itHIT:          0  itMISS:          0  dtACCESS:          0  dtHIT:          0  dtMISS:          0
LLC TRANSLATION  ACCESS:     311355  HIT:      69391  MISS:     241964  iACCESS:          0  iHIT:          0  iMISS:          0  dACCESS:          0  dHIT:          0  dMISS:          0  itACCESS:      80730  itHIT:      18735  itMISS:      61995  dtACCESS:     230625  dtHIT:      50656  dtMISS:     179969
LLC PREFETCH  REQUESTED:          0  ISSUED:          0  CROSSED:          0  USEFUL:          0  USELESS:          0
LLC AVERAGE iMISS LATENCY: 49.0109 cycles
LLC AVERAGE dMISS LATENCY: 108.427 cycles
LLC AVERAGE itMISS LATENCY: 3.85588 cycles
LLC AVERAGE dtMISS LATENCY: 11.9682 cycles
LLC PAGE CROSSINGS (TLB HIT):         0 
LLC PAGE CROSSINGS (TLB MISS):         0 
LLC AVERAGE MISS LATENCY: 173.261 cycles

PageTableWalker TOTAL       ACCESS:     193839  
PageTableWalker AVERAGE LATENCY: 5.95494 cycles
PageTableWalker TOTAL LATENCY: 1154298 cycles

DRAM Statistics
Channel 0
 RQ ROW_BUFFER_HIT:     621342
  ROW_BUFFER_MISS:    2237417
 AVG DBUS CONGESTED CYCLE:    3.65635
 WQ ROW_BUFFER_HIT:      69929
  ROW_BUFFER_MISS:      68205  FULL:          0

