last_page:0x200000000000000
VMEM_RES_CAP:0x100000
PAGE_SIZE:4096
LOG2_PAGE_SIZE:12
LOG2_PAGE_TABLE_SIZE:9
page_table_levels:5
WARNING: physical memory size is smaller than virtual memory size
FDiP enabled with aggresivity 16

*** ChampSim Multicore Out-of-Order Simulator ***

Warmup Instructions: 50000000
Simulation Instructions: 100000000
Number of CPUs: 1
Small page size: 4096
Large page size: 2097152

CPU 0 Bimodal branch predictor
Basic BTB sets: 1024 ways: 8 indirect buffer size: 4096 RAS size: 64
Instruction page size distrubution: 0
Loading instruction page size distribution from /home/bsc/bsc018186/scratch/itp_asplos25_AE/dump/smt_srv207_ap_srv495_ap_1024i.pdst
Data page size distrubution: 0
Loading data page size distribution from /home/bsc/bsc018186/scratch/itp_asplos25_AE/dump/smt_srv207_ap_srv495_ap_1024i.pdst
cpu0_L2C IP-based stride prefetcher
cpu0_L1D next line prefetcher
cpu0_L1I next line prefetcher
Off-chip DRAM Size: 4 GiB Channels: 1 Width: 64-bit Data Rate: 3200 MT/s
Heartbeat CPU 0 instructions: 10000002 cycles: 2500884 heartbeat IPC: 3.99859 cumulative IPC: 3.99859 (Simulation time: 0 hr 0 min 41 sec) 
Heartbeat CPU 0 instructions: 20000000 cycles: 5001319 heartbeat IPC: 3.99931 cumulative IPC: 3.99895 (Simulation time: 0 hr 1 min 28 sec) 
Heartbeat CPU 0 instructions: 30000000 cycles: 7501758 heartbeat IPC: 3.9993 cumulative IPC: 3.99907 (Simulation time: 0 hr 2 min 16 sec) 
Heartbeat CPU 0 instructions: 40000003 cycles: 10002184 heartbeat IPC: 3.99932 cumulative IPC: 3.99913 (Simulation time: 0 hr 3 min 5 sec) 
Heartbeat CPU 0 instructions: 50000000 cycles: 12502477 heartbeat IPC: 3.99954 cumulative IPC: 3.99921 (Simulation time: 0 hr 3 min 54 sec) 
Warmup finished CPU 0 instructions: 50000000 cycles: 12502478 cumulative IPC: 3.99921 (Simulation time: 0 hr 3 min 54 sec) 

Warmup complete CPU 0 instructions: 50000000 cycles: 12502478 (Simulation time: 0 hr 3 min 54 sec) 

Heartbeat CPU 0 instructions: 60000001 cycles: 43597041 heartbeat IPC: 0.3216 cumulative IPC: 0.3216 (Simulation time: 0 hr 5 min 37 sec) 
Heartbeat CPU 0 instructions: 70000003 cycles: 75108173 heartbeat IPC: 0.317349 cumulative IPC: 0.31946 (Simulation time: 0 hr 7 min 20 sec) 
Heartbeat CPU 0 instructions: 80000000 cycles: 107945036 heartbeat IPC: 0.304536 cumulative IPC: 0.314326 (Simulation time: 0 hr 9 min 1 sec) 
Heartbeat CPU 0 instructions: 90000000 cycles: 140255926 heartbeat IPC: 0.309494 cumulative IPC: 0.313104 (Simulation time: 0 hr 10 min 41 sec) 
Heartbeat CPU 0 instructions: 100000003 cycles: 170601711 heartbeat IPC: 0.329536 cumulative IPC: 0.316258 (Simulation time: 0 hr 12 min 21 sec) 
Heartbeat CPU 0 instructions: 110000000 cycles: 202535842 heartbeat IPC: 0.313145 cumulative IPC: 0.315735 (Simulation time: 0 hr 14 min 3 sec) 
Heartbeat CPU 0 instructions: 120000000 cycles: 233653027 heartbeat IPC: 0.321366 cumulative IPC: 0.316527 (Simulation time: 0 hr 15 min 44 sec) 
Heartbeat CPU 0 instructions: 130000003 cycles: 264101940 heartbeat IPC: 0.32842 cumulative IPC: 0.317966 (Simulation time: 0 hr 17 min 24 sec) 
Heartbeat CPU 0 instructions: 140000002 cycles: 295841940 heartbeat IPC: 0.31506 cumulative IPC: 0.317641 (Simulation time: 0 hr 19 min 8 sec) 
Heartbeat CPU 0 instructions: 150000000 cycles: 326697639 heartbeat IPC: 0.32409 cumulative IPC: 0.318274 (Simulation time: 0 hr 20 min 48 sec) 
Simulation finished CPU 0 instructions: 100000000 cycles: 314195162 cumulative IPC: 0.318274 (Simulation time: 0 hr 20 min 48 sec) 

Simulation complete CPU 0 instructions: 100000000 cycles: 314195162 (Simulation time: 0 hr 20 min 48 sec) 


ChampSim completed all CPUs

Saving instructions large page distribution to /home/bsc/bsc018186/scratch/itp_asplos25_AE/dump/smt_srv207_ap_srv495_ap_1024i.pdst...
Saving data large page distribution to /home/bsc/bsc018186/scratch/itp_asplos25_AE/dump/smt_srv207_ap_srv495_ap_1024i.pdst...
=== Simulation ===
CPU 0 runs /gpfs/projects/bsc18/MN4/bsc18/romol/ChampSim/traces/qualcomm_srv/smt_srv207_ap_srv495_ap_1024i.champsimtrace.xz

Region of Interest Statistics

CPU 0 cumulative IPC: 0.318274 instructions: 100000000 cycles: 314195162
CPU 0 Branch Prediction Accuracy: 74.477% MPKI: 45.9621 Average ROB Occupancy at Mispredict: 10.7965
Branch type MPKI
BRANCH_DIRECT_JUMP: 1.44248
BRANCH_INDIRECT: 24.0666
BRANCH_CONDITIONAL: 13.0858
BRANCH_DIRECT_CALL: 2.7496
BRANCH_INDIRECT_CALL: 1.0247
BRANCH_RETURN: 3.59304

Instructions large pages: 0
Instructions small pages: 11428
Large page distribution for instructions: 0%

Data large pages: 0
Data small pages: 9945
Large page distribution for data: 0%

cpu0_L1I TOTAL       ACCESS:   39071539  HIT:   30318872  MISS:    8752667  iACCESS:   39071539  iHIT:   30318872  iMISS:    8752667  dACCESS:          0  dHIT:          0  dMISS:          0  itACCESS:          0  itHIT:          0  itMISS:          0  dtACCESS:          0  dtHIT:          0  dtMISS:          0
cpu0_L1I LOAD         ACCESS:   11553833  HIT:    9169995  MISS:    2383838  iACCESS:   11553833  iHIT:    9169995  iMISS:    2383838  dACCESS:          0  dHIT:          0  dMISS:          0  itACCESS:          0  itHIT:          0  itMISS:          0  dtACCESS:          0  dtHIT:          0  dtMISS:          0
cpu0_L1I RFO          ACCESS:          0  HIT:          0  MISS:          0  iACCESS:          0  iHIT:          0  iMISS:          0  dACCESS:          0  dHIT:          0  dMISS:          0  itACCESS:          0  itHIT:          0  itMISS:          0  dtACCESS:          0  dtHIT:          0  dtMISS:          0
cpu0_L1I PREFETCH     ACCESS:   27517706  HIT:   21148877  MISS:    6368829  iACCESS:   27517706  iHIT:   21148877  iMISS:    6368829  dACCESS:          0  dHIT:          0  dMISS:          0  itACCESS:          0  itHIT:          0  itMISS:          0  dtACCESS:          0  dtHIT:          0  dtMISS:          0
cpu0_L1I WRITE        ACCESS:          0  HIT:          0  MISS:          0  iACCESS:          0  iHIT:          0  iMISS:          0  dACCESS:          0  dHIT:          0  dMISS:          0  itACCESS:          0  itHIT:          0  itMISS:          0  dtACCESS:          0  dtHIT:          0  dtMISS:          0
cpu0_L1I TRANSLATION  ACCESS:          0  HIT:          0  MISS:          0  iACCESS:          0  iHIT:          0  iMISS:          0  dACCESS:          0  dHIT:          0  dMISS:          0  itACCESS:          0  itHIT:          0  itMISS:          0  dtACCESS:          0  dtHIT:          0  dtMISS:          0
cpu0_L1I PREFETCH  REQUESTED:   30210812  ISSUED:   30210805  CROSSED:          0  USEFUL:    2215109  USELESS:     795679
cpu0_L1I AVERAGE iMISS LATENCY: 25.4304 cycles
cpu0_L1I AVERAGE dMISS LATENCY: 0 cycles
cpu0_L1I AVERAGE itMISS LATENCY: 0 cycles
cpu0_L1I AVERAGE dtMISS LATENCY: 0 cycles
cpu0_L1I PAGE CROSSINGS (TLB HIT):         0 
cpu0_L1I PAGE CROSSINGS (TLB MISS):         0 
cpu0_L1I AVERAGE MISS LATENCY: 25.4304 cycles
cpu0_ITLB TOTAL       ACCESS:   33204125  HIT:   30925410  MISS:    2278715  iACCESS:   33204125  iHIT:   30925410  iMISS:    2278715  dACCESS:          0  dHIT:          0  dMISS:          0  itACCESS:          0  itHIT:          0  itMISS:          0  dtACCESS:          0  dtHIT:          0  dtMISS:          0
cpu0_ITLB LOAD         ACCESS:   33204125  HIT:   30925410  MISS:    2278715  iACCESS:   33204125  iHIT:   30925410  iMISS:    2278715  dACCESS:          0  dHIT:          0  dMISS:          0  itACCESS:          0  itHIT:          0  itMISS:          0  dtACCESS:          0  dtHIT:          0  dtMISS:          0
cpu0_ITLB RFO          ACCESS:          0  HIT:          0  MISS:          0  iACCESS:          0  iHIT:          0  iMISS:          0  dACCESS:          0  dHIT:          0  dMISS:          0  itACCESS:          0  itHIT:          0  itMISS:          0  dtACCESS:          0  dtHIT:          0  dtMISS:          0
cpu0_ITLB PREFETCH     ACCESS:          0  HIT:          0  MISS:          0  iACCESS:          0  iHIT:          0  iMISS:          0  dACCESS:          0  dHIT:          0  dMISS:          0  itACCESS:          0  itHIT:          0  itMISS:          0  dtACCESS:          0  dtHIT:          0  dtMISS:          0
cpu0_ITLB WRITE        ACCESS:          0  HIT:          0  MISS:          0  iACCESS:          0  iHIT:          0  iMISS:          0  dACCESS:          0  dHIT:          0  dMISS:          0  itACCESS:          0  itHIT:          0  itMISS:          0  dtACCESS:          0  dtHIT:          0  dtMISS:          0
cpu0_ITLB TRANSLATION  ACCESS:          0  HIT:          0  MISS:          0  iACCESS:          0  iHIT:          0  iMISS:          0  dACCESS:          0  dHIT:          0  dMISS:          0  itACCESS:          0  itHIT:          0  itMISS:          0  dtACCESS:          0  dtHIT:          0  dtMISS:          0
cpu0_ITLB PREFETCH  REQUESTED:          0  ISSUED:          0  CROSSED:          0  USEFUL:     400510  USELESS:      82856
cpu0_ITLB AVERAGE iMISS LATENCY: 10.7919 cycles
cpu0_ITLB AVERAGE dMISS LATENCY: 0 cycles
cpu0_ITLB AVERAGE itMISS LATENCY: 0 cycles
cpu0_ITLB AVERAGE dtMISS LATENCY: 0 cycles
cpu0_ITLB PAGE CROSSINGS (TLB HIT):         0 
cpu0_ITLB PAGE CROSSINGS (TLB MISS):         0 
cpu0_ITLB AVERAGE MISS LATENCY: 10.7919 cycles
cpu0_DTLB TOTAL       ACCESS:   29212810  HIT:   25645268  MISS:    3567542  iACCESS:          0  iHIT:          0  iMISS:          0  dACCESS:   29212810  dHIT:   25645268  dMISS:    3567542  itACCESS:          0  itHIT:          0  itMISS:          0  dtACCESS:          0  dtHIT:          0  dtMISS:          0
cpu0_DTLB LOAD         ACCESS:   29212810  HIT:   25645268  MISS:    3567542  iACCESS:          0  iHIT:          0  iMISS:          0  dACCESS:   29212810  dHIT:   25645268  dMISS:    3567542  itACCESS:          0  itHIT:          0  itMISS:          0  dtACCESS:          0  dtHIT:          0  dtMISS:          0
cpu0_DTLB RFO          ACCESS:          0  HIT:          0  MISS:          0  iACCESS:          0  iHIT:          0  iMISS:          0  dACCESS:          0  dHIT:          0  dMISS:          0  itACCESS:          0  itHIT:          0  itMISS:          0  dtACCESS:          0  dtHIT:          0  dtMISS:          0
cpu0_DTLB PREFETCH     ACCESS:          0  HIT:          0  MISS:          0  iACCESS:          0  iHIT:          0  iMISS:          0  dACCESS:          0  dHIT:          0  dMISS:          0  itACCESS:          0  itHIT:          0  itMISS:          0  dtACCESS:          0  dtHIT:          0  dtMISS:          0
cpu0_DTLB WRITE        ACCESS:          0  HIT:          0  MISS:          0  iACCESS:          0  iHIT:          0  iMISS:          0  dACCESS:          0  dHIT:          0  dMISS:          0  itACCESS:          0  itHIT:          0  itMISS:          0  dtACCESS:          0  dtHIT:          0  dtMISS:          0
cpu0_DTLB TRANSLATION  ACCESS:          0  HIT:          0  MISS:          0  iACCESS:          0  iHIT:          0  iMISS:          0  dACCESS:          0  dHIT:          0  dMISS:          0  itACCESS:          0  itHIT:          0  itMISS:          0  dtACCESS:          0  dtHIT:          0  dtMISS:          0
cpu0_DTLB PREFETCH  REQUESTED:          0  ISSUED:          0  CROSSED:          0  USEFUL:          0  USELESS:          0
cpu0_DTLB AVERAGE iMISS LATENCY: 0 cycles
cpu0_DTLB AVERAGE dMISS LATENCY: 26.3166 cycles
cpu0_DTLB AVERAGE itMISS LATENCY: 0 cycles
cpu0_DTLB AVERAGE dtMISS LATENCY: 0 cycles
cpu0_DTLB PAGE CROSSINGS (TLB HIT):         0 
cpu0_DTLB PAGE CROSSINGS (TLB MISS):         0 
cpu0_DTLB AVERAGE MISS LATENCY: 26.3166 cycles
cpu0_STLB TOTAL       ACCESS:    2583485  HIT:    2189221  MISS:     394264  iACCESS:     483362  iHIT:     362754  iMISS:     120608  dACCESS:    2100123  dHIT:    1826467  dMISS:     273656  itACCESS:          0  itHIT:          0  itMISS:          0  dtACCESS:          0  dtHIT:          0  dtMISS:          0
cpu0_STLB LOAD         ACCESS:    2583485  HIT:    2189221  MISS:     394264  iACCESS:     483362  iHIT:     362754  iMISS:     120608  dACCESS:    2100123  dHIT:    1826467  dMISS:     273656  itACCESS:          0  itHIT:          0  itMISS:          0  dtACCESS:          0  dtHIT:          0  dtMISS:          0
cpu0_STLB RFO          ACCESS:          0  HIT:          0  MISS:          0  iACCESS:          0  iHIT:          0  iMISS:          0  dACCESS:          0  dHIT:          0  dMISS:          0  itACCESS:          0  itHIT:          0  itMISS:          0  dtACCESS:          0  dtHIT:          0  dtMISS:          0
cpu0_STLB PREFETCH     ACCESS:          0  HIT:          0  MISS:          0  iACCESS:          0  iHIT:          0  iMISS:          0  dACCESS:          0  dHIT:          0  dMISS:          0  itACCESS:          0  itHIT:          0  itMISS:          0  dtACCESS:          0  dtHIT:          0  dtMISS:          0
cpu0_STLB WRITE        ACCESS:          0  HIT:          0  MISS:          0  iACCESS:          0  iHIT:          0  iMISS:          0  dACCESS:          0  dHIT:          0  dMISS:          0  itACCESS:          0  itHIT:          0  itMISS:          0  dtACCESS:          0  dtHIT:          0  dtMISS:          0
cpu0_STLB TRANSLATION  ACCESS:          0  HIT:          0  MISS:          0  iACCESS:          0  iHIT:          0  iMISS:          0  dACCESS:          0  dHIT:          0  dMISS:          0  itACCESS:          0  itHIT:          0  itMISS:          0  dtACCESS:          0  dtHIT:          0  dtMISS:          0
cpu0_STLB PREFETCH  REQUESTED:          0  ISSUED:          0  CROSSED:          0  USEFUL:          0  USELESS:          0
cpu0_STLB AVERAGE iMISS LATENCY: 52.5572 cycles
cpu0_STLB AVERAGE dMISS LATENCY: 195.232 cycles
cpu0_STLB AVERAGE itMISS LATENCY: 0 cycles
cpu0_STLB AVERAGE dtMISS LATENCY: 0 cycles
cpu0_STLB PAGE CROSSINGS (TLB HIT):         0 
cpu0_STLB PAGE CROSSINGS (TLB MISS):         0 
cpu0_STLB AVERAGE MISS LATENCY: 247.789 cycles
cpu0_L1D TOTAL       ACCESS:   45738954  HIT:   39675454  MISS:    6063500  iACCESS:          0  iHIT:          0  iMISS:          0  dACCESS:   45168190  dHIT:   39642065  dMISS:    5526125  itACCESS:     134978  itHIT:      14274  itMISS:     120704  dtACCESS:     435786  dtHIT:      19115  dtMISS:     416671
cpu0_L1D LOAD         ACCESS:   20686974  HIT:   18187819  MISS:    2499155  iACCESS:          0  iHIT:          0  iMISS:          0  dACCESS:   20686974  dHIT:   18187819  dMISS:    2499155  itACCESS:          0  itHIT:          0  itMISS:          0  dtACCESS:          0  dtHIT:          0  dtMISS:          0
cpu0_L1D RFO          ACCESS:          0  HIT:          0  MISS:          0  iACCESS:          0  iHIT:          0  iMISS:          0  dACCESS:          0  dHIT:          0  dMISS:          0  itACCESS:          0  itHIT:          0  itMISS:          0  dtACCESS:          0  dtHIT:          0  dtMISS:          0
cpu0_L1D PREFETCH     ACCESS:   14360590  HIT:   11927482  MISS:    2433108  iACCESS:          0  iHIT:          0  iMISS:          0  dACCESS:   14360590  dHIT:   11927482  dMISS:    2433108  itACCESS:          0  itHIT:          0  itMISS:          0  dtACCESS:          0  dtHIT:          0  dtMISS:          0
cpu0_L1D WRITE        ACCESS:   10120626  HIT:    9526764  MISS:     593862  iACCESS:          0  iHIT:          0  iMISS:          0  dACCESS:   10120626  dHIT:    9526764  dMISS:     593862  itACCESS:          0  itHIT:          0  itMISS:          0  dtACCESS:          0  dtHIT:          0  dtMISS:          0
cpu0_L1D TRANSLATION  ACCESS:     570764  HIT:      33389  MISS:     537375  iACCESS:          0  iHIT:          0  iMISS:          0  dACCESS:          0  dHIT:          0  dMISS:          0  itACCESS:     134978  itHIT:      14274  itMISS:     120704  dtACCESS:     435786  dtHIT:      19115  dtMISS:     416671
cpu0_L1D PREFETCH  REQUESTED:   20686974  ISSUED:   18875920  CROSSED:          0  USEFUL:     380032  USELESS:     960453
cpu0_L1D AVERAGE iMISS LATENCY: 0 cycles
cpu0_L1D AVERAGE dMISS LATENCY: 49.9977 cycles
cpu0_L1D AVERAGE itMISS LATENCY: 3.23218 cycles
cpu0_L1D AVERAGE dtMISS LATENCY: 11.9225 cycles
cpu0_L1D PAGE CROSSINGS (TLB HIT):         0 
cpu0_L1D PAGE CROSSINGS (TLB MISS):         0 
cpu0_L1D AVERAGE MISS LATENCY: 65.1524 cycles
cpu0_L2C TOTAL       ACCESS:    8811294  HIT:    4244332  MISS:    4566962  iACCESS:    3834205  iHIT:    2311601  iMISS:    1522604  dACCESS:    4469376  dHIT:    1872171  dMISS:    2597205  itACCESS:     120295  itHIT:      21406  itMISS:      98889  dtACCESS:     387418  dtHIT:      39154  dtMISS:     348264
cpu0_L2C LOAD         ACCESS:    2115864  HIT:    1023909  MISS:    1091955  iACCESS:     857603  iHIT:     540414  iMISS:     317189  dACCESS:    1258261  dHIT:     483495  dMISS:     774766  itACCESS:          0  itHIT:          0  itMISS:          0  dtACCESS:          0  dtHIT:          0  dtMISS:          0
cpu0_L2C RFO          ACCESS:     225216  HIT:      89659  MISS:     135557  iACCESS:          0  iHIT:          0  iMISS:          0  dACCESS:     225216  dHIT:      89659  dMISS:     135557  itACCESS:          0  itHIT:          0  itMISS:          0  dtACCESS:          0  dtHIT:          0  dtMISS:          0
cpu0_L2C PREFETCH     ACCESS:    5612356  HIT:    2724092  MISS:    2888264  iACCESS:    2976602  iHIT:    1771187  iMISS:    1205415  dACCESS:    2635754  dHIT:     952905  dMISS:    1682849  itACCESS:          0  itHIT:          0  itMISS:          0  dtACCESS:          0  dtHIT:          0  dtMISS:          0
cpu0_L2C WRITE        ACCESS:     350145  HIT:     346112  MISS:       4033  iACCESS:          0  iHIT:          0  iMISS:          0  dACCESS:     350145  dHIT:     346112  dMISS:       4033  itACCESS:          0  itHIT:          0  itMISS:          0  dtACCESS:          0  dtHIT:          0  dtMISS:          0
cpu0_L2C TRANSLATION  ACCESS:     507713  HIT:      60560  MISS:     447153  iACCESS:          0  iHIT:          0  iMISS:          0  dACCESS:          0  dHIT:          0  dMISS:          0  itACCESS:     120295  itHIT:      21406  itMISS:      98889  dtACCESS:     387418  dtHIT:      39154  dtMISS:     348264
cpu0_L2C PREFETCH  REQUESTED:    1532495  ISSUED:    1532495  CROSSED:          0  USEFUL:     352338  USELESS:     331837
cpu0_L2C AVERAGE iMISS LATENCY: 41.7348 cycles
cpu0_L2C AVERAGE dMISS LATENCY: 82.1811 cycles
cpu0_L2C AVERAGE itMISS LATENCY: 4.03182 cycles
cpu0_L2C AVERAGE dtMISS LATENCY: 14.9848 cycles
cpu0_L2C PAGE CROSSINGS (TLB HIT):         0 
cpu0_L2C PAGE CROSSINGS (TLB MISS):         0 
cpu0_L2C AVERAGE MISS LATENCY: 142.933 cycles
LLC TOTAL       ACCESS:    4554770  HIT:    1275138  MISS:    3279632  iACCESS:    1433018  iHIT:     413684  iMISS:    1019334  dACCESS:    2674599  dHIT:     822582  dMISS:    1852017  itACCESS:      98889  itHIT:       6883  itMISS:      92006  dtACCESS:     348264  dtHIT:      31989  dtMISS:     316275
LLC LOAD         ACCESS:    1083777  HIT:     320310  MISS:     763467  iACCESS:     315957  iHIT:      98879  iMISS:     217078  dACCESS:     767820  dHIT:     221431  dMISS:     546389  itACCESS:          0  itHIT:          0  itMISS:          0  dtACCESS:          0  dtHIT:          0  dtMISS:          0
LLC RFO          ACCESS:     135546  HIT:      39150  MISS:      96396  iACCESS:          0  iHIT:          0  iMISS:          0  dACCESS:     135546  dHIT:      39150  dMISS:      96396  itACCESS:          0  itHIT:          0  itMISS:          0  dtACCESS:          0  dtHIT:          0  dtMISS:          0
LLC PREFETCH     ACCESS:    2676789  HIT:     676417  MISS:    2000372  iACCESS:    1117061  iHIT:     314805  iMISS:     802256  dACCESS:    1559728  dHIT:     361612  dMISS:    1198116  itACCESS:          0  itHIT:          0  itMISS:          0  dtACCESS:          0  dtHIT:          0  dtMISS:          0
LLC WRITE        ACCESS:     211505  HIT:     200389  MISS:      11116  iACCESS:          0  iHIT:          0  iMISS:          0  dACCESS:     211505  dHIT:     200389  dMISS:      11116  itACCESS:          0  itHIT:          0  itMISS:          0  dtACCESS:          0  dtHIT:          0  dtMISS:          0
LLC TRANSLATION  ACCESS:     447153  HIT:      38872  MISS:     408281  iACCESS:          0  iHIT:          0  iMISS:          0  dACCESS:          0  dHIT:          0  dMISS:          0  itACCESS:      98889  itHIT:       6883  itMISS:      92006  dtACCESS:     348264  dtHIT:      31989  dtMISS:     316275
LLC PREFETCH  REQUESTED:          0  ISSUED:          0  CROSSED:          0  USEFUL:          0  USELESS:          0
LLC AVERAGE iMISS LATENCY: 49.495 cycles
LLC AVERAGE dMISS LATENCY: 100.588 cycles
LLC AVERAGE itMISS LATENCY: 5.01629 cycles
LLC AVERAGE dtMISS LATENCY: 18.766 cycles
LLC PAGE CROSSINGS (TLB HIT):         0 
LLC PAGE CROSSINGS (TLB MISS):         0 
LLC AVERAGE MISS LATENCY: 173.866 cycles

PageTableWalker TOTAL       ACCESS:     193977  
PageTableWalker AVERAGE LATENCY: 6.51756 cycles
PageTableWalker TOTAL LATENCY: 1264256 cycles

DRAM Statistics
Channel 0
 RQ ROW_BUFFER_HIT:     673626
  ROW_BUFFER_MISS:    2574569
 AVG DBUS CONGESTED CYCLE:    3.65254
 WQ ROW_BUFFER_HIT:      68253
  ROW_BUFFER_MISS:      58101  FULL:          0

