last_page:0x200000000000000
VMEM_RES_CAP:0x100000
PAGE_SIZE:4096
LOG2_PAGE_SIZE:12
LOG2_PAGE_TABLE_SIZE:9
page_table_levels:5
WARNING: physical memory size is smaller than virtual memory size
FDiP enabled with aggresivity 16

*** ChampSim Multicore Out-of-Order Simulator ***

Warmup Instructions: 50000000
Simulation Instructions: 100000000
Number of CPUs: 1
Small page size: 4096
Large page size: 2097152

CPU 0 Bimodal branch predictor
Basic BTB sets: 1024 ways: 8 indirect buffer size: 4096 RAS size: 64
Instruction page size distrubution: 0
Loading instruction page size distribution from /home/bsc/bsc018186/scratch/itp_asplos25_AE/dump/smt_srv207_ap_srv727_ap_1024i.pdst
Data page size distrubution: 0
Loading data page size distribution from /home/bsc/bsc018186/scratch/itp_asplos25_AE/dump/smt_srv207_ap_srv727_ap_1024i.pdst
cpu0_L2C IP-based stride prefetcher
cpu0_L1D next line prefetcher
cpu0_STLB using iTP with max lru@8
cpu0_STLB using iTP with instr@0 and data@2
Init sat counter with 3 bits (max:50).
cpu0_L1I next line prefetcher
Off-chip DRAM Size: 4 GiB Channels: 1 Width: 64-bit Data Rate: 3200 MT/s
Heartbeat CPU 0 instructions: 10000003 cycles: 2500829 heartbeat IPC: 3.99868 cumulative IPC: 3.99868 (Simulation time: 0 hr 0 min 35 sec) 
Heartbeat CPU 0 instructions: 20000000 cycles: 5001023 heartbeat IPC: 3.99969 cumulative IPC: 3.99919 (Simulation time: 0 hr 1 min 13 sec) 
Heartbeat CPU 0 instructions: 30000001 cycles: 7501120 heartbeat IPC: 3.99985 cumulative IPC: 3.99941 (Simulation time: 0 hr 1 min 51 sec) 
Heartbeat CPU 0 instructions: 40000003 cycles: 10001375 heartbeat IPC: 3.9996 cumulative IPC: 3.99946 (Simulation time: 0 hr 2 min 29 sec) 
Heartbeat CPU 0 instructions: 50000001 cycles: 12501530 heartbeat IPC: 3.99976 cumulative IPC: 3.99952 (Simulation time: 0 hr 3 min 8 sec) 
Warmup finished CPU 0 instructions: 50000001 cycles: 12501531 cumulative IPC: 3.99952 (Simulation time: 0 hr 3 min 8 sec) 

Warmup complete CPU 0 instructions: 50000001 cycles: 12501531 (Simulation time: 0 hr 3 min 8 sec) 

Heartbeat CPU 0 instructions: 60000004 cycles: 42602056 heartbeat IPC: 0.332221 cumulative IPC: 0.332221 (Simulation time: 0 hr 4 min 28 sec) 
Heartbeat CPU 0 instructions: 70000004 cycles: 73600373 heartbeat IPC: 0.322599 cumulative IPC: 0.327339 (Simulation time: 0 hr 5 min 50 sec) 
Heartbeat CPU 0 instructions: 80000001 cycles: 105794251 heartbeat IPC: 0.310618 cumulative IPC: 0.321569 (Simulation time: 0 hr 7 min 13 sec) 
Heartbeat CPU 0 instructions: 90000000 cycles: 137394736 heartbeat IPC: 0.316451 cumulative IPC: 0.320274 (Simulation time: 0 hr 8 min 36 sec) 
Heartbeat CPU 0 instructions: 100000000 cycles: 168430399 heartbeat IPC: 0.32221 cumulative IPC: 0.32066 (Simulation time: 0 hr 9 min 59 sec) 
Heartbeat CPU 0 instructions: 110000000 cycles: 200410164 heartbeat IPC: 0.312698 cumulative IPC: 0.319305 (Simulation time: 0 hr 11 min 23 sec) 
Heartbeat CPU 0 instructions: 120000002 cycles: 231669700 heartbeat IPC: 0.319903 cumulative IPC: 0.31939 (Simulation time: 0 hr 12 min 45 sec) 
Heartbeat CPU 0 instructions: 130000000 cycles: 261942818 heartbeat IPC: 0.330327 cumulative IPC: 0.320717 (Simulation time: 0 hr 14 min 7 sec) 
Heartbeat CPU 0 instructions: 140000002 cycles: 294088370 heartbeat IPC: 0.311086 cumulative IPC: 0.319618 (Simulation time: 0 hr 15 min 30 sec) 
Heartbeat CPU 0 instructions: 150000000 cycles: 325109384 heartbeat IPC: 0.322363 cumulative IPC: 0.31989 (Simulation time: 0 hr 16 min 53 sec) 
Simulation finished CPU 0 instructions: 100000004 cycles: 312607855 cumulative IPC: 0.31989 (Simulation time: 0 hr 16 min 53 sec) 

Simulation complete CPU 0 instructions: 100000004 cycles: 312607855 (Simulation time: 0 hr 16 min 53 sec) 


ChampSim completed all CPUs

Saving instructions large page distribution to /home/bsc/bsc018186/scratch/itp_asplos25_AE/dump/smt_srv207_ap_srv727_ap_1024i.pdst...
Saving data large page distribution to /home/bsc/bsc018186/scratch/itp_asplos25_AE/dump/smt_srv207_ap_srv727_ap_1024i.pdst...
=== Simulation ===
CPU 0 runs /gpfs/projects/bsc18/MN4/bsc18/romol/ChampSim/traces/qualcomm_srv/smt_srv207_ap_srv727_ap_1024i.champsimtrace.xz

Region of Interest Statistics

CPU 0 cumulative IPC: 0.31989 instructions: 100000004 cycles: 312607855
CPU 0 Branch Prediction Accuracy: 74.5167% MPKI: 45.8478 Average ROB Occupancy at Mispredict: 10.9971
Branch type MPKI
BRANCH_DIRECT_JUMP: 1.43368
BRANCH_INDIRECT: 24.037
BRANCH_CONDITIONAL: 13.0153
BRANCH_DIRECT_CALL: 2.7401
BRANCH_INDIRECT_CALL: 1.02377
BRANCH_RETURN: 3.59798

Instructions large pages: 0
Instructions small pages: 11368
Large page distribution for instructions: 0%

Data large pages: 0
Data small pages: 9849
Large page distribution for data: 0%

cpu0_L1I TOTAL       ACCESS:   39012165  HIT:   30279078  MISS:    8733087  iACCESS:   39012165  iHIT:   30279078  iMISS:    8733087  dACCESS:          0  dHIT:          0  dMISS:          0  itACCESS:          0  itHIT:          0  itMISS:          0  dtACCESS:          0  dtHIT:          0  dtMISS:          0
cpu0_L1I LOAD         ACCESS:   11535786  HIT:    9157002  MISS:    2378784  iACCESS:   11535786  iHIT:    9157002  iMISS:    2378784  dACCESS:          0  dHIT:          0  dMISS:          0  itACCESS:          0  itHIT:          0  itMISS:          0  dtACCESS:          0  dtHIT:          0  dtMISS:          0
cpu0_L1I RFO          ACCESS:          0  HIT:          0  MISS:          0  iACCESS:          0  iHIT:          0  iMISS:          0  dACCESS:          0  dHIT:          0  dMISS:          0  itACCESS:          0  itHIT:          0  itMISS:          0  dtACCESS:          0  dtHIT:          0  dtMISS:          0
cpu0_L1I PREFETCH     ACCESS:   27476379  HIT:   21122076  MISS:    6354303  iACCESS:   27476379  iHIT:   21122076  iMISS:    6354303  dACCESS:          0  dHIT:          0  dMISS:          0  itACCESS:          0  itHIT:          0  itMISS:          0  dtACCESS:          0  dtHIT:          0  dtMISS:          0
cpu0_L1I WRITE        ACCESS:          0  HIT:          0  MISS:          0  iACCESS:          0  iHIT:          0  iMISS:          0  dACCESS:          0  dHIT:          0  dMISS:          0  itACCESS:          0  itHIT:          0  itMISS:          0  dtACCESS:          0  dtHIT:          0  dtMISS:          0
cpu0_L1I TRANSLATION  ACCESS:          0  HIT:          0  MISS:          0  iACCESS:          0  iHIT:          0  iMISS:          0  dACCESS:          0  dHIT:          0  dMISS:          0  itACCESS:          0  itHIT:          0  itMISS:          0  dtACCESS:          0  dtHIT:          0  dtMISS:          0
cpu0_L1I PREFETCH  REQUESTED:   30171251  ISSUED:   30171086  CROSSED:          0  USEFUL:    2207611  USELESS:     793763
cpu0_L1I AVERAGE iMISS LATENCY: 25.5183 cycles
cpu0_L1I AVERAGE dMISS LATENCY: 0 cycles
cpu0_L1I AVERAGE itMISS LATENCY: 0 cycles
cpu0_L1I AVERAGE dtMISS LATENCY: 0 cycles
cpu0_L1I PAGE CROSSINGS (TLB HIT):         0 
cpu0_L1I PAGE CROSSINGS (TLB MISS):         0 
cpu0_L1I AVERAGE MISS LATENCY: 25.5183 cycles
cpu0_ITLB TOTAL       ACCESS:   33149056  HIT:   30879915  MISS:    2269141  iACCESS:   33149056  iHIT:   30879915  iMISS:    2269141  dACCESS:          0  dHIT:          0  dMISS:          0  itACCESS:          0  itHIT:          0  itMISS:          0  dtACCESS:          0  dtHIT:          0  dtMISS:          0
cpu0_ITLB LOAD         ACCESS:   33149056  HIT:   30879915  MISS:    2269141  iACCESS:   33149056  iHIT:   30879915  iMISS:    2269141  dACCESS:          0  dHIT:          0  dMISS:          0  itACCESS:          0  itHIT:          0  itMISS:          0  dtACCESS:          0  dtHIT:          0  dtMISS:          0
cpu0_ITLB RFO          ACCESS:          0  HIT:          0  MISS:          0  iACCESS:          0  iHIT:          0  iMISS:          0  dACCESS:          0  dHIT:          0  dMISS:          0  itACCESS:          0  itHIT:          0  itMISS:          0  dtACCESS:          0  dtHIT:          0  dtMISS:          0
cpu0_ITLB PREFETCH     ACCESS:          0  HIT:          0  MISS:          0  iACCESS:          0  iHIT:          0  iMISS:          0  dACCESS:          0  dHIT:          0  dMISS:          0  itACCESS:          0  itHIT:          0  itMISS:          0  dtACCESS:          0  dtHIT:          0  dtMISS:          0
cpu0_ITLB WRITE        ACCESS:          0  HIT:          0  MISS:          0  iACCESS:          0  iHIT:          0  iMISS:          0  dACCESS:          0  dHIT:          0  dMISS:          0  itACCESS:          0  itHIT:          0  itMISS:          0  dtACCESS:          0  dtHIT:          0  dtMISS:          0
cpu0_ITLB TRANSLATION  ACCESS:          0  HIT:          0  MISS:          0  iACCESS:          0  iHIT:          0  iMISS:          0  dACCESS:          0  dHIT:          0  dMISS:          0  itACCESS:          0  itHIT:          0  itMISS:          0  dtACCESS:          0  dtHIT:          0  dtMISS:          0
cpu0_ITLB PREFETCH  REQUESTED:          0  ISSUED:          0  CROSSED:          0  USEFUL:     399137  USELESS:      82718
cpu0_ITLB AVERAGE iMISS LATENCY: 7.12001 cycles
cpu0_ITLB AVERAGE dMISS LATENCY: 0 cycles
cpu0_ITLB AVERAGE itMISS LATENCY: 0 cycles
cpu0_ITLB AVERAGE dtMISS LATENCY: 0 cycles
cpu0_ITLB PAGE CROSSINGS (TLB HIT):         0 
cpu0_ITLB PAGE CROSSINGS (TLB MISS):         0 
cpu0_ITLB AVERAGE MISS LATENCY: 7.12001 cycles
cpu0_DTLB TOTAL       ACCESS:   29215433  HIT:   25677571  MISS:    3537862  iACCESS:          0  iHIT:          0  iMISS:          0  dACCESS:   29215433  dHIT:   25677571  dMISS:    3537862  itACCESS:          0  itHIT:          0  itMISS:          0  dtACCESS:          0  dtHIT:          0  dtMISS:          0
cpu0_DTLB LOAD         ACCESS:   29215433  HIT:   25677571  MISS:    3537862  iACCESS:          0  iHIT:          0  iMISS:          0  dACCESS:   29215433  dHIT:   25677571  dMISS:    3537862  itACCESS:          0  itHIT:          0  itMISS:          0  dtACCESS:          0  dtHIT:          0  dtMISS:          0
cpu0_DTLB RFO          ACCESS:          0  HIT:          0  MISS:          0  iACCESS:          0  iHIT:          0  iMISS:          0  dACCESS:          0  dHIT:          0  dMISS:          0  itACCESS:          0  itHIT:          0  itMISS:          0  dtACCESS:          0  dtHIT:          0  dtMISS:          0
cpu0_DTLB PREFETCH     ACCESS:          0  HIT:          0  MISS:          0  iACCESS:          0  iHIT:          0  iMISS:          0  dACCESS:          0  dHIT:          0  dMISS:          0  itACCESS:          0  itHIT:          0  itMISS:          0  dtACCESS:          0  dtHIT:          0  dtMISS:          0
cpu0_DTLB WRITE        ACCESS:          0  HIT:          0  MISS:          0  iACCESS:          0  iHIT:          0  iMISS:          0  dACCESS:          0  dHIT:          0  dMISS:          0  itACCESS:          0  itHIT:          0  itMISS:          0  dtACCESS:          0  dtHIT:          0  dtMISS:          0
cpu0_DTLB TRANSLATION  ACCESS:          0  HIT:          0  MISS:          0  iACCESS:          0  iHIT:          0  iMISS:          0  dACCESS:          0  dHIT:          0  dMISS:          0  itACCESS:          0  itHIT:          0  itMISS:          0  dtACCESS:          0  dtHIT:          0  dtMISS:          0
cpu0_DTLB PREFETCH  REQUESTED:          0  ISSUED:          0  CROSSED:          0  USEFUL:          0  USELESS:          0
cpu0_DTLB AVERAGE iMISS LATENCY: 0 cycles
cpu0_DTLB AVERAGE dMISS LATENCY: 29.4753 cycles
cpu0_DTLB AVERAGE itMISS LATENCY: 0 cycles
cpu0_DTLB AVERAGE dtMISS LATENCY: 0 cycles
cpu0_DTLB PAGE CROSSINGS (TLB HIT):         0 
cpu0_DTLB PAGE CROSSINGS (TLB MISS):         0 
cpu0_DTLB AVERAGE MISS LATENCY: 29.4753 cycles
cpu0_STLB TOTAL       ACCESS:    2566979  HIT:    2176326  MISS:     390653  iACCESS:     481863  iHIT:     417443  iMISS:      64420  dACCESS:    2085116  dHIT:    1758883  dMISS:     326233  itACCESS:          0  itHIT:          0  itMISS:          0  dtACCESS:          0  dtHIT:          0  dtMISS:          0
cpu0_STLB LOAD         ACCESS:    2566979  HIT:    2176326  MISS:     390653  iACCESS:     481863  iHIT:     417443  iMISS:      64420  dACCESS:    2085116  dHIT:    1758883  dMISS:     326233  itACCESS:          0  itHIT:          0  itMISS:          0  dtACCESS:          0  dtHIT:          0  dtMISS:          0
cpu0_STLB RFO          ACCESS:          0  HIT:          0  MISS:          0  iACCESS:          0  iHIT:          0  iMISS:          0  dACCESS:          0  dHIT:          0  dMISS:          0  itACCESS:          0  itHIT:          0  itMISS:          0  dtACCESS:          0  dtHIT:          0  dtMISS:          0
cpu0_STLB PREFETCH     ACCESS:          0  HIT:          0  MISS:          0  iACCESS:          0  iHIT:          0  iMISS:          0  dACCESS:          0  dHIT:          0  dMISS:          0  itACCESS:          0  itHIT:          0  itMISS:          0  dtACCESS:          0  dtHIT:          0  dtMISS:          0
cpu0_STLB WRITE        ACCESS:          0  HIT:          0  MISS:          0  iACCESS:          0  iHIT:          0  iMISS:          0  dACCESS:          0  dHIT:          0  dMISS:          0  itACCESS:          0  itHIT:          0  itMISS:          0  dtACCESS:          0  dtHIT:          0  dtMISS:          0
cpu0_STLB TRANSLATION  ACCESS:          0  HIT:          0  MISS:          0  iACCESS:          0  iHIT:          0  iMISS:          0  dACCESS:          0  dHIT:          0  dMISS:          0  itACCESS:          0  itHIT:          0  itMISS:          0  dtACCESS:          0  dtHIT:          0  dtMISS:          0
cpu0_STLB PREFETCH  REQUESTED:          0  ISSUED:          0  CROSSED:          0  USEFUL:          0  USELESS:          0
cpu0_STLB AVERAGE iMISS LATENCY: 31.6417 cycles
cpu0_STLB AVERAGE dMISS LATENCY: 223.811 cycles
cpu0_STLB AVERAGE itMISS LATENCY: 0 cycles
cpu0_STLB AVERAGE dtMISS LATENCY: 0 cycles
cpu0_STLB PAGE CROSSINGS (TLB HIT):         0 
cpu0_STLB PAGE CROSSINGS (TLB MISS):         0 
cpu0_STLB AVERAGE MISS LATENCY: 255.453 cycles
cpu0_L1D TOTAL       ACCESS:   45666087  HIT:   39656805  MISS:    6009282  iACCESS:          0  iHIT:          0  iMISS:          0  dACCESS:   45067487  dHIT:   39627043  dMISS:    5440444  itACCESS:      75386  itHIT:       5828  itMISS:      69558  dtACCESS:     523214  dtHIT:      23934  dtMISS:     499280
cpu0_L1D LOAD         ACCESS:   20651581  HIT:   18201127  MISS:    2450454  iACCESS:          0  iHIT:          0  iMISS:          0  dACCESS:   20651581  dHIT:   18201127  dMISS:    2450454  itACCESS:          0  itHIT:          0  itMISS:          0  dtACCESS:          0  dtHIT:          0  dtMISS:          0
cpu0_L1D RFO          ACCESS:          0  HIT:          0  MISS:          0  iACCESS:          0  iHIT:          0  iMISS:          0  dACCESS:          0  dHIT:          0  dMISS:          0  itACCESS:          0  itHIT:          0  itMISS:          0  dtACCESS:          0  dtHIT:          0  dtMISS:          0
cpu0_L1D PREFETCH     ACCESS:   14299343  HIT:   11914933  MISS:    2384410  iACCESS:          0  iHIT:          0  iMISS:          0  dACCESS:   14299343  dHIT:   11914933  dMISS:    2384410  itACCESS:          0  itHIT:          0  itMISS:          0  dtACCESS:          0  dtHIT:          0  dtMISS:          0
cpu0_L1D WRITE        ACCESS:   10116563  HIT:    9510983  MISS:     605580  iACCESS:          0  iHIT:          0  iMISS:          0  dACCESS:   10116563  dHIT:    9510983  dMISS:     605580  itACCESS:          0  itHIT:          0  itMISS:          0  dtACCESS:          0  dtHIT:          0  dtMISS:          0
cpu0_L1D TRANSLATION  ACCESS:     598600  HIT:      29762  MISS:     568838  iACCESS:          0  iHIT:          0  iMISS:          0  dACCESS:          0  dHIT:          0  dMISS:          0  itACCESS:      75386  itHIT:       5828  itMISS:      69558  dtACCESS:     523214  dtHIT:      23934  dtMISS:     499280
cpu0_L1D PREFETCH  REQUESTED:   20651581  ISSUED:   18875446  CROSSED:          0  USEFUL:     380350  USELESS:     962127
cpu0_L1D AVERAGE iMISS LATENCY: 0 cycles
cpu0_L1D AVERAGE dMISS LATENCY: 50.5434 cycles
cpu0_L1D AVERAGE itMISS LATENCY: 1.94744 cycles
cpu0_L1D AVERAGE dtMISS LATENCY: 13.6727 cycles
cpu0_L1D PAGE CROSSINGS (TLB HIT):         0 
cpu0_L1D PAGE CROSSINGS (TLB MISS):         0 
cpu0_L1D AVERAGE MISS LATENCY: 66.1634 cycles
cpu0_L2C TOTAL       ACCESS:    8823545  HIT:    4223406  MISS:    4600139  iACCESS:    3822093  iHIT:    2286833  iMISS:    1535260  dACCESS:    4467861  dHIT:    1868144  dMISS:    2599717  itACCESS:      69311  itHIT:      10721  itMISS:      58590  dtACCESS:     464280  dtHIT:      57708  dtMISS:     406572
cpu0_L2C LOAD         ACCESS:    2116905  HIT:    1020294  MISS:    1096611  iACCESS:     855315  iHIT:     535363  iMISS:     319952  dACCESS:    1261590  dHIT:     484931  dMISS:     776659  itACCESS:          0  itHIT:          0  itMISS:          0  dtACCESS:          0  dtHIT:          0  dtMISS:          0
cpu0_L2C RFO          ACCESS:     226619  HIT:      88871  MISS:     137748  iACCESS:          0  iHIT:          0  iMISS:          0  dACCESS:     226619  dHIT:      88871  dMISS:     137748  itACCESS:          0  itHIT:          0  itMISS:          0  dtACCESS:          0  dtHIT:          0  dtMISS:          0
cpu0_L2C PREFETCH     ACCESS:    5594825  HIT:    2698018  MISS:    2896807  iACCESS:    2966778  iHIT:    1751470  iMISS:    1215308  dACCESS:    2628047  dHIT:     946548  dMISS:    1681499  itACCESS:          0  itHIT:          0  itMISS:          0  dtACCESS:          0  dtHIT:          0  dtMISS:          0
cpu0_L2C WRITE        ACCESS:     351605  HIT:     347794  MISS:       3811  iACCESS:          0  iHIT:          0  iMISS:          0  dACCESS:     351605  dHIT:     347794  dMISS:       3811  itACCESS:          0  itHIT:          0  itMISS:          0  dtACCESS:          0  dtHIT:          0  dtMISS:          0
cpu0_L2C TRANSLATION  ACCESS:     533591  HIT:      68429  MISS:     465162  iACCESS:          0  iHIT:          0  iMISS:          0  dACCESS:          0  dHIT:          0  dMISS:          0  itACCESS:      69311  itHIT:      10721  itMISS:      58590  dtACCESS:     464280  dtHIT:      57708  dtMISS:     406572
cpu0_L2C PREFETCH  REQUESTED:    1524020  ISSUED:    1524012  CROSSED:          0  USEFUL:     352993  USELESS:     329693
cpu0_L2C AVERAGE iMISS LATENCY: 41.6205 cycles
cpu0_L2C AVERAGE dMISS LATENCY: 81.5534 cycles
cpu0_L2C AVERAGE itMISS LATENCY: 2.39514 cycles
cpu0_L2C AVERAGE dtMISS LATENCY: 16.8582 cycles
cpu0_L2C PAGE CROSSINGS (TLB HIT):         0 
cpu0_L2C PAGE CROSSINGS (TLB MISS):         0 
cpu0_L2C AVERAGE MISS LATENCY: 142.428 cycles
LLC TOTAL       ACCESS:    4593398  HIT:    1318959  MISS:    3274439  iACCESS:    1447842  iHIT:     433477  iMISS:    1014365  dACCESS:    2680394  dHIT:     833202  dMISS:    1847192  itACCESS:      58590  itHIT:       3594  itMISS:      54996  dtACCESS:     406572  dtHIT:      48686  dtMISS:     357886
LLC LOAD         ACCESS:    1088440  HIT:     323800  MISS:     764640  iACCESS:     318742  iHIT:     102688  iMISS:     216054  dACCESS:     769698  dHIT:     221112  dMISS:     548586  itACCESS:          0  itHIT:          0  itMISS:          0  dtACCESS:          0  dtHIT:          0  dtMISS:          0
LLC RFO          ACCESS:     137743  HIT:      39925  MISS:      97818  iACCESS:          0  iHIT:          0  iMISS:          0  dACCESS:     137743  dHIT:      39925  dMISS:      97818  itACCESS:          0  itHIT:          0  itMISS:          0  dtACCESS:          0  dtHIT:          0  dtMISS:          0
LLC PREFETCH     ACCESS:    2687636  HIT:     698954  MISS:    1988682  iACCESS:    1129100  iHIT:     330789  iMISS:     798311  dACCESS:    1558536  dHIT:     368165  dMISS:    1190371  itACCESS:          0  itHIT:          0  itMISS:          0  dtACCESS:          0  dtHIT:          0  dtMISS:          0
LLC WRITE        ACCESS:     214417  HIT:     204000  MISS:      10417  iACCESS:          0  iHIT:          0  iMISS:          0  dACCESS:     214417  dHIT:     204000  dMISS:      10417  itACCESS:          0  itHIT:          0  itMISS:          0  dtACCESS:          0  dtHIT:          0  dtMISS:          0
LLC TRANSLATION  ACCESS:     465162  HIT:      52280  MISS:     412882  iACCESS:          0  iHIT:          0  iMISS:          0  dACCESS:          0  dHIT:          0  dMISS:          0  itACCESS:      58590  itHIT:       3594  itMISS:      54996  dtACCESS:     406572  dtHIT:      48686  dtMISS:     357886
LLC PREFETCH  REQUESTED:          0  ISSUED:          0  CROSSED:          0  USEFUL:          0  USELESS:          0
LLC AVERAGE iMISS LATENCY: 49.7571 cycles
LLC AVERAGE dMISS LATENCY: 100.557 cycles
LLC AVERAGE itMISS LATENCY: 3.00976 cycles
LLC AVERAGE dtMISS LATENCY: 21.2293 cycles
LLC PAGE CROSSINGS (TLB HIT):         0 
LLC PAGE CROSSINGS (TLB MISS):         0 
LLC AVERAGE MISS LATENCY: 174.553 cycles

PageTableWalker TOTAL       ACCESS:     190661  
PageTableWalker AVERAGE LATENCY: 6.81669 cycles
PageTableWalker TOTAL LATENCY: 1299676 cycles

DRAM Statistics
Channel 0
 RQ ROW_BUFFER_HIT:     671438
  ROW_BUFFER_MISS:    2573628
 AVG DBUS CONGESTED CYCLE:    3.65405
 WQ ROW_BUFFER_HIT:      69289
  ROW_BUFFER_MISS:      59537  FULL:          0

