last_page:0x200000000000000
VMEM_RES_CAP:0x100000
PAGE_SIZE:4096
LOG2_PAGE_SIZE:12
LOG2_PAGE_TABLE_SIZE:9
page_table_levels:5
WARNING: physical memory size is smaller than virtual memory size
FDiP enabled with aggresivity 16

*** ChampSim Multicore Out-of-Order Simulator ***

Warmup Instructions: 50000000
Simulation Instructions: 100000000
Number of CPUs: 1
Small page size: 4096
Large page size: 2097152

CPU 0 Bimodal branch predictor
Basic BTB sets: 1024 ways: 8 indirect buffer size: 4096 RAS size: 64
Instruction page size distrubution: 0
Loading instruction page size distribution from /home/bsc/bsc018186/scratch/itp_asplos25_AE/dump/smt_srv537_ap_srv128_ap_1024i.pdst
Data page size distrubution: 0
Loading data page size distribution from /home/bsc/bsc018186/scratch/itp_asplos25_AE/dump/smt_srv537_ap_srv128_ap_1024i.pdst
cpu0_L2C IP-based stride prefetcher
cpu0_L1D next line prefetcher
cpu0_L1I next line prefetcher
Off-chip DRAM Size: 4 GiB Channels: 1 Width: 64-bit Data Rate: 3200 MT/s
Heartbeat CPU 0 instructions: 10000001 cycles: 2500411 heartbeat IPC: 3.99935 cumulative IPC: 3.99935 (Simulation time: 0 hr 0 min 45 sec) 
Heartbeat CPU 0 instructions: 20000000 cycles: 5081507 heartbeat IPC: 3.87433 cumulative IPC: 3.93585 (Simulation time: 0 hr 1 min 33 sec) 
Heartbeat CPU 0 instructions: 30000000 cycles: 7636024 heartbeat IPC: 3.91464 cumulative IPC: 3.92875 (Simulation time: 0 hr 2 min 19 sec) 
Heartbeat CPU 0 instructions: 40000002 cycles: 10179316 heartbeat IPC: 3.93192 cumulative IPC: 3.92954 (Simulation time: 0 hr 3 min 9 sec) 
Heartbeat CPU 0 instructions: 50000003 cycles: 12679507 heartbeat IPC: 3.9997 cumulative IPC: 3.94338 (Simulation time: 0 hr 3 min 57 sec) 
Warmup finished CPU 0 instructions: 50000003 cycles: 12679508 cumulative IPC: 3.94338 (Simulation time: 0 hr 3 min 57 sec) 

Warmup complete CPU 0 instructions: 50000003 cycles: 12679508 (Simulation time: 0 hr 3 min 57 sec) 

Heartbeat CPU 0 instructions: 60000000 cycles: 40707851 heartbeat IPC: 0.356782 cumulative IPC: 0.356782 (Simulation time: 0 hr 5 min 34 sec) 
Heartbeat CPU 0 instructions: 70000000 cycles: 68148191 heartbeat IPC: 0.364427 cumulative IPC: 0.360564 (Simulation time: 0 hr 7 min 6 sec) 
Heartbeat CPU 0 instructions: 80000001 cycles: 96260067 heartbeat IPC: 0.355722 cumulative IPC: 0.358936 (Simulation time: 0 hr 8 min 43 sec) 
Heartbeat CPU 0 instructions: 90000000 cycles: 122480970 heartbeat IPC: 0.381376 cumulative IPC: 0.364294 (Simulation time: 0 hr 10 min 13 sec) 
Heartbeat CPU 0 instructions: 100000003 cycles: 150819922 heartbeat IPC: 0.352872 cumulative IPC: 0.361951 (Simulation time: 0 hr 11 min 39 sec) 
Heartbeat CPU 0 instructions: 110000000 cycles: 179318389 heartbeat IPC: 0.350896 cumulative IPC: 0.360061 (Simulation time: 0 hr 13 min 7 sec) 
Heartbeat CPU 0 instructions: 120000000 cycles: 207339833 heartbeat IPC: 0.35687 cumulative IPC: 0.359601 (Simulation time: 0 hr 14 min 32 sec) 
Heartbeat CPU 0 instructions: 130000000 cycles: 234364340 heartbeat IPC: 0.370035 cumulative IPC: 0.360873 (Simulation time: 0 hr 15 min 56 sec) 
Heartbeat CPU 0 instructions: 140000001 cycles: 261600315 heartbeat IPC: 0.367162 cumulative IPC: 0.361561 (Simulation time: 0 hr 17 min 23 sec) 
Heartbeat CPU 0 instructions: 150000002 cycles: 289586602 heartbeat IPC: 0.357318 cumulative IPC: 0.361132 (Simulation time: 0 hr 18 min 49 sec) 
Simulation finished CPU 0 instructions: 100000004 cycles: 276907096 cumulative IPC: 0.361132 (Simulation time: 0 hr 18 min 49 sec) 

Simulation complete CPU 0 instructions: 100000004 cycles: 276907096 (Simulation time: 0 hr 18 min 49 sec) 


ChampSim completed all CPUs

Saving instructions large page distribution to /home/bsc/bsc018186/scratch/itp_asplos25_AE/dump/smt_srv537_ap_srv128_ap_1024i.pdst...
Saving data large page distribution to /home/bsc/bsc018186/scratch/itp_asplos25_AE/dump/smt_srv537_ap_srv128_ap_1024i.pdst...
=== Simulation ===
CPU 0 runs /gpfs/projects/bsc18/MN4/bsc18/romol/ChampSim/traces/qualcomm_srv/smt_srv537_ap_srv128_ap_1024i.champsimtrace.xz

Region of Interest Statistics

CPU 0 cumulative IPC: 0.361132 instructions: 100000004 cycles: 276907096
CPU 0 Branch Prediction Accuracy: 75.2714% MPKI: 44.6924 Average ROB Occupancy at Mispredict: 10.3349
Branch type MPKI
BRANCH_DIRECT_JUMP: 1.38374
BRANCH_INDIRECT: 23.0341
BRANCH_CONDITIONAL: 13.0606
BRANCH_DIRECT_CALL: 2.6741
BRANCH_INDIRECT_CALL: 1.02154
BRANCH_RETURN: 3.5183

Instructions large pages: 0
Instructions small pages: 10363
Large page distribution for instructions: 0%

Data large pages: 0
Data small pages: 8912
Large page distribution for data: 0%

cpu0_L1I TOTAL       ACCESS:   39604596  HIT:   30322569  MISS:    9282027  iACCESS:   39604596  iHIT:   30322569  iMISS:    9282027  dACCESS:          0  dHIT:          0  dMISS:          0  itACCESS:          0  itHIT:          0  itMISS:          0  dtACCESS:          0  dtHIT:          0  dtMISS:          0
cpu0_L1I LOAD         ACCESS:   11807423  HIT:    9289902  MISS:    2517521  iACCESS:   11807423  iHIT:    9289902  iMISS:    2517521  dACCESS:          0  dHIT:          0  dMISS:          0  itACCESS:          0  itHIT:          0  itMISS:          0  dtACCESS:          0  dtHIT:          0  dtMISS:          0
cpu0_L1I RFO          ACCESS:          0  HIT:          0  MISS:          0  iACCESS:          0  iHIT:          0  iMISS:          0  dACCESS:          0  dHIT:          0  dMISS:          0  itACCESS:          0  itHIT:          0  itMISS:          0  dtACCESS:          0  dtHIT:          0  dtMISS:          0
cpu0_L1I PREFETCH     ACCESS:   27797173  HIT:   21032667  MISS:    6764506  iACCESS:   27797173  iHIT:   21032667  iMISS:    6764506  dACCESS:          0  dHIT:          0  dMISS:          0  itACCESS:          0  itHIT:          0  itMISS:          0  dtACCESS:          0  dtHIT:          0  dtMISS:          0
cpu0_L1I WRITE        ACCESS:          0  HIT:          0  MISS:          0  iACCESS:          0  iHIT:          0  iMISS:          0  dACCESS:          0  dHIT:          0  dMISS:          0  itACCESS:          0  itHIT:          0  itMISS:          0  dtACCESS:          0  dtHIT:          0  dtMISS:          0
cpu0_L1I TRANSLATION  ACCESS:          0  HIT:          0  MISS:          0  iACCESS:          0  iHIT:          0  iMISS:          0  dACCESS:          0  dHIT:          0  dMISS:          0  itACCESS:          0  itHIT:          0  itMISS:          0  dtACCESS:          0  dtHIT:          0  dtMISS:          0
cpu0_L1I PREFETCH  REQUESTED:   30388741  ISSUED:   30387425  CROSSED:          0  USEFUL:    2223341  USELESS:     769690
cpu0_L1I AVERAGE iMISS LATENCY: 24.165 cycles
cpu0_L1I AVERAGE dMISS LATENCY: 0 cycles
cpu0_L1I AVERAGE itMISS LATENCY: 0 cycles
cpu0_L1I AVERAGE dtMISS LATENCY: 0 cycles
cpu0_L1I PAGE CROSSINGS (TLB HIT):         0 
cpu0_L1I PAGE CROSSINGS (TLB MISS):         0 
cpu0_L1I AVERAGE MISS LATENCY: 24.165 cycles
cpu0_ITLB TOTAL       ACCESS:   33315067  HIT:   31065811  MISS:    2249256  iACCESS:   33315067  iHIT:   31065811  iMISS:    2249256  dACCESS:          0  dHIT:          0  dMISS:          0  itACCESS:          0  itHIT:          0  itMISS:          0  dtACCESS:          0  dtHIT:          0  dtMISS:          0
cpu0_ITLB LOAD         ACCESS:   33315067  HIT:   31065811  MISS:    2249256  iACCESS:   33315067  iHIT:   31065811  iMISS:    2249256  dACCESS:          0  dHIT:          0  dMISS:          0  itACCESS:          0  itHIT:          0  itMISS:          0  dtACCESS:          0  dtHIT:          0  dtMISS:          0
cpu0_ITLB RFO          ACCESS:          0  HIT:          0  MISS:          0  iACCESS:          0  iHIT:          0  iMISS:          0  dACCESS:          0  dHIT:          0  dMISS:          0  itACCESS:          0  itHIT:          0  itMISS:          0  dtACCESS:          0  dtHIT:          0  dtMISS:          0
cpu0_ITLB PREFETCH     ACCESS:          0  HIT:          0  MISS:          0  iACCESS:          0  iHIT:          0  iMISS:          0  dACCESS:          0  dHIT:          0  dMISS:          0  itACCESS:          0  itHIT:          0  itMISS:          0  dtACCESS:          0  dtHIT:          0  dtMISS:          0
cpu0_ITLB WRITE        ACCESS:          0  HIT:          0  MISS:          0  iACCESS:          0  iHIT:          0  iMISS:          0  dACCESS:          0  dHIT:          0  dMISS:          0  itACCESS:          0  itHIT:          0  itMISS:          0  dtACCESS:          0  dtHIT:          0  dtMISS:          0
cpu0_ITLB TRANSLATION  ACCESS:          0  HIT:          0  MISS:          0  iACCESS:          0  iHIT:          0  iMISS:          0  dACCESS:          0  dHIT:          0  dMISS:          0  itACCESS:          0  itHIT:          0  itMISS:          0  dtACCESS:          0  dtHIT:          0  dtMISS:          0
cpu0_ITLB PREFETCH  REQUESTED:          0  ISSUED:          0  CROSSED:          0  USEFUL:     393281  USELESS:      80175
cpu0_ITLB AVERAGE iMISS LATENCY: 7.65592 cycles
cpu0_ITLB AVERAGE dMISS LATENCY: 0 cycles
cpu0_ITLB AVERAGE itMISS LATENCY: 0 cycles
cpu0_ITLB AVERAGE dtMISS LATENCY: 0 cycles
cpu0_ITLB PAGE CROSSINGS (TLB HIT):         0 
cpu0_ITLB PAGE CROSSINGS (TLB MISS):         0 
cpu0_ITLB AVERAGE MISS LATENCY: 7.65592 cycles
cpu0_DTLB TOTAL       ACCESS:   28872270  HIT:   25521958  MISS:    3350312  iACCESS:          0  iHIT:          0  iMISS:          0  dACCESS:   28872270  dHIT:   25521958  dMISS:    3350312  itACCESS:          0  itHIT:          0  itMISS:          0  dtACCESS:          0  dtHIT:          0  dtMISS:          0
cpu0_DTLB LOAD         ACCESS:   28872270  HIT:   25521958  MISS:    3350312  iACCESS:          0  iHIT:          0  iMISS:          0  dACCESS:   28872270  dHIT:   25521958  dMISS:    3350312  itACCESS:          0  itHIT:          0  itMISS:          0  dtACCESS:          0  dtHIT:          0  dtMISS:          0
cpu0_DTLB RFO          ACCESS:          0  HIT:          0  MISS:          0  iACCESS:          0  iHIT:          0  iMISS:          0  dACCESS:          0  dHIT:          0  dMISS:          0  itACCESS:          0  itHIT:          0  itMISS:          0  dtACCESS:          0  dtHIT:          0  dtMISS:          0
cpu0_DTLB PREFETCH     ACCESS:          0  HIT:          0  MISS:          0  iACCESS:          0  iHIT:          0  iMISS:          0  dACCESS:          0  dHIT:          0  dMISS:          0  itACCESS:          0  itHIT:          0  itMISS:          0  dtACCESS:          0  dtHIT:          0  dtMISS:          0
cpu0_DTLB WRITE        ACCESS:          0  HIT:          0  MISS:          0  iACCESS:          0  iHIT:          0  iMISS:          0  dACCESS:          0  dHIT:          0  dMISS:          0  itACCESS:          0  itHIT:          0  itMISS:          0  dtACCESS:          0  dtHIT:          0  dtMISS:          0
cpu0_DTLB TRANSLATION  ACCESS:          0  HIT:          0  MISS:          0  iACCESS:          0  iHIT:          0  iMISS:          0  dACCESS:          0  dHIT:          0  dMISS:          0  itACCESS:          0  itHIT:          0  itMISS:          0  dtACCESS:          0  dtHIT:          0  dtMISS:          0
cpu0_DTLB PREFETCH  REQUESTED:          0  ISSUED:          0  CROSSED:          0  USEFUL:          0  USELESS:          0
cpu0_DTLB AVERAGE iMISS LATENCY: 0 cycles
cpu0_DTLB AVERAGE dMISS LATENCY: 17.8462 cycles
cpu0_DTLB AVERAGE itMISS LATENCY: 0 cycles
cpu0_DTLB AVERAGE dtMISS LATENCY: 0 cycles
cpu0_DTLB PAGE CROSSINGS (TLB HIT):         0 
cpu0_DTLB PAGE CROSSINGS (TLB MISS):         0 
cpu0_DTLB AVERAGE MISS LATENCY: 17.8462 cycles
cpu0_STLB TOTAL       ACCESS:    2410351  HIT:    2043434  MISS:     366917  iACCESS:     473462  iHIT:     356726  iMISS:     116736  dACCESS:    1936889  dHIT:    1686708  dMISS:     250181  itACCESS:          0  itHIT:          0  itMISS:          0  dtACCESS:          0  dtHIT:          0  dtMISS:          0
cpu0_STLB LOAD         ACCESS:    2410351  HIT:    2043434  MISS:     366917  iACCESS:     473462  iHIT:     356726  iMISS:     116736  dACCESS:    1936889  dHIT:    1686708  dMISS:     250181  itACCESS:          0  itHIT:          0  itMISS:          0  dtACCESS:          0  dtHIT:          0  dtMISS:          0
cpu0_STLB RFO          ACCESS:          0  HIT:          0  MISS:          0  iACCESS:          0  iHIT:          0  iMISS:          0  dACCESS:          0  dHIT:          0  dMISS:          0  itACCESS:          0  itHIT:          0  itMISS:          0  dtACCESS:          0  dtHIT:          0  dtMISS:          0
cpu0_STLB PREFETCH     ACCESS:          0  HIT:          0  MISS:          0  iACCESS:          0  iHIT:          0  iMISS:          0  dACCESS:          0  dHIT:          0  dMISS:          0  itACCESS:          0  itHIT:          0  itMISS:          0  dtACCESS:          0  dtHIT:          0  dtMISS:          0
cpu0_STLB WRITE        ACCESS:          0  HIT:          0  MISS:          0  iACCESS:          0  iHIT:          0  iMISS:          0  dACCESS:          0  dHIT:          0  dMISS:          0  itACCESS:          0  itHIT:          0  itMISS:          0  dtACCESS:          0  dtHIT:          0  dtMISS:          0
cpu0_STLB TRANSLATION  ACCESS:          0  HIT:          0  MISS:          0  iACCESS:          0  iHIT:          0  iMISS:          0  dACCESS:          0  dHIT:          0  dMISS:          0  itACCESS:          0  itHIT:          0  itMISS:          0  dtACCESS:          0  dtHIT:          0  dtMISS:          0
cpu0_STLB PREFETCH  REQUESTED:          0  ISSUED:          0  CROSSED:          0  USEFUL:          0  USELESS:          0
cpu0_STLB AVERAGE iMISS LATENCY: 36.6163 cycles
cpu0_STLB AVERAGE dMISS LATENCY: 120.58 cycles
cpu0_STLB AVERAGE itMISS LATENCY: 0 cycles
cpu0_STLB AVERAGE dtMISS LATENCY: 0 cycles
cpu0_STLB PAGE CROSSINGS (TLB HIT):         0 
cpu0_STLB PAGE CROSSINGS (TLB MISS):         0 
cpu0_STLB AVERAGE MISS LATENCY: 157.196 cycles
cpu0_L1D TOTAL       ACCESS:   45237868  HIT:   39252156  MISS:    5985712  iACCESS:          0  iHIT:          0  iMISS:          0  dACCESS:   44699730  dHIT:   39219066  dMISS:    5480664  itACCESS:     129846  itHIT:      15819  itMISS:     114027  dtACCESS:     408292  dtHIT:      17271  dtMISS:     391021
cpu0_L1D LOAD         ACCESS:   20386143  HIT:   17923011  MISS:    2463132  iACCESS:          0  iHIT:          0  iMISS:          0  dACCESS:   20386143  dHIT:   17923011  dMISS:    2463132  itACCESS:          0  itHIT:          0  itMISS:          0  dtACCESS:          0  dtHIT:          0  dtMISS:          0
cpu0_L1D RFO          ACCESS:          0  HIT:          0  MISS:          0  iACCESS:          0  iHIT:          0  iMISS:          0  dACCESS:          0  dHIT:          0  dMISS:          0  itACCESS:          0  itHIT:          0  itMISS:          0  dtACCESS:          0  dtHIT:          0  dtMISS:          0
cpu0_L1D PREFETCH     ACCESS:   14118166  HIT:   11675690  MISS:    2442476  iACCESS:          0  iHIT:          0  iMISS:          0  dACCESS:   14118166  dHIT:   11675690  dMISS:    2442476  itACCESS:          0  itHIT:          0  itMISS:          0  dtACCESS:          0  dtHIT:          0  dtMISS:          0
cpu0_L1D WRITE        ACCESS:   10195421  HIT:    9620365  MISS:     575056  iACCESS:          0  iHIT:          0  iMISS:          0  dACCESS:   10195421  dHIT:    9620365  dMISS:     575056  itACCESS:          0  itHIT:          0  itMISS:          0  dtACCESS:          0  dtHIT:          0  dtMISS:          0
cpu0_L1D TRANSLATION  ACCESS:     538138  HIT:      33090  MISS:     505048  iACCESS:          0  iHIT:          0  iMISS:          0  dACCESS:          0  dHIT:          0  dMISS:          0  itACCESS:     129846  itHIT:      15819  itMISS:     114027  dtACCESS:     408292  dtHIT:      17271  dtMISS:     391021
cpu0_L1D PREFETCH  REQUESTED:   20386143  ISSUED:   18419207  CROSSED:          0  USEFUL:     373157  USELESS:     910858
cpu0_L1D AVERAGE iMISS LATENCY: 0 cycles
cpu0_L1D AVERAGE dMISS LATENCY: 48.3715 cycles
cpu0_L1D AVERAGE itMISS LATENCY: 2.05922 cycles
cpu0_L1D AVERAGE dtMISS LATENCY: 6.64162 cycles
cpu0_L1D PAGE CROSSINGS (TLB HIT):         0 
cpu0_L1D PAGE CROSSINGS (TLB MISS):         0 
cpu0_L1D AVERAGE MISS LATENCY: 57.0724 cycles
cpu0_L2C TOTAL       ACCESS:    8624127  HIT:    1541053  MISS:    7083074  iACCESS:    3804492  iHIT:     813368  iMISS:    2991124  dACCESS:    4347412  dHIT:     543337  dMISS:    3804075  itACCESS:     113343  itHIT:      40598  itMISS:      72745  dtACCESS:     358880  dtHIT:     143750  dtMISS:     215130
cpu0_L2C LOAD         ACCESS:    2050923  HIT:     211560  MISS:    1839363  iACCESS:     848220  iHIT:     119799  iMISS:     728421  dACCESS:    1202703  dHIT:      91761  dMISS:    1110942  itACCESS:          0  itHIT:          0  itMISS:          0  dtACCESS:          0  dtHIT:          0  dtMISS:          0
cpu0_L2C RFO          ACCESS:     214943  HIT:      29251  MISS:     185692  iACCESS:          0  iHIT:          0  iMISS:          0  dACCESS:     214943  dHIT:      29251  dMISS:     185692  itACCESS:          0  itHIT:          0  itMISS:          0  dtACCESS:          0  dtHIT:          0  dtMISS:          0
cpu0_L2C PREFETCH     ACCESS:    5540744  HIT:    1010078  MISS:    4530666  iACCESS:    2956272  iHIT:     693569  iMISS:    2262703  dACCESS:    2584472  dHIT:     316509  dMISS:    2267963  itACCESS:          0  itHIT:          0  itMISS:          0  dtACCESS:          0  dtHIT:          0  dtMISS:          0
cpu0_L2C WRITE        ACCESS:     345294  HIT:     105816  MISS:     239478  iACCESS:          0  iHIT:          0  iMISS:          0  dACCESS:     345294  dHIT:     105816  dMISS:     239478  itACCESS:          0  itHIT:          0  itMISS:          0  dtACCESS:          0  dtHIT:          0  dtMISS:          0
cpu0_L2C TRANSLATION  ACCESS:     472223  HIT:     184348  MISS:     287875  iACCESS:          0  iHIT:          0  iMISS:          0  dACCESS:          0  dHIT:          0  dMISS:          0  itACCESS:     113343  itHIT:      40598  itMISS:      72745  dtACCESS:     358880  dtHIT:     143750  dtMISS:     215130
cpu0_L2C PREFETCH  REQUESTED:    1544175  ISSUED:    1544173  CROSSED:          0  USEFUL:     416004  USELESS:     493348
cpu0_L2C AVERAGE iMISS LATENCY: 27.0492 cycles
cpu0_L2C AVERAGE dMISS LATENCY: 50.64 cycles
cpu0_L2C AVERAGE itMISS LATENCY: 1.5855 cycles
cpu0_L2C AVERAGE dtMISS LATENCY: 5.12406 cycles
cpu0_L2C PAGE CROSSINGS (TLB HIT):         0 
cpu0_L2C PAGE CROSSINGS (TLB MISS):         0 
cpu0_L2C AVERAGE MISS LATENCY: 84.3987 cycles
LLC TOTAL       ACCESS:    6886553  HIT:    4141231  MISS:    2745322  iACCESS:    2897732  iHIT:    2031830  iMISS:     865902  dACCESS:    3700946  dHIT:    2043432  dMISS:    1657514  itACCESS:      72745  itHIT:      17702  itMISS:      55043  dtACCESS:     215130  dtHIT:      48267  dtMISS:     166863
LLC LOAD         ACCESS:    1831738  HIT:    1175517  MISS:     656221  iACCESS:     727094  iHIT:     545453  iMISS:     181641  dACCESS:    1104644  dHIT:     630064  dMISS:     474580  itACCESS:          0  itHIT:          0  itMISS:          0  dtACCESS:          0  dtHIT:          0  dtMISS:          0
LLC RFO          ACCESS:     185681  HIT:      92793  MISS:      92888  iACCESS:          0  iHIT:          0  iMISS:          0  dACCESS:     185681  dHIT:      92793  dMISS:      92888  itACCESS:          0  itHIT:          0  itMISS:          0  dtACCESS:          0  dtHIT:          0  dtMISS:          0
LLC PREFETCH     ACCESS:    4310887  HIT:    2544865  MISS:    1766022  iACCESS:    2170638  iHIT:    1486377  iMISS:     684261  dACCESS:    2140249  dHIT:    1058488  dMISS:    1081761  itACCESS:          0  itHIT:          0  itMISS:          0  dtACCESS:          0  dtHIT:          0  dtMISS:          0
LLC WRITE        ACCESS:     270372  HIT:     262087  MISS:       8285  iACCESS:          0  iHIT:          0  iMISS:          0  dACCESS:     270372  dHIT:     262087  dMISS:       8285  itACCESS:          0  itHIT:          0  itMISS:          0  dtACCESS:          0  dtHIT:          0  dtMISS:          0
LLC TRANSLATION  ACCESS:     287875  HIT:      65969  MISS:     221906  iACCESS:          0  iHIT:          0  iMISS:          0  dACCESS:          0  dHIT:          0  dMISS:          0  itACCESS:      72745  itHIT:      17702  itMISS:      55043  dtACCESS:     215130  dtHIT:      48267  dtMISS:     166863
LLC PREFETCH  REQUESTED:          0  ISSUED:          0  CROSSED:          0  USEFUL:          0  USELESS:          0
LLC AVERAGE iMISS LATENCY: 49.2865 cycles
LLC AVERAGE dMISS LATENCY: 107.403 cycles
LLC AVERAGE itMISS LATENCY: 3.56889 cycles
LLC AVERAGE dtMISS LATENCY: 11.6765 cycles
LLC PAGE CROSSINGS (TLB HIT):         0 
LLC PAGE CROSSINGS (TLB MISS):         0 
LLC AVERAGE MISS LATENCY: 171.935 cycles

PageTableWalker TOTAL       ACCESS:     134915  
PageTableWalker AVERAGE LATENCY: 5.86018 cycles
PageTableWalker TOTAL LATENCY: 790626 cycles

DRAM Statistics
Channel 0
 RQ ROW_BUFFER_HIT:     608261
  ROW_BUFFER_MISS:    2108014
 AVG DBUS CONGESTED CYCLE:    3.65428
 WQ ROW_BUFFER_HIT:      66501
  ROW_BUFFER_MISS:      61326  FULL:          0

