last_page:0x200000000000000
VMEM_RES_CAP:0x100000
PAGE_SIZE:4096
LOG2_PAGE_SIZE:12
LOG2_PAGE_TABLE_SIZE:9
page_table_levels:5
WARNING: physical memory size is smaller than virtual memory size
FDiP enabled with aggresivity 16

*** ChampSim Multicore Out-of-Order Simulator ***

Warmup Instructions: 50000000
Simulation Instructions: 100000000
Number of CPUs: 1
Small page size: 4096
Large page size: 2097152

CPU 0 Bimodal branch predictor
Basic BTB sets: 1024 ways: 8 indirect buffer size: 4096 RAS size: 64
Instruction page size distrubution: 0
Loading instruction page size distribution from /home/bsc/bsc018186/scratch/itp_asplos25_AE/dump/smt_srv207_ap_srv495_ap_1024i.pdst
Data page size distrubution: 0
Loading data page size distribution from /home/bsc/bsc018186/scratch/itp_asplos25_AE/dump/smt_srv207_ap_srv495_ap_1024i.pdst
cpu0_L2C IP-based stride prefetcher
cpu0_L2C is using PTP replacement policy:
	TLB_STRESS_THRESHOLD:0
	PTE_EVICTION_RATIO:0
cpu0_L1D next line prefetcher
CHiRPing...
cpu0_L1I next line prefetcher
Off-chip DRAM Size: 4 GiB Channels: 1 Width: 64-bit Data Rate: 3200 MT/s
Heartbeat CPU 0 instructions: 10000003 cycles: 2500852 heartbeat IPC: 3.99864 cumulative IPC: 3.99864 (Simulation time: 0 hr 0 min 38 sec) 
Heartbeat CPU 0 instructions: 20000002 cycles: 5001421 heartbeat IPC: 3.99909 cumulative IPC: 3.99887 (Simulation time: 0 hr 1 min 18 sec) 
Heartbeat CPU 0 instructions: 30000000 cycles: 7501606 heartbeat IPC: 3.99971 cumulative IPC: 3.99915 (Simulation time: 0 hr 1 min 59 sec) 
Heartbeat CPU 0 instructions: 40000000 cycles: 10001993 heartbeat IPC: 3.99939 cumulative IPC: 3.99921 (Simulation time: 0 hr 2 min 40 sec) 
Heartbeat CPU 0 instructions: 50000000 cycles: 12502275 heartbeat IPC: 3.99955 cumulative IPC: 3.99928 (Simulation time: 0 hr 3 min 21 sec) 
Warmup finished CPU 0 instructions: 50000000 cycles: 12502276 cumulative IPC: 3.99928 (Simulation time: 0 hr 3 min 21 sec) 

Warmup complete CPU 0 instructions: 50000000 cycles: 12502276 (Simulation time: 0 hr 3 min 21 sec) 

Heartbeat CPU 0 instructions: 60000001 cycles: 43462941 heartbeat IPC: 0.322991 cumulative IPC: 0.322991 (Simulation time: 0 hr 4 min 48 sec) 
Heartbeat CPU 0 instructions: 70000003 cycles: 74826413 heartbeat IPC: 0.318843 cumulative IPC: 0.320904 (Simulation time: 0 hr 6 min 14 sec) 
Heartbeat CPU 0 instructions: 80000000 cycles: 107538056 heartbeat IPC: 0.305702 cumulative IPC: 0.315671 (Simulation time: 0 hr 7 min 43 sec) 
Heartbeat CPU 0 instructions: 90000000 cycles: 139744006 heartbeat IPC: 0.310502 cumulative IPC: 0.314363 (Simulation time: 0 hr 9 min 11 sec) 
Heartbeat CPU 0 instructions: 100000003 cycles: 169952857 heartbeat IPC: 0.331029 cumulative IPC: 0.31756 (Simulation time: 0 hr 10 min 36 sec) 
Heartbeat CPU 0 instructions: 110000000 cycles: 201747064 heartbeat IPC: 0.314523 cumulative IPC: 0.31705 (Simulation time: 0 hr 12 min 4 sec) 
Heartbeat CPU 0 instructions: 120000000 cycles: 232811091 heartbeat IPC: 0.321916 cumulative IPC: 0.317736 (Simulation time: 0 hr 13 min 31 sec) 
Heartbeat CPU 0 instructions: 130000003 cycles: 263134348 heartbeat IPC: 0.32978 cumulative IPC: 0.319194 (Simulation time: 0 hr 14 min 56 sec) 
Heartbeat CPU 0 instructions: 140000002 cycles: 294772950 heartbeat IPC: 0.31607 cumulative IPC: 0.318843 (Simulation time: 0 hr 16 min 24 sec) 
Heartbeat CPU 0 instructions: 150000000 cycles: 325533139 heartbeat IPC: 0.325096 cumulative IPC: 0.319458 (Simulation time: 0 hr 17 min 51 sec) 
Simulation finished CPU 0 instructions: 100000000 cycles: 313030864 cumulative IPC: 0.319458 (Simulation time: 0 hr 17 min 51 sec) 

Simulation complete CPU 0 instructions: 100000000 cycles: 313030864 (Simulation time: 0 hr 17 min 51 sec) 


ChampSim completed all CPUs

Saving instructions large page distribution to /home/bsc/bsc018186/scratch/itp_asplos25_AE/dump/smt_srv207_ap_srv495_ap_1024i.pdst...
Saving data large page distribution to /home/bsc/bsc018186/scratch/itp_asplos25_AE/dump/smt_srv207_ap_srv495_ap_1024i.pdst...
=== Simulation ===
CPU 0 runs /gpfs/projects/bsc18/MN4/bsc18/romol/ChampSim/traces/qualcomm_srv/smt_srv207_ap_srv495_ap_1024i.champsimtrace.xz

Region of Interest Statistics

CPU 0 cumulative IPC: 0.319458 instructions: 100000000 cycles: 313030864
CPU 0 Branch Prediction Accuracy: 74.477% MPKI: 45.9621 Average ROB Occupancy at Mispredict: 10.7554
Branch type MPKI
BRANCH_DIRECT_JUMP: 1.44248
BRANCH_INDIRECT: 24.0666
BRANCH_CONDITIONAL: 13.0858
BRANCH_DIRECT_CALL: 2.7496
BRANCH_INDIRECT_CALL: 1.0247
BRANCH_RETURN: 3.59304

Instructions large pages: 0
Instructions small pages: 11428
Large page distribution for instructions: 0%

Data large pages: 0
Data small pages: 9945
Large page distribution for data: 0%

cpu0_L1I TOTAL       ACCESS:   39079970  HIT:   30304030  MISS:    8775940  iACCESS:   39079970  iHIT:   30304030  iMISS:    8775940  dACCESS:          0  dHIT:          0  dMISS:          0  itACCESS:          0  itHIT:          0  itMISS:          0  dtACCESS:          0  dtHIT:          0  dtMISS:          0
cpu0_L1I LOAD         ACCESS:   11556877  HIT:    9166627  MISS:    2390250  iACCESS:   11556877  iHIT:    9166627  iMISS:    2390250  dACCESS:          0  dHIT:          0  dMISS:          0  itACCESS:          0  itHIT:          0  itMISS:          0  dtACCESS:          0  dtHIT:          0  dtMISS:          0
cpu0_L1I RFO          ACCESS:          0  HIT:          0  MISS:          0  iACCESS:          0  iHIT:          0  iMISS:          0  dACCESS:          0  dHIT:          0  dMISS:          0  itACCESS:          0  itHIT:          0  itMISS:          0  dtACCESS:          0  dtHIT:          0  dtMISS:          0
cpu0_L1I PREFETCH     ACCESS:   27523093  HIT:   21137403  MISS:    6385690  iACCESS:   27523093  iHIT:   21137403  iMISS:    6385690  dACCESS:          0  dHIT:          0  dMISS:          0  itACCESS:          0  itHIT:          0  itMISS:          0  dtACCESS:          0  dtHIT:          0  dtMISS:          0
cpu0_L1I WRITE        ACCESS:          0  HIT:          0  MISS:          0  iACCESS:          0  iHIT:          0  iMISS:          0  dACCESS:          0  dHIT:          0  dMISS:          0  itACCESS:          0  itHIT:          0  itMISS:          0  dtACCESS:          0  dtHIT:          0  dtMISS:          0
cpu0_L1I TRANSLATION  ACCESS:          0  HIT:          0  MISS:          0  iACCESS:          0  iHIT:          0  iMISS:          0  dACCESS:          0  dHIT:          0  dMISS:          0  itACCESS:          0  itHIT:          0  itMISS:          0  dtACCESS:          0  dtHIT:          0  dtMISS:          0
cpu0_L1I PREFETCH  REQUESTED:   30213289  ISSUED:   30213137  CROSSED:          0  USEFUL:    2215914  USELESS:     795686
cpu0_L1I AVERAGE iMISS LATENCY: 25.3393 cycles
cpu0_L1I AVERAGE dMISS LATENCY: 0 cycles
cpu0_L1I AVERAGE itMISS LATENCY: 0 cycles
cpu0_L1I AVERAGE dtMISS LATENCY: 0 cycles
cpu0_L1I PAGE CROSSINGS (TLB HIT):         0 
cpu0_L1I PAGE CROSSINGS (TLB MISS):         0 
cpu0_L1I AVERAGE MISS LATENCY: 25.3393 cycles
cpu0_ITLB TOTAL       ACCESS:   33207180  HIT:   30930289  MISS:    2276891  iACCESS:   33207180  iHIT:   30930289  iMISS:    2276891  dACCESS:          0  dHIT:          0  dMISS:          0  itACCESS:          0  itHIT:          0  itMISS:          0  dtACCESS:          0  dtHIT:          0  dtMISS:          0
cpu0_ITLB LOAD         ACCESS:   33207180  HIT:   30930289  MISS:    2276891  iACCESS:   33207180  iHIT:   30930289  iMISS:    2276891  dACCESS:          0  dHIT:          0  dMISS:          0  itACCESS:          0  itHIT:          0  itMISS:          0  dtACCESS:          0  dtHIT:          0  dtMISS:          0
cpu0_ITLB RFO          ACCESS:          0  HIT:          0  MISS:          0  iACCESS:          0  iHIT:          0  iMISS:          0  dACCESS:          0  dHIT:          0  dMISS:          0  itACCESS:          0  itHIT:          0  itMISS:          0  dtACCESS:          0  dtHIT:          0  dtMISS:          0
cpu0_ITLB PREFETCH     ACCESS:          0  HIT:          0  MISS:          0  iACCESS:          0  iHIT:          0  iMISS:          0  dACCESS:          0  dHIT:          0  dMISS:          0  itACCESS:          0  itHIT:          0  itMISS:          0  dtACCESS:          0  dtHIT:          0  dtMISS:          0
cpu0_ITLB WRITE        ACCESS:          0  HIT:          0  MISS:          0  iACCESS:          0  iHIT:          0  iMISS:          0  dACCESS:          0  dHIT:          0  dMISS:          0  itACCESS:          0  itHIT:          0  itMISS:          0  dtACCESS:          0  dtHIT:          0  dtMISS:          0
cpu0_ITLB TRANSLATION  ACCESS:          0  HIT:          0  MISS:          0  iACCESS:          0  iHIT:          0  iMISS:          0  dACCESS:          0  dHIT:          0  dMISS:          0  itACCESS:          0  itHIT:          0  itMISS:          0  dtACCESS:          0  dtHIT:          0  dtMISS:          0
cpu0_ITLB PREFETCH  REQUESTED:          0  ISSUED:          0  CROSSED:          0  USEFUL:     400871  USELESS:      82489
cpu0_ITLB AVERAGE iMISS LATENCY: 10.6815 cycles
cpu0_ITLB AVERAGE dMISS LATENCY: 0 cycles
cpu0_ITLB AVERAGE itMISS LATENCY: 0 cycles
cpu0_ITLB AVERAGE dtMISS LATENCY: 0 cycles
cpu0_ITLB PAGE CROSSINGS (TLB HIT):         0 
cpu0_ITLB PAGE CROSSINGS (TLB MISS):         0 
cpu0_ITLB AVERAGE MISS LATENCY: 10.6815 cycles
cpu0_DTLB TOTAL       ACCESS:   29213478  HIT:   25647789  MISS:    3565689  iACCESS:          0  iHIT:          0  iMISS:          0  dACCESS:   29213478  dHIT:   25647789  dMISS:    3565689  itACCESS:          0  itHIT:          0  itMISS:          0  dtACCESS:          0  dtHIT:          0  dtMISS:          0
cpu0_DTLB LOAD         ACCESS:   29213478  HIT:   25647789  MISS:    3565689  iACCESS:          0  iHIT:          0  iMISS:          0  dACCESS:   29213478  dHIT:   25647789  dMISS:    3565689  itACCESS:          0  itHIT:          0  itMISS:          0  dtACCESS:          0  dtHIT:          0  dtMISS:          0
cpu0_DTLB RFO          ACCESS:          0  HIT:          0  MISS:          0  iACCESS:          0  iHIT:          0  iMISS:          0  dACCESS:          0  dHIT:          0  dMISS:          0  itACCESS:          0  itHIT:          0  itMISS:          0  dtACCESS:          0  dtHIT:          0  dtMISS:          0
cpu0_DTLB PREFETCH     ACCESS:          0  HIT:          0  MISS:          0  iACCESS:          0  iHIT:          0  iMISS:          0  dACCESS:          0  dHIT:          0  dMISS:          0  itACCESS:          0  itHIT:          0  itMISS:          0  dtACCESS:          0  dtHIT:          0  dtMISS:          0
cpu0_DTLB WRITE        ACCESS:          0  HIT:          0  MISS:          0  iACCESS:          0  iHIT:          0  iMISS:          0  dACCESS:          0  dHIT:          0  dMISS:          0  itACCESS:          0  itHIT:          0  itMISS:          0  dtACCESS:          0  dtHIT:          0  dtMISS:          0
cpu0_DTLB TRANSLATION  ACCESS:          0  HIT:          0  MISS:          0  iACCESS:          0  iHIT:          0  iMISS:          0  dACCESS:          0  dHIT:          0  dMISS:          0  itACCESS:          0  itHIT:          0  itMISS:          0  dtACCESS:          0  dtHIT:          0  dtMISS:          0
cpu0_DTLB PREFETCH  REQUESTED:          0  ISSUED:          0  CROSSED:          0  USEFUL:          0  USELESS:          0
cpu0_DTLB AVERAGE iMISS LATENCY: 0 cycles
cpu0_DTLB AVERAGE dMISS LATENCY: 25.9604 cycles
cpu0_DTLB AVERAGE itMISS LATENCY: 0 cycles
cpu0_DTLB AVERAGE dtMISS LATENCY: 0 cycles
cpu0_DTLB PAGE CROSSINGS (TLB HIT):         0 
cpu0_DTLB PAGE CROSSINGS (TLB MISS):         0 
cpu0_DTLB AVERAGE MISS LATENCY: 25.9604 cycles
cpu0_STLB TOTAL       ACCESS:    2583527  HIT:    2189263  MISS:     394264  iACCESS:     483360  iHIT:     362751  iMISS:     120609  dACCESS:    2100167  dHIT:    1826512  dMISS:     273655  itACCESS:          0  itHIT:          0  itMISS:          0  dtACCESS:          0  dtHIT:          0  dtMISS:          0
cpu0_STLB LOAD         ACCESS:    2583527  HIT:    2189263  MISS:     394264  iACCESS:     483360  iHIT:     362751  iMISS:     120609  dACCESS:    2100167  dHIT:    1826512  dMISS:     273655  itACCESS:          0  itHIT:          0  itMISS:          0  dtACCESS:          0  dtHIT:          0  dtMISS:          0
cpu0_STLB RFO          ACCESS:          0  HIT:          0  MISS:          0  iACCESS:          0  iHIT:          0  iMISS:          0  dACCESS:          0  dHIT:          0  dMISS:          0  itACCESS:          0  itHIT:          0  itMISS:          0  dtACCESS:          0  dtHIT:          0  dtMISS:          0
cpu0_STLB PREFETCH     ACCESS:          0  HIT:          0  MISS:          0  iACCESS:          0  iHIT:          0  iMISS:          0  dACCESS:          0  dHIT:          0  dMISS:          0  itACCESS:          0  itHIT:          0  itMISS:          0  dtACCESS:          0  dtHIT:          0  dtMISS:          0
cpu0_STLB WRITE        ACCESS:          0  HIT:          0  MISS:          0  iACCESS:          0  iHIT:          0  iMISS:          0  dACCESS:          0  dHIT:          0  dMISS:          0  itACCESS:          0  itHIT:          0  itMISS:          0  dtACCESS:          0  dtHIT:          0  dtMISS:          0
cpu0_STLB TRANSLATION  ACCESS:          0  HIT:          0  MISS:          0  iACCESS:          0  iHIT:          0  iMISS:          0  dACCESS:          0  dHIT:          0  dMISS:          0  itACCESS:          0  itHIT:          0  itMISS:          0  dtACCESS:          0  dtHIT:          0  dtMISS:          0
cpu0_STLB PREFETCH  REQUESTED:          0  ISSUED:          0  CROSSED:          0  USEFUL:          0  USELESS:          0
cpu0_STLB AVERAGE iMISS LATENCY: 51.8687 cycles
cpu0_STLB AVERAGE dMISS LATENCY: 191.887 cycles
cpu0_STLB AVERAGE itMISS LATENCY: 0 cycles
cpu0_STLB AVERAGE dtMISS LATENCY: 0 cycles
cpu0_STLB PAGE CROSSINGS (TLB HIT):         0 
cpu0_STLB PAGE CROSSINGS (TLB MISS):         0 
cpu0_STLB AVERAGE MISS LATENCY: 243.756 cycles
cpu0_L1D TOTAL       ACCESS:   45753891  HIT:   39678823  MISS:    6075068  iACCESS:          0  iHIT:          0  iMISS:          0  dACCESS:   45180896  dHIT:   39645420  dMISS:    5535476  itACCESS:     134863  itHIT:      14314  itMISS:     120549  dtACCESS:     438132  dtHIT:      19089  dtMISS:     419043
cpu0_L1D LOAD         ACCESS:   20692020  HIT:   18189507  MISS:    2502513  iACCESS:          0  iHIT:          0  iMISS:          0  dACCESS:   20692020  dHIT:   18189507  dMISS:    2502513  itACCESS:          0  itHIT:          0  itMISS:          0  dtACCESS:          0  dtHIT:          0  dtMISS:          0
cpu0_L1D RFO          ACCESS:          0  HIT:          0  MISS:          0  iACCESS:          0  iHIT:          0  iMISS:          0  dACCESS:          0  dHIT:          0  dMISS:          0  itACCESS:          0  itHIT:          0  itMISS:          0  dtACCESS:          0  dtHIT:          0  dtMISS:          0
cpu0_L1D PREFETCH     ACCESS:   14370556  HIT:   11929839  MISS:    2440717  iACCESS:          0  iHIT:          0  iMISS:          0  dACCESS:   14370556  dHIT:   11929839  dMISS:    2440717  itACCESS:          0  itHIT:          0  itMISS:          0  dtACCESS:          0  dtHIT:          0  dtMISS:          0
cpu0_L1D WRITE        ACCESS:   10118320  HIT:    9526074  MISS:     592246  iACCESS:          0  iHIT:          0  iMISS:          0  dACCESS:   10118320  dHIT:    9526074  dMISS:     592246  itACCESS:          0  itHIT:          0  itMISS:          0  dtACCESS:          0  dtHIT:          0  dtMISS:          0
cpu0_L1D TRANSLATION  ACCESS:     572995  HIT:      33403  MISS:     539592  iACCESS:          0  iHIT:          0  iMISS:          0  dACCESS:          0  dHIT:          0  dMISS:          0  itACCESS:     134863  itHIT:      14314  itMISS:     120549  dtACCESS:     438132  dtHIT:      19089  dtMISS:     419043
cpu0_L1D PREFETCH  REQUESTED:   20692020  ISSUED:   18878221  CROSSED:          0  USEFUL:     380402  USELESS:     959691
cpu0_L1D AVERAGE iMISS LATENCY: 0 cycles
cpu0_L1D AVERAGE dMISS LATENCY: 49.737 cycles
cpu0_L1D AVERAGE itMISS LATENCY: 3.18161 cycles
cpu0_L1D AVERAGE dtMISS LATENCY: 11.6829 cycles
cpu0_L1D PAGE CROSSINGS (TLB HIT):         0 
cpu0_L1D PAGE CROSSINGS (TLB MISS):         0 
cpu0_L1D AVERAGE MISS LATENCY: 64.6015 cycles
cpu0_L2C TOTAL       ACCESS:    8811890  HIT:    4098195  MISS:    4713695  iACCESS:    3834451  iHIT:    2229521  iMISS:    1604930  dACCESS:    4469739  dHIT:    1802815  dMISS:    2666924  itACCESS:     120260  itHIT:      22249  itMISS:      98011  dtACCESS:     387440  dtHIT:      43610  dtMISS:     343830
cpu0_L2C LOAD         ACCESS:    2114396  HIT:     978592  MISS:    1135804  iACCESS:     856677  iHIT:     516271  iMISS:     340406  dACCESS:    1257719  dHIT:     462321  dMISS:     795398  itACCESS:          0  itHIT:          0  itMISS:          0  dtACCESS:          0  dtHIT:          0  dtMISS:          0
cpu0_L2C RFO          ACCESS:     225093  HIT:      84801  MISS:     140292  iACCESS:          0  iHIT:          0  iMISS:          0  dACCESS:     225093  dHIT:      84801  dMISS:     140292  itACCESS:          0  itHIT:          0  itMISS:          0  dtACCESS:          0  dtHIT:          0  dtMISS:          0
cpu0_L2C PREFETCH     ACCESS:    5614729  HIT:    2638493  MISS:    2976236  iACCESS:    2977774  iHIT:    1713250  iMISS:    1264524  dACCESS:    2636955  dHIT:     925243  dMISS:    1711712  itACCESS:          0  itHIT:          0  itMISS:          0  dtACCESS:          0  dtHIT:          0  dtMISS:          0
cpu0_L2C WRITE        ACCESS:     349972  HIT:     330450  MISS:      19522  iACCESS:          0  iHIT:          0  iMISS:          0  dACCESS:     349972  dHIT:     330450  dMISS:      19522  itACCESS:          0  itHIT:          0  itMISS:          0  dtACCESS:          0  dtHIT:          0  dtMISS:          0
cpu0_L2C TRANSLATION  ACCESS:     507700  HIT:      65859  MISS:     441841  iACCESS:          0  iHIT:          0  iMISS:          0  dACCESS:          0  dHIT:          0  dMISS:          0  itACCESS:     120260  itHIT:      22249  itMISS:      98011  dtACCESS:     387440  dtHIT:      43610  dtMISS:     343830
cpu0_L2C PREFETCH  REQUESTED:    1534375  ISSUED:    1534373  CROSSED:          0  USEFUL:     352578  USELESS:     341563
cpu0_L2C AVERAGE iMISS LATENCY: 40.427 cycles
cpu0_L2C AVERAGE dMISS LATENCY: 79.3173 cycles
cpu0_L2C AVERAGE itMISS LATENCY: 3.84932 cycles
cpu0_L2C AVERAGE dtMISS LATENCY: 14.2397 cycles
cpu0_L2C PAGE CROSSINGS (TLB HIT):         0 
cpu0_L2C PAGE CROSSINGS (TLB MISS):         0 
cpu0_L2C AVERAGE MISS LATENCY: 137.834 cycles
LLC TOTAL       ACCESS:    4692287  HIT:    1441070  MISS:    3251217  iACCESS:    1515732  iHIT:     505109  iMISS:    1010623  dACCESS:    2734713  dHIT:     894671  dMISS:    1840042  itACCESS:      98012  itHIT:       7496  itMISS:      90516  dtACCESS:     343830  dtHIT:      33794  dtMISS:     310036
LLC LOAD         ACCESS:    1127395  HIT:     368633  MISS:     758762  iACCESS:     339110  iHIT:     123981  iMISS:     215129  dACCESS:     788285  dHIT:     244652  dMISS:     543633  itACCESS:          0  itHIT:          0  itMISS:          0  dtACCESS:          0  dtHIT:          0  dtMISS:          0
LLC RFO          ACCESS:     140290  HIT:      44000  MISS:      96290  iACCESS:          0  iHIT:          0  iMISS:          0  dACCESS:     140290  dHIT:      44000  dMISS:      96290  itACCESS:          0  itHIT:          0  itMISS:          0  dtACCESS:          0  dtHIT:          0  dtMISS:          0
LLC PREFETCH     ACCESS:    2766028  HIT:     780560  MISS:    1985468  iACCESS:    1176622  iHIT:     381128  iMISS:     795494  dACCESS:    1589406  dHIT:     399432  dMISS:    1189974  itACCESS:          0  itHIT:          0  itMISS:          0  dtACCESS:          0  dtHIT:          0  dtMISS:          0
LLC WRITE        ACCESS:     216732  HIT:     206587  MISS:      10145  iACCESS:          0  iHIT:          0  iMISS:          0  dACCESS:     216732  dHIT:     206587  dMISS:      10145  itACCESS:          0  itHIT:          0  itMISS:          0  dtACCESS:          0  dtHIT:          0  dtMISS:          0
LLC TRANSLATION  ACCESS:     441842  HIT:      41290  MISS:     400552  iACCESS:          0  iHIT:          0  iMISS:          0  dACCESS:          0  dHIT:          0  dMISS:          0  itACCESS:      98012  itHIT:       7496  itMISS:      90516  dtACCESS:     343830  dtHIT:      33794  dtMISS:     310036
LLC PREFETCH  REQUESTED:          0  ISSUED:          0  CROSSED:          0  USEFUL:          0  USELESS:          0
LLC AVERAGE iMISS LATENCY: 49.4288 cycles
LLC AVERAGE dMISS LATENCY: 100.703 cycles
LLC AVERAGE itMISS LATENCY: 4.98306 cycles
LLC AVERAGE dtMISS LATENCY: 18.5534 cycles
LLC PAGE CROSSINGS (TLB HIT):         0 
LLC PAGE CROSSINGS (TLB MISS):         0 
LLC AVERAGE MISS LATENCY: 173.668 cycles

PageTableWalker TOTAL       ACCESS:     193975  
PageTableWalker AVERAGE LATENCY: 6.3872 cycles
PageTableWalker TOTAL LATENCY: 1238956 cycles

DRAM Statistics
Channel 0
 RQ ROW_BUFFER_HIT:     673081
  ROW_BUFFER_MISS:    2547670
 AVG DBUS CONGESTED CYCLE:    3.65121
 WQ ROW_BUFFER_HIT:      69275
  ROW_BUFFER_MISS:      58165  FULL:          0

