last_page:0x200000000000000
VMEM_RES_CAP:0x100000
PAGE_SIZE:4096
LOG2_PAGE_SIZE:12
LOG2_PAGE_TABLE_SIZE:9
page_table_levels:5
WARNING: physical memory size is smaller than virtual memory size
FDiP enabled with aggresivity 16

*** ChampSim Multicore Out-of-Order Simulator ***

Warmup Instructions: 50000000
Simulation Instructions: 100000000
Number of CPUs: 1
Small page size: 4096
Large page size: 2097152

CPU 0 Bimodal branch predictor
Basic BTB sets: 1024 ways: 8 indirect buffer size: 4096 RAS size: 64
Instruction page size distrubution: 0
Loading instruction page size distribution from /home/bsc/bsc018186/scratch/itp_asplos25_AE/dump/smt_srv207_ap_srv582_ap_1024i.pdst
Data page size distrubution: 0
Loading data page size distribution from /home/bsc/bsc018186/scratch/itp_asplos25_AE/dump/smt_srv207_ap_srv582_ap_1024i.pdst
cpu0_L2C IP-based stride prefetcher
cpu0_L1D next line prefetcher
cpu0_L1I next line prefetcher
Off-chip DRAM Size: 4 GiB Channels: 1 Width: 64-bit Data Rate: 3200 MT/s
Heartbeat CPU 0 instructions: 10000001 cycles: 2500601 heartbeat IPC: 3.99904 cumulative IPC: 3.99904 (Simulation time: 0 hr 0 min 39 sec) 
Heartbeat CPU 0 instructions: 20000000 cycles: 5001025 heartbeat IPC: 3.99933 cumulative IPC: 3.99919 (Simulation time: 0 hr 1 min 21 sec) 
Heartbeat CPU 0 instructions: 30000000 cycles: 7501456 heartbeat IPC: 3.99932 cumulative IPC: 3.99923 (Simulation time: 0 hr 2 min 4 sec) 
Heartbeat CPU 0 instructions: 40000002 cycles: 10001733 heartbeat IPC: 3.99956 cumulative IPC: 3.99931 (Simulation time: 0 hr 2 min 51 sec) 
Heartbeat CPU 0 instructions: 50000001 cycles: 12502195 heartbeat IPC: 3.99927 cumulative IPC: 3.9993 (Simulation time: 0 hr 3 min 38 sec) 
Warmup finished CPU 0 instructions: 50000001 cycles: 12502196 cumulative IPC: 3.9993 (Simulation time: 0 hr 3 min 38 sec) 

Warmup complete CPU 0 instructions: 50000001 cycles: 12502196 (Simulation time: 0 hr 3 min 38 sec) 

Heartbeat CPU 0 instructions: 60000002 cycles: 41125512 heartbeat IPC: 0.349366 cumulative IPC: 0.349366 (Simulation time: 0 hr 5 min 15 sec) 
Heartbeat CPU 0 instructions: 70000000 cycles: 70095662 heartbeat IPC: 0.345183 cumulative IPC: 0.347262 (Simulation time: 0 hr 6 min 52 sec) 
Heartbeat CPU 0 instructions: 80000000 cycles: 98831318 heartbeat IPC: 0.348 cumulative IPC: 0.347508 (Simulation time: 0 hr 8 min 29 sec) 
Heartbeat CPU 0 instructions: 90000003 cycles: 128016453 heartbeat IPC: 0.342641 cumulative IPC: 0.346278 (Simulation time: 0 hr 10 min 0 sec) 
Heartbeat CPU 0 instructions: 100000002 cycles: 157070168 heartbeat IPC: 0.344191 cumulative IPC: 0.345859 (Simulation time: 0 hr 11 min 33 sec) 
Heartbeat CPU 0 instructions: 110000004 cycles: 185928463 heartbeat IPC: 0.346521 cumulative IPC: 0.345969 (Simulation time: 0 hr 13 min 8 sec) 
Heartbeat CPU 0 instructions: 120000004 cycles: 214527120 heartbeat IPC: 0.349667 cumulative IPC: 0.346492 (Simulation time: 0 hr 14 min 43 sec) 
Heartbeat CPU 0 instructions: 130000000 cycles: 242820410 heartbeat IPC: 0.353441 cumulative IPC: 0.347346 (Simulation time: 0 hr 16 min 17 sec) 
Heartbeat CPU 0 instructions: 140000002 cycles: 272208710 heartbeat IPC: 0.340272 cumulative IPC: 0.346546 (Simulation time: 0 hr 17 min 53 sec) 
Heartbeat CPU 0 instructions: 150000000 cycles: 299667614 heartbeat IPC: 0.364181 cumulative IPC: 0.348232 (Simulation time: 0 hr 19 min 27 sec) 
Simulation finished CPU 0 instructions: 100000004 cycles: 287165420 cumulative IPC: 0.348232 (Simulation time: 0 hr 19 min 27 sec) 

Simulation complete CPU 0 instructions: 100000004 cycles: 287165420 (Simulation time: 0 hr 19 min 27 sec) 


ChampSim completed all CPUs

Saving instructions large page distribution to /home/bsc/bsc018186/scratch/itp_asplos25_AE/dump/smt_srv207_ap_srv582_ap_1024i.pdst...
Saving data large page distribution to /home/bsc/bsc018186/scratch/itp_asplos25_AE/dump/smt_srv207_ap_srv582_ap_1024i.pdst...
=== Simulation ===
CPU 0 runs /gpfs/projects/bsc18/MN4/bsc18/romol/ChampSim/traces/qualcomm_srv/smt_srv207_ap_srv582_ap_1024i.champsimtrace.xz

Region of Interest Statistics

CPU 0 cumulative IPC: 0.348232 instructions: 100000004 cycles: 287165420
CPU 0 Branch Prediction Accuracy: 74.6154% MPKI: 45.7265 Average ROB Occupancy at Mispredict: 10.4588
Branch type MPKI
BRANCH_DIRECT_JUMP: 1.42659
BRANCH_INDIRECT: 24.0265
BRANCH_CONDITIONAL: 12.9323
BRANCH_DIRECT_CALL: 2.7132
BRANCH_INDIRECT_CALL: 1.03808
BRANCH_RETURN: 3.5899

Instructions large pages: 0
Instructions small pages: 11471
Large page distribution for instructions: 0%

Data large pages: 0
Data small pages: 9974
Large page distribution for data: 0%

cpu0_L1I TOTAL       ACCESS:   39506305  HIT:   30221691  MISS:    9284614  iACCESS:   39506305  iHIT:   30221691  iMISS:    9284614  dACCESS:          0  dHIT:          0  dMISS:          0  itACCESS:          0  itHIT:          0  itMISS:          0  dtACCESS:          0  dtHIT:          0  dtMISS:          0
cpu0_L1I LOAD         ACCESS:   11682439  HIT:    9158105  MISS:    2524334  iACCESS:   11682439  iHIT:    9158105  iMISS:    2524334  dACCESS:          0  dHIT:          0  dMISS:          0  itACCESS:          0  itHIT:          0  itMISS:          0  dtACCESS:          0  dtHIT:          0  dtMISS:          0
cpu0_L1I RFO          ACCESS:          0  HIT:          0  MISS:          0  iACCESS:          0  iHIT:          0  iMISS:          0  dACCESS:          0  dHIT:          0  dMISS:          0  itACCESS:          0  itHIT:          0  itMISS:          0  dtACCESS:          0  dtHIT:          0  dtMISS:          0
cpu0_L1I PREFETCH     ACCESS:   27823866  HIT:   21063586  MISS:    6760280  iACCESS:   27823866  iHIT:   21063586  iMISS:    6760280  dACCESS:          0  dHIT:          0  dMISS:          0  itACCESS:          0  itHIT:          0  itMISS:          0  dtACCESS:          0  dtHIT:          0  dtMISS:          0
cpu0_L1I WRITE        ACCESS:          0  HIT:          0  MISS:          0  iACCESS:          0  iHIT:          0  iMISS:          0  dACCESS:          0  dHIT:          0  dMISS:          0  itACCESS:          0  itHIT:          0  itMISS:          0  dtACCESS:          0  dtHIT:          0  dtMISS:          0
cpu0_L1I TRANSLATION  ACCESS:          0  HIT:          0  MISS:          0  iACCESS:          0  iHIT:          0  iMISS:          0  dACCESS:          0  dHIT:          0  dMISS:          0  itACCESS:          0  itHIT:          0  itMISS:          0  dtACCESS:          0  dtHIT:          0  dtMISS:          0
cpu0_L1I PREFETCH  REQUESTED:   30354695  ISSUED:   30353308  CROSSED:          0  USEFUL:    2221938  USELESS:     797286
cpu0_L1I AVERAGE iMISS LATENCY: 24.5671 cycles
cpu0_L1I AVERAGE dMISS LATENCY: 0 cycles
cpu0_L1I AVERAGE itMISS LATENCY: 0 cycles
cpu0_L1I AVERAGE dtMISS LATENCY: 0 cycles
cpu0_L1I PAGE CROSSINGS (TLB HIT):         0 
cpu0_L1I PAGE CROSSINGS (TLB MISS):         0 
cpu0_L1I AVERAGE MISS LATENCY: 24.5671 cycles
cpu0_ITLB TOTAL       ACCESS:   33324215  HIT:   31048050  MISS:    2276165  iACCESS:   33324215  iHIT:   31048050  iMISS:    2276165  dACCESS:          0  dHIT:          0  dMISS:          0  itACCESS:          0  itHIT:          0  itMISS:          0  dtACCESS:          0  dtHIT:          0  dtMISS:          0
cpu0_ITLB LOAD         ACCESS:   33324215  HIT:   31048050  MISS:    2276165  iACCESS:   33324215  iHIT:   31048050  iMISS:    2276165  dACCESS:          0  dHIT:          0  dMISS:          0  itACCESS:          0  itHIT:          0  itMISS:          0  dtACCESS:          0  dtHIT:          0  dtMISS:          0
cpu0_ITLB RFO          ACCESS:          0  HIT:          0  MISS:          0  iACCESS:          0  iHIT:          0  iMISS:          0  dACCESS:          0  dHIT:          0  dMISS:          0  itACCESS:          0  itHIT:          0  itMISS:          0  dtACCESS:          0  dtHIT:          0  dtMISS:          0
cpu0_ITLB PREFETCH     ACCESS:          0  HIT:          0  MISS:          0  iACCESS:          0  iHIT:          0  iMISS:          0  dACCESS:          0  dHIT:          0  dMISS:          0  itACCESS:          0  itHIT:          0  itMISS:          0  dtACCESS:          0  dtHIT:          0  dtMISS:          0
cpu0_ITLB WRITE        ACCESS:          0  HIT:          0  MISS:          0  iACCESS:          0  iHIT:          0  iMISS:          0  dACCESS:          0  dHIT:          0  dMISS:          0  itACCESS:          0  itHIT:          0  itMISS:          0  dtACCESS:          0  dtHIT:          0  dtMISS:          0
cpu0_ITLB TRANSLATION  ACCESS:          0  HIT:          0  MISS:          0  iACCESS:          0  iHIT:          0  iMISS:          0  dACCESS:          0  dHIT:          0  dMISS:          0  itACCESS:          0  itHIT:          0  itMISS:          0  dtACCESS:          0  dtHIT:          0  dtMISS:          0
cpu0_ITLB PREFETCH  REQUESTED:          0  ISSUED:          0  CROSSED:          0  USEFUL:     401677  USELESS:      82659
cpu0_ITLB AVERAGE iMISS LATENCY: 8.23114 cycles
cpu0_ITLB AVERAGE dMISS LATENCY: 0 cycles
cpu0_ITLB AVERAGE itMISS LATENCY: 0 cycles
cpu0_ITLB AVERAGE dtMISS LATENCY: 0 cycles
cpu0_ITLB PAGE CROSSINGS (TLB HIT):         0 
cpu0_ITLB PAGE CROSSINGS (TLB MISS):         0 
cpu0_ITLB AVERAGE MISS LATENCY: 8.23114 cycles
cpu0_DTLB TOTAL       ACCESS:   29250673  HIT:   25727766  MISS:    3522907  iACCESS:          0  iHIT:          0  iMISS:          0  dACCESS:   29250673  dHIT:   25727766  dMISS:    3522907  itACCESS:          0  itHIT:          0  itMISS:          0  dtACCESS:          0  dtHIT:          0  dtMISS:          0
cpu0_DTLB LOAD         ACCESS:   29250673  HIT:   25727766  MISS:    3522907  iACCESS:          0  iHIT:          0  iMISS:          0  dACCESS:   29250673  dHIT:   25727766  dMISS:    3522907  itACCESS:          0  itHIT:          0  itMISS:          0  dtACCESS:          0  dtHIT:          0  dtMISS:          0
cpu0_DTLB RFO          ACCESS:          0  HIT:          0  MISS:          0  iACCESS:          0  iHIT:          0  iMISS:          0  dACCESS:          0  dHIT:          0  dMISS:          0  itACCESS:          0  itHIT:          0  itMISS:          0  dtACCESS:          0  dtHIT:          0  dtMISS:          0
cpu0_DTLB PREFETCH     ACCESS:          0  HIT:          0  MISS:          0  iACCESS:          0  iHIT:          0  iMISS:          0  dACCESS:          0  dHIT:          0  dMISS:          0  itACCESS:          0  itHIT:          0  itMISS:          0  dtACCESS:          0  dtHIT:          0  dtMISS:          0
cpu0_DTLB WRITE        ACCESS:          0  HIT:          0  MISS:          0  iACCESS:          0  iHIT:          0  iMISS:          0  dACCESS:          0  dHIT:          0  dMISS:          0  itACCESS:          0  itHIT:          0  itMISS:          0  dtACCESS:          0  dtHIT:          0  dtMISS:          0
cpu0_DTLB TRANSLATION  ACCESS:          0  HIT:          0  MISS:          0  iACCESS:          0  iHIT:          0  iMISS:          0  dACCESS:          0  dHIT:          0  dMISS:          0  itACCESS:          0  itHIT:          0  itMISS:          0  dtACCESS:          0  dtHIT:          0  dtMISS:          0
cpu0_DTLB PREFETCH  REQUESTED:          0  ISSUED:          0  CROSSED:          0  USEFUL:          0  USELESS:          0
cpu0_DTLB AVERAGE iMISS LATENCY: 0 cycles
cpu0_DTLB AVERAGE dMISS LATENCY: 18.0006 cycles
cpu0_DTLB AVERAGE itMISS LATENCY: 0 cycles
cpu0_DTLB AVERAGE dtMISS LATENCY: 0 cycles
cpu0_DTLB PAGE CROSSINGS (TLB HIT):         0 
cpu0_DTLB PAGE CROSSINGS (TLB MISS):         0 
cpu0_DTLB AVERAGE MISS LATENCY: 18.0006 cycles
cpu0_STLB TOTAL       ACCESS:    2569058  HIT:    2178991  MISS:     390067  iACCESS:     484348  iHIT:     365333  iMISS:     119015  dACCESS:    2084710  dHIT:    1813658  dMISS:     271052  itACCESS:          0  itHIT:          0  itMISS:          0  dtACCESS:          0  dtHIT:          0  dtMISS:          0
cpu0_STLB LOAD         ACCESS:    2569058  HIT:    2178991  MISS:     390067  iACCESS:     484348  iHIT:     365333  iMISS:     119015  dACCESS:    2084710  dHIT:    1813658  dMISS:     271052  itACCESS:          0  itHIT:          0  itMISS:          0  dtACCESS:          0  dtHIT:          0  dtMISS:          0
cpu0_STLB RFO          ACCESS:          0  HIT:          0  MISS:          0  iACCESS:          0  iHIT:          0  iMISS:          0  dACCESS:          0  dHIT:          0  dMISS:          0  itACCESS:          0  itHIT:          0  itMISS:          0  dtACCESS:          0  dtHIT:          0  dtMISS:          0
cpu0_STLB PREFETCH     ACCESS:          0  HIT:          0  MISS:          0  iACCESS:          0  iHIT:          0  iMISS:          0  dACCESS:          0  dHIT:          0  dMISS:          0  itACCESS:          0  itHIT:          0  itMISS:          0  dtACCESS:          0  dtHIT:          0  dtMISS:          0
cpu0_STLB WRITE        ACCESS:          0  HIT:          0  MISS:          0  iACCESS:          0  iHIT:          0  iMISS:          0  dACCESS:          0  dHIT:          0  dMISS:          0  itACCESS:          0  itHIT:          0  itMISS:          0  dtACCESS:          0  dtHIT:          0  dtMISS:          0
cpu0_STLB TRANSLATION  ACCESS:          0  HIT:          0  MISS:          0  iACCESS:          0  iHIT:          0  iMISS:          0  dACCESS:          0  dHIT:          0  dMISS:          0  itACCESS:          0  itHIT:          0  itMISS:          0  dtACCESS:          0  dtHIT:          0  dtMISS:          0
cpu0_STLB PREFETCH  REQUESTED:          0  ISSUED:          0  CROSSED:          0  USEFUL:          0  USELESS:          0
cpu0_STLB AVERAGE iMISS LATENCY: 38.1032 cycles
cpu0_STLB AVERAGE dMISS LATENCY: 119.601 cycles
cpu0_STLB AVERAGE itMISS LATENCY: 0 cycles
cpu0_STLB AVERAGE dtMISS LATENCY: 0 cycles
cpu0_STLB PAGE CROSSINGS (TLB HIT):         0 
cpu0_STLB PAGE CROSSINGS (TLB MISS):         0 
cpu0_STLB AVERAGE MISS LATENCY: 157.704 cycles
cpu0_L1D TOTAL       ACCESS:   45796371  HIT:   39707712  MISS:    6088659  iACCESS:          0  iHIT:          0  iMISS:          0  dACCESS:   45230557  dHIT:   39674632  dMISS:    5555925  itACCESS:     133008  itHIT:      13930  itMISS:     119078  dtACCESS:     432806  dtHIT:      19150  dtMISS:     413656
cpu0_L1D LOAD         ACCESS:   20717087  HIT:   18207165  MISS:    2509922  iACCESS:          0  iHIT:          0  iMISS:          0  dACCESS:   20717087  dHIT:   18207165  dMISS:    2509922  itACCESS:          0  itHIT:          0  itMISS:          0  dtACCESS:          0  dtHIT:          0  dtMISS:          0
cpu0_L1D RFO          ACCESS:          0  HIT:          0  MISS:          0  iACCESS:          0  iHIT:          0  iMISS:          0  dACCESS:          0  dHIT:          0  dMISS:          0  itACCESS:          0  itHIT:          0  itMISS:          0  dtACCESS:          0  dtHIT:          0  dtMISS:          0
cpu0_L1D PREFETCH     ACCESS:   14386450  HIT:   11941884  MISS:    2444566  iACCESS:          0  iHIT:          0  iMISS:          0  dACCESS:   14386450  dHIT:   11941884  dMISS:    2444566  itACCESS:          0  itHIT:          0  itMISS:          0  dtACCESS:          0  dtHIT:          0  dtMISS:          0
cpu0_L1D WRITE        ACCESS:   10127020  HIT:    9525583  MISS:     601437  iACCESS:          0  iHIT:          0  iMISS:          0  dACCESS:   10127020  dHIT:    9525583  dMISS:     601437  itACCESS:          0  itHIT:          0  itMISS:          0  dtACCESS:          0  dtHIT:          0  dtMISS:          0
cpu0_L1D TRANSLATION  ACCESS:     565814  HIT:      33080  MISS:     532734  iACCESS:          0  iHIT:          0  iMISS:          0  dACCESS:          0  dHIT:          0  dMISS:          0  itACCESS:     133008  itHIT:      13930  itMISS:     119078  dtACCESS:     432806  dtHIT:      19150  dtMISS:     413656
cpu0_L1D PREFETCH  REQUESTED:   20717087  ISSUED:   18886999  CROSSED:          0  USEFUL:     379622  USELESS:     956568
cpu0_L1D AVERAGE iMISS LATENCY: 0 cycles
cpu0_L1D AVERAGE dMISS LATENCY: 50.4259 cycles
cpu0_L1D AVERAGE itMISS LATENCY: 2.25818 cycles
cpu0_L1D AVERAGE dtMISS LATENCY: 6.9109 cycles
cpu0_L1D PAGE CROSSINGS (TLB HIT):         0 
cpu0_L1D PAGE CROSSINGS (TLB MISS):         0 
cpu0_L1D AVERAGE MISS LATENCY: 59.595 cycles
cpu0_L2C TOTAL       ACCESS:    8796239  HIT:    1505795  MISS:    7290444  iACCESS:    3840039  iHIT:     787008  iMISS:    3053031  dACCESS:    4455476  dHIT:     525146  dMISS:    3930330  itACCESS:     118692  itHIT:      39202  itMISS:      79490  dtACCESS:     382032  dtHIT:     154439  dtMISS:     227593
cpu0_L2C LOAD         ACCESS:    2106998  HIT:     198343  MISS:    1908655  iACCESS:     854201  iHIT:     109749  iMISS:     744452  dACCESS:    1252797  dHIT:      88594  dMISS:    1164203  itACCESS:          0  itHIT:          0  itMISS:          0  dtACCESS:          0  dtHIT:          0  dtMISS:          0
cpu0_L2C RFO          ACCESS:     225290  HIT:      26992  MISS:     198298  iACCESS:          0  iHIT:          0  iMISS:          0  dACCESS:     225290  dHIT:      26992  dMISS:     198298  itACCESS:          0  itHIT:          0  itMISS:          0  dtACCESS:          0  dtHIT:          0  dtMISS:          0
cpu0_L2C PREFETCH     ACCESS:    5614476  HIT:     986919  MISS:    4627557  iACCESS:    2985838  iHIT:     677259  iMISS:    2308579  dACCESS:    2628638  dHIT:     309660  dMISS:    2318978  itACCESS:          0  itHIT:          0  itMISS:          0  dtACCESS:          0  dtHIT:          0  dtMISS:          0
cpu0_L2C WRITE        ACCESS:     348751  HIT:      99900  MISS:     248851  iACCESS:          0  iHIT:          0  iMISS:          0  dACCESS:     348751  dHIT:      99900  dMISS:     248851  itACCESS:          0  itHIT:          0  itMISS:          0  dtACCESS:          0  dtHIT:          0  dtMISS:          0
cpu0_L2C TRANSLATION  ACCESS:     500724  HIT:     193641  MISS:     307083  iACCESS:          0  iHIT:          0  iMISS:          0  dACCESS:          0  dHIT:          0  dMISS:          0  itACCESS:     118692  itHIT:      39202  itMISS:      79490  dtACCESS:     382032  dtHIT:     154439  dtMISS:     227593
cpu0_L2C PREFETCH  REQUESTED:    1530944  ISSUED:    1530944  CROSSED:          0  USEFUL:     405545  USELESS:     500263
cpu0_L2C AVERAGE iMISS LATENCY: 26.8118 cycles
cpu0_L2C AVERAGE dMISS LATENCY: 51.3161 cycles
cpu0_L2C AVERAGE itMISS LATENCY: 1.72807 cycles
cpu0_L2C AVERAGE dtMISS LATENCY: 5.26653 cycles
cpu0_L2C PAGE CROSSINGS (TLB HIT):         0 
cpu0_L2C PAGE CROSSINGS (TLB MISS):         0 
cpu0_L2C AVERAGE MISS LATENCY: 85.1224 cycles
LLC TOTAL       ACCESS:    7106969  HIT:    4273786  MISS:    2833183  iACCESS:    2964954  iHIT:    2091231  iMISS:     873723  dACCESS:    3834932  dHIT:    2114457  dMISS:    1720475  itACCESS:      79490  itHIT:      17952  itMISS:      61538  dtACCESS:     227593  dtHIT:      50146  dtMISS:     177447
LLC LOAD         ACCESS:    1900244  HIT:    1203641  MISS:     696603  iACCESS:     743101  iHIT:     558673  iMISS:     184428  dACCESS:    1157143  dHIT:     644968  dMISS:     512175  itACCESS:          0  itHIT:          0  itMISS:          0  dtACCESS:          0  dtHIT:          0  dtMISS:          0
LLC RFO          ACCESS:     198284  HIT:     102281  MISS:      96003  iACCESS:          0  iHIT:          0  iMISS:          0  dACCESS:     198284  dHIT:     102281  dMISS:      96003  itACCESS:          0  itHIT:          0  itMISS:          0  dtACCESS:          0  dtHIT:          0  dtMISS:          0
LLC PREFETCH     ACCESS:    4417652  HIT:    2621724  MISS:    1795928  iACCESS:    2221853  iHIT:    1532558  iMISS:     689295  dACCESS:    2195799  dHIT:    1089166  dMISS:    1106633  itACCESS:          0  itHIT:          0  itMISS:          0  dtACCESS:          0  dtHIT:          0  dtMISS:          0
LLC WRITE        ACCESS:     283706  HIT:     278042  MISS:       5664  iACCESS:          0  iHIT:          0  iMISS:          0  dACCESS:     283706  dHIT:     278042  dMISS:       5664  itACCESS:          0  itHIT:          0  itMISS:          0  dtACCESS:          0  dtHIT:          0  dtMISS:          0
LLC TRANSLATION  ACCESS:     307083  HIT:      68098  MISS:     238985  iACCESS:          0  iHIT:          0  iMISS:          0  dACCESS:          0  dHIT:          0  dMISS:          0  itACCESS:      79490  itHIT:      17952  itMISS:      61538  dtACCESS:     227593  dtHIT:      50146  dtMISS:     177447
LLC PREFETCH  REQUESTED:          0  ISSUED:          0  CROSSED:          0  USEFUL:          0  USELESS:          0
LLC AVERAGE iMISS LATENCY: 48.6682 cycles
LLC AVERAGE dMISS LATENCY: 108.607 cycles
LLC AVERAGE itMISS LATENCY: 3.89378 cycles
LLC AVERAGE dtMISS LATENCY: 11.9696 cycles
LLC PAGE CROSSINGS (TLB HIT):         0 
LLC PAGE CROSSINGS (TLB MISS):         0 
LLC AVERAGE MISS LATENCY: 173.138 cycles

PageTableWalker TOTAL       ACCESS:     193901  
PageTableWalker AVERAGE LATENCY: 5.92119 cycles
PageTableWalker TOTAL LATENCY: 1148124 cycles

DRAM Statistics
Channel 0
 RQ ROW_BUFFER_HIT:     615777
  ROW_BUFFER_MISS:    2191178
 AVG DBUS CONGESTED CYCLE:    3.65465
 WQ ROW_BUFFER_HIT:      69489
  ROW_BUFFER_MISS:      66042  FULL:          0

