last_page:0x200000000000000
VMEM_RES_CAP:0x100000
PAGE_SIZE:4096
LOG2_PAGE_SIZE:12
LOG2_PAGE_TABLE_SIZE:9
page_table_levels:5
WARNING: physical memory size is smaller than virtual memory size
FDiP enabled with aggresivity 16

*** ChampSim Multicore Out-of-Order Simulator ***

Warmup Instructions: 50000000
Simulation Instructions: 100000000
Number of CPUs: 1
Small page size: 4096
Large page size: 2097152

CPU 0 Bimodal branch predictor
Basic BTB sets: 1024 ways: 8 indirect buffer size: 4096 RAS size: 64
Instruction page size distrubution: 0
Loading instruction page size distribution from /home/bsc/bsc018186/scratch/itp_asplos25_AE/dump/smt_srv537_ap_srv442_ap_1024i.pdst
Data page size distrubution: 0
Loading data page size distribution from /home/bsc/bsc018186/scratch/itp_asplos25_AE/dump/smt_srv537_ap_srv442_ap_1024i.pdst
cpu0_L2C IP-based stride prefetcher
cpu0_L2C is using PTP replacement policy:
	TLB_STRESS_THRESHOLD:0
	PTE_EVICTION_RATIO:0
cpu0_L1D next line prefetcher
CHiRPing...
cpu0_L1I next line prefetcher
Off-chip DRAM Size: 4 GiB Channels: 1 Width: 64-bit Data Rate: 3200 MT/s
Heartbeat CPU 0 instructions: 10000000 cycles: 2500756 heartbeat IPC: 3.9988 cumulative IPC: 3.9988 (Simulation time: 0 hr 0 min 36 sec) 
Heartbeat CPU 0 instructions: 20000001 cycles: 5001110 heartbeat IPC: 3.99944 cumulative IPC: 3.99912 (Simulation time: 0 hr 1 min 14 sec) 
Heartbeat CPU 0 instructions: 30000001 cycles: 7501508 heartbeat IPC: 3.99937 cumulative IPC: 3.9992 (Simulation time: 0 hr 1 min 52 sec) 
Heartbeat CPU 0 instructions: 40000000 cycles: 10001689 heartbeat IPC: 3.99972 cumulative IPC: 3.99933 (Simulation time: 0 hr 2 min 31 sec) 
Heartbeat CPU 0 instructions: 50000002 cycles: 12502142 heartbeat IPC: 3.99928 cumulative IPC: 3.99932 (Simulation time: 0 hr 3 min 9 sec) 
Warmup finished CPU 0 instructions: 50000002 cycles: 12502143 cumulative IPC: 3.99932 (Simulation time: 0 hr 3 min 9 sec) 

Warmup complete CPU 0 instructions: 50000002 cycles: 12502143 (Simulation time: 0 hr 3 min 9 sec) 

Heartbeat CPU 0 instructions: 60000000 cycles: 41037744 heartbeat IPC: 0.35044 cumulative IPC: 0.35044 (Simulation time: 0 hr 4 min 29 sec) 
Heartbeat CPU 0 instructions: 70000004 cycles: 69791598 heartbeat IPC: 0.34778 cumulative IPC: 0.349105 (Simulation time: 0 hr 5 min 49 sec) 
Heartbeat CPU 0 instructions: 80000003 cycles: 97420096 heartbeat IPC: 0.361946 cumulative IPC: 0.353283 (Simulation time: 0 hr 7 min 8 sec) 
Heartbeat CPU 0 instructions: 90000000 cycles: 125846373 heartbeat IPC: 0.351788 cumulative IPC: 0.352908 (Simulation time: 0 hr 8 min 28 sec) 
Heartbeat CPU 0 instructions: 100000003 cycles: 154772289 heartbeat IPC: 0.345711 cumulative IPC: 0.351445 (Simulation time: 0 hr 9 min 49 sec) 
Heartbeat CPU 0 instructions: 110000003 cycles: 184244437 heartbeat IPC: 0.339304 cumulative IPC: 0.349361 (Simulation time: 0 hr 11 min 10 sec) 
Heartbeat CPU 0 instructions: 120000002 cycles: 213435706 heartbeat IPC: 0.342569 cumulative IPC: 0.348374 (Simulation time: 0 hr 12 min 32 sec) 
Heartbeat CPU 0 instructions: 130000001 cycles: 242132754 heartbeat IPC: 0.348468 cumulative IPC: 0.348386 (Simulation time: 0 hr 13 min 52 sec) 
Heartbeat CPU 0 instructions: 140000003 cycles: 270107229 heartbeat IPC: 0.357469 cumulative IPC: 0.349372 (Simulation time: 0 hr 15 min 12 sec) 
Heartbeat CPU 0 instructions: 150000002 cycles: 299307784 heartbeat IPC: 0.34246 cumulative IPC: 0.348669 (Simulation time: 0 hr 16 min 33 sec) 
Simulation finished CPU 0 instructions: 100000000 cycles: 286805642 cumulative IPC: 0.348669 (Simulation time: 0 hr 16 min 33 sec) 

Simulation complete CPU 0 instructions: 100000000 cycles: 286805642 (Simulation time: 0 hr 16 min 33 sec) 


ChampSim completed all CPUs

Saving instructions large page distribution to /home/bsc/bsc018186/scratch/itp_asplos25_AE/dump/smt_srv537_ap_srv442_ap_1024i.pdst...
Saving data large page distribution to /home/bsc/bsc018186/scratch/itp_asplos25_AE/dump/smt_srv537_ap_srv442_ap_1024i.pdst...
=== Simulation ===
CPU 0 runs /gpfs/projects/bsc18/MN4/bsc18/romol/ChampSim/traces/qualcomm_srv/smt_srv537_ap_srv442_ap_1024i.champsimtrace.xz

Region of Interest Statistics

CPU 0 cumulative IPC: 0.348669 instructions: 100000000 cycles: 286805642
CPU 0 Branch Prediction Accuracy: 76.4472% MPKI: 42.5537 Average ROB Occupancy at Mispredict: 11.2349
Branch type MPKI
BRANCH_DIRECT_JUMP: 1.30473
BRANCH_INDIRECT: 22.7349
BRANCH_CONDITIONAL: 11.6924
BRANCH_DIRECT_CALL: 2.42253
BRANCH_INDIRECT_CALL: 1.0061
BRANCH_RETURN: 3.39314

Instructions large pages: 0
Instructions small pages: 10371
Large page distribution for instructions: 0%

Data large pages: 0
Data small pages: 9181
Large page distribution for data: 0%

cpu0_L1I TOTAL       ACCESS:   39005154  HIT:   30100452  MISS:    8904702  iACCESS:   39005154  iHIT:   30100452  iMISS:    8904702  dACCESS:          0  dHIT:          0  dMISS:          0  itACCESS:          0  itHIT:          0  itMISS:          0  dtACCESS:          0  dtHIT:          0  dtMISS:          0
cpu0_L1I LOAD         ACCESS:   11715770  HIT:    9261266  MISS:    2454504  iACCESS:   11715770  iHIT:    9261266  iMISS:    2454504  dACCESS:          0  dHIT:          0  dMISS:          0  itACCESS:          0  itHIT:          0  itMISS:          0  dtACCESS:          0  dtHIT:          0  dtMISS:          0
cpu0_L1I RFO          ACCESS:          0  HIT:          0  MISS:          0  iACCESS:          0  iHIT:          0  iMISS:          0  dACCESS:          0  dHIT:          0  dMISS:          0  itACCESS:          0  itHIT:          0  itMISS:          0  dtACCESS:          0  dtHIT:          0  dtMISS:          0
cpu0_L1I PREFETCH     ACCESS:   27289384  HIT:   20839186  MISS:    6450198  iACCESS:   27289384  iHIT:   20839186  iMISS:    6450198  dACCESS:          0  dHIT:          0  dMISS:          0  itACCESS:          0  itHIT:          0  itMISS:          0  dtACCESS:          0  dtHIT:          0  dtMISS:          0
cpu0_L1I WRITE        ACCESS:          0  HIT:          0  MISS:          0  iACCESS:          0  iHIT:          0  iMISS:          0  dACCESS:          0  dHIT:          0  dMISS:          0  itACCESS:          0  itHIT:          0  itMISS:          0  dtACCESS:          0  dtHIT:          0  dtMISS:          0
cpu0_L1I TRANSLATION  ACCESS:          0  HIT:          0  MISS:          0  iACCESS:          0  iHIT:          0  iMISS:          0  dACCESS:          0  dHIT:          0  dMISS:          0  itACCESS:          0  itHIT:          0  itMISS:          0  dtACCESS:          0  dtHIT:          0  dtMISS:          0
cpu0_L1I PREFETCH  REQUESTED:   30160716  ISSUED:   30160571  CROSSED:          0  USEFUL:    2229481  USELESS:     779473
cpu0_L1I AVERAGE iMISS LATENCY: 21.5055 cycles
cpu0_L1I AVERAGE dMISS LATENCY: 0 cycles
cpu0_L1I AVERAGE itMISS LATENCY: 0 cycles
cpu0_L1I AVERAGE dtMISS LATENCY: 0 cycles
cpu0_L1I PAGE CROSSINGS (TLB HIT):         0 
cpu0_L1I PAGE CROSSINGS (TLB MISS):         0 
cpu0_L1I AVERAGE MISS LATENCY: 21.5055 cycles
cpu0_ITLB TOTAL       ACCESS:   32937648  HIT:   30622816  MISS:    2314832  iACCESS:   32937648  iHIT:   30622816  iMISS:    2314832  dACCESS:          0  dHIT:          0  dMISS:          0  itACCESS:          0  itHIT:          0  itMISS:          0  dtACCESS:          0  dtHIT:          0  dtMISS:          0
cpu0_ITLB LOAD         ACCESS:   32937648  HIT:   30622816  MISS:    2314832  iACCESS:   32937648  iHIT:   30622816  iMISS:    2314832  dACCESS:          0  dHIT:          0  dMISS:          0  itACCESS:          0  itHIT:          0  itMISS:          0  dtACCESS:          0  dtHIT:          0  dtMISS:          0
cpu0_ITLB RFO          ACCESS:          0  HIT:          0  MISS:          0  iACCESS:          0  iHIT:          0  iMISS:          0  dACCESS:          0  dHIT:          0  dMISS:          0  itACCESS:          0  itHIT:          0  itMISS:          0  dtACCESS:          0  dtHIT:          0  dtMISS:          0
cpu0_ITLB PREFETCH     ACCESS:          0  HIT:          0  MISS:          0  iACCESS:          0  iHIT:          0  iMISS:          0  dACCESS:          0  dHIT:          0  dMISS:          0  itACCESS:          0  itHIT:          0  itMISS:          0  dtACCESS:          0  dtHIT:          0  dtMISS:          0
cpu0_ITLB WRITE        ACCESS:          0  HIT:          0  MISS:          0  iACCESS:          0  iHIT:          0  iMISS:          0  dACCESS:          0  dHIT:          0  dMISS:          0  itACCESS:          0  itHIT:          0  itMISS:          0  dtACCESS:          0  dtHIT:          0  dtMISS:          0
cpu0_ITLB TRANSLATION  ACCESS:          0  HIT:          0  MISS:          0  iACCESS:          0  iHIT:          0  iMISS:          0  dACCESS:          0  dHIT:          0  dMISS:          0  itACCESS:          0  itHIT:          0  itMISS:          0  dtACCESS:          0  dtHIT:          0  dtMISS:          0
cpu0_ITLB PREFETCH  REQUESTED:          0  ISSUED:          0  CROSSED:          0  USEFUL:     391982  USELESS:      84515
cpu0_ITLB AVERAGE iMISS LATENCY: 9.32148 cycles
cpu0_ITLB AVERAGE dMISS LATENCY: 0 cycles
cpu0_ITLB AVERAGE itMISS LATENCY: 0 cycles
cpu0_ITLB AVERAGE dtMISS LATENCY: 0 cycles
cpu0_ITLB PAGE CROSSINGS (TLB HIT):         0 
cpu0_ITLB PAGE CROSSINGS (TLB MISS):         0 
cpu0_ITLB AVERAGE MISS LATENCY: 9.32148 cycles
cpu0_DTLB TOTAL       ACCESS:   28816698  HIT:   25386052  MISS:    3430646  iACCESS:          0  iHIT:          0  iMISS:          0  dACCESS:   28816698  dHIT:   25386052  dMISS:    3430646  itACCESS:          0  itHIT:          0  itMISS:          0  dtACCESS:          0  dtHIT:          0  dtMISS:          0
cpu0_DTLB LOAD         ACCESS:   28816698  HIT:   25386052  MISS:    3430646  iACCESS:          0  iHIT:          0  iMISS:          0  dACCESS:   28816698  dHIT:   25386052  dMISS:    3430646  itACCESS:          0  itHIT:          0  itMISS:          0  dtACCESS:          0  dtHIT:          0  dtMISS:          0
cpu0_DTLB RFO          ACCESS:          0  HIT:          0  MISS:          0  iACCESS:          0  iHIT:          0  iMISS:          0  dACCESS:          0  dHIT:          0  dMISS:          0  itACCESS:          0  itHIT:          0  itMISS:          0  dtACCESS:          0  dtHIT:          0  dtMISS:          0
cpu0_DTLB PREFETCH     ACCESS:          0  HIT:          0  MISS:          0  iACCESS:          0  iHIT:          0  iMISS:          0  dACCESS:          0  dHIT:          0  dMISS:          0  itACCESS:          0  itHIT:          0  itMISS:          0  dtACCESS:          0  dtHIT:          0  dtMISS:          0
cpu0_DTLB WRITE        ACCESS:          0  HIT:          0  MISS:          0  iACCESS:          0  iHIT:          0  iMISS:          0  dACCESS:          0  dHIT:          0  dMISS:          0  itACCESS:          0  itHIT:          0  itMISS:          0  dtACCESS:          0  dtHIT:          0  dtMISS:          0
cpu0_DTLB TRANSLATION  ACCESS:          0  HIT:          0  MISS:          0  iACCESS:          0  iHIT:          0  iMISS:          0  dACCESS:          0  dHIT:          0  dMISS:          0  itACCESS:          0  itHIT:          0  itMISS:          0  dtACCESS:          0  dtHIT:          0  dtMISS:          0
cpu0_DTLB PREFETCH  REQUESTED:          0  ISSUED:          0  CROSSED:          0  USEFUL:          0  USELESS:          0
cpu0_DTLB AVERAGE iMISS LATENCY: 0 cycles
cpu0_DTLB AVERAGE dMISS LATENCY: 25.4064 cycles
cpu0_DTLB AVERAGE itMISS LATENCY: 0 cycles
cpu0_DTLB AVERAGE dtMISS LATENCY: 0 cycles
cpu0_DTLB PAGE CROSSINGS (TLB HIT):         0 
cpu0_DTLB PAGE CROSSINGS (TLB MISS):         0 
cpu0_DTLB AVERAGE MISS LATENCY: 25.4064 cycles
cpu0_STLB TOTAL       ACCESS:    2428234  HIT:    2065369  MISS:     362865  iACCESS:     476496  iHIT:     369841  iMISS:     106655  dACCESS:    1951738  dHIT:    1695528  dMISS:     256210  itACCESS:          0  itHIT:          0  itMISS:          0  dtACCESS:          0  dtHIT:          0  dtMISS:          0
cpu0_STLB LOAD         ACCESS:    2428234  HIT:    2065369  MISS:     362865  iACCESS:     476496  iHIT:     369841  iMISS:     106655  dACCESS:    1951738  dHIT:    1695528  dMISS:     256210  itACCESS:          0  itHIT:          0  itMISS:          0  dtACCESS:          0  dtHIT:          0  dtMISS:          0
cpu0_STLB RFO          ACCESS:          0  HIT:          0  MISS:          0  iACCESS:          0  iHIT:          0  iMISS:          0  dACCESS:          0  dHIT:          0  dMISS:          0  itACCESS:          0  itHIT:          0  itMISS:          0  dtACCESS:          0  dtHIT:          0  dtMISS:          0
cpu0_STLB PREFETCH     ACCESS:          0  HIT:          0  MISS:          0  iACCESS:          0  iHIT:          0  iMISS:          0  dACCESS:          0  dHIT:          0  dMISS:          0  itACCESS:          0  itHIT:          0  itMISS:          0  dtACCESS:          0  dtHIT:          0  dtMISS:          0
cpu0_STLB WRITE        ACCESS:          0  HIT:          0  MISS:          0  iACCESS:          0  iHIT:          0  iMISS:          0  dACCESS:          0  dHIT:          0  dMISS:          0  itACCESS:          0  itHIT:          0  itMISS:          0  dtACCESS:          0  dtHIT:          0  dtMISS:          0
cpu0_STLB TRANSLATION  ACCESS:          0  HIT:          0  MISS:          0  iACCESS:          0  iHIT:          0  iMISS:          0  dACCESS:          0  dHIT:          0  dMISS:          0  itACCESS:          0  itHIT:          0  itMISS:          0  dtACCESS:          0  dtHIT:          0  dtMISS:          0
cpu0_STLB PREFETCH  REQUESTED:          0  ISSUED:          0  CROSSED:          0  USEFUL:          0  USELESS:          0
cpu0_STLB AVERAGE iMISS LATENCY: 48.989 cycles
cpu0_STLB AVERAGE dMISS LATENCY: 196.944 cycles
cpu0_STLB AVERAGE itMISS LATENCY: 0 cycles
cpu0_STLB AVERAGE dtMISS LATENCY: 0 cycles
cpu0_STLB PAGE CROSSINGS (TLB HIT):         0 
cpu0_STLB PAGE CROSSINGS (TLB MISS):         0 
cpu0_STLB AVERAGE MISS LATENCY: 245.933 cycles
cpu0_L1D TOTAL       ACCESS:   45229437  HIT:   39110885  MISS:    6118552  iACCESS:          0  iHIT:          0  iMISS:          0  dACCESS:   44689113  dHIT:   39080146  dMISS:    5608967  itACCESS:     119504  itHIT:      13200  itMISS:     106304  dtACCESS:     420820  dtHIT:      17539  dtMISS:     403281
cpu0_L1D LOAD         ACCESS:   20390519  HIT:   17857990  MISS:    2532529  iACCESS:          0  iHIT:          0  iMISS:          0  dACCESS:   20390519  dHIT:   17857990  dMISS:    2532529  itACCESS:          0  itHIT:          0  itMISS:          0  dtACCESS:          0  dtHIT:          0  dtMISS:          0
cpu0_L1D RFO          ACCESS:          0  HIT:          0  MISS:          0  iACCESS:          0  iHIT:          0  iMISS:          0  dACCESS:          0  dHIT:          0  dMISS:          0  itACCESS:          0  itHIT:          0  itMISS:          0  dtACCESS:          0  dtHIT:          0  dtMISS:          0
cpu0_L1D PREFETCH     ACCESS:   14119692  HIT:   11616269  MISS:    2503423  iACCESS:          0  iHIT:          0  iMISS:          0  dACCESS:   14119692  dHIT:   11616269  dMISS:    2503423  itACCESS:          0  itHIT:          0  itMISS:          0  dtACCESS:          0  dtHIT:          0  dtMISS:          0
cpu0_L1D WRITE        ACCESS:   10178902  HIT:    9605887  MISS:     573015  iACCESS:          0  iHIT:          0  iMISS:          0  dACCESS:   10178902  dHIT:    9605887  dMISS:     573015  itACCESS:          0  itHIT:          0  itMISS:          0  dtACCESS:          0  dtHIT:          0  dtMISS:          0
cpu0_L1D TRANSLATION  ACCESS:     540324  HIT:      30739  MISS:     509585  iACCESS:          0  iHIT:          0  iMISS:          0  dACCESS:          0  dHIT:          0  dMISS:          0  itACCESS:     119504  itHIT:      13200  itMISS:     106304  dtACCESS:     420820  dtHIT:      17539  dtMISS:     403281
cpu0_L1D PREFETCH  REQUESTED:   20390519  ISSUED:   18414936  CROSSED:          0  USEFUL:     371631  USELESS:     920270
cpu0_L1D AVERAGE iMISS LATENCY: 0 cycles
cpu0_L1D AVERAGE dMISS LATENCY: 47.3209 cycles
cpu0_L1D AVERAGE itMISS LATENCY: 2.73834 cycles
cpu0_L1D AVERAGE dtMISS LATENCY: 10.9152 cycles
cpu0_L1D PAGE CROSSINGS (TLB HIT):         0 
cpu0_L1D PAGE CROSSINGS (TLB MISS):         0 
cpu0_L1D AVERAGE MISS LATENCY: 60.9744 cycles
cpu0_L2C TOTAL       ACCESS:    8661699  HIT:    4166390  MISS:    4495309  iACCESS:    3849943  iHIT:    2337183  iMISS:    1512760  dACCESS:    4338562  dHIT:    1767562  dMISS:    2571000  itACCESS:     106010  itHIT:      18674  itMISS:      87336  dtACCESS:     367184  dtHIT:      42971  dtMISS:     324213
cpu0_L2C LOAD         ACCESS:    2099933  HIT:    1005519  MISS:    1094414  iACCESS:     879729  iHIT:     553028  iMISS:     326701  dACCESS:    1220204  dHIT:     452491  dMISS:     767713  itACCESS:          0  itHIT:          0  itMISS:          0  dtACCESS:          0  dtHIT:          0  dtMISS:          0
cpu0_L2C RFO          ACCESS:     216528  HIT:      78681  MISS:     137847  iACCESS:          0  iHIT:          0  iMISS:          0  dACCESS:     216528  dHIT:      78681  dMISS:     137847  itACCESS:          0  itHIT:          0  itMISS:          0  dtACCESS:          0  dtHIT:          0  dtMISS:          0
cpu0_L2C PREFETCH     ACCESS:    5523510  HIT:    2694244  MISS:    2829266  iACCESS:    2970214  iHIT:    1784155  iMISS:    1186059  dACCESS:    2553296  dHIT:     910089  dMISS:    1643207  itACCESS:          0  itHIT:          0  itMISS:          0  dtACCESS:          0  dtHIT:          0  dtMISS:          0
cpu0_L2C WRITE        ACCESS:     348534  HIT:     326301  MISS:      22233  iACCESS:          0  iHIT:          0  iMISS:          0  dACCESS:     348534  dHIT:     326301  dMISS:      22233  itACCESS:          0  itHIT:          0  itMISS:          0  dtACCESS:          0  dtHIT:          0  dtMISS:          0
cpu0_L2C TRANSLATION  ACCESS:     473194  HIT:      61645  MISS:     411549  iACCESS:          0  iHIT:          0  iMISS:          0  dACCESS:          0  dHIT:          0  dMISS:          0  itACCESS:     106010  itHIT:      18674  itMISS:      87336  dtACCESS:     367184  dtHIT:      42971  dtMISS:     324213
cpu0_L2C PREFETCH  REQUESTED:    1523435  ISSUED:    1523433  CROSSED:          0  USEFUL:     360521  USELESS:     313822
cpu0_L2C AVERAGE iMISS LATENCY: 35.1637 cycles
cpu0_L2C AVERAGE dMISS LATENCY: 77.0429 cycles
cpu0_L2C AVERAGE itMISS LATENCY: 3.49478 cycles
cpu0_L2C AVERAGE dtMISS LATENCY: 14.0447 cycles
cpu0_L2C PAGE CROSSINGS (TLB HIT):         0 
cpu0_L2C PAGE CROSSINGS (TLB MISS):         0 
cpu0_L2C AVERAGE MISS LATENCY: 129.746 cycles
LLC TOTAL       ACCESS:    4502128  HIT:    1631977  MISS:    2870151  iACCESS:    1432253  iHIT:     602784  iMISS:     829469  dACCESS:    2658326  dHIT:     987425  dMISS:    1670901  itACCESS:      87336  itHIT:       8755  itMISS:      78581  dtACCESS:     324213  dtHIT:      33013  dtMISS:     291200
LLC LOAD         ACCESS:    1086677  HIT:     399902  MISS:     686775  iACCESS:     325532  iHIT:     148521  iMISS:     177011  dACCESS:     761145  dHIT:     251381  dMISS:     509764  itACCESS:          0  itHIT:          0  itMISS:          0  dtACCESS:          0  dtHIT:          0  dtMISS:          0
LLC RFO          ACCESS:     137838  HIT:      45344  MISS:      92494  iACCESS:          0  iHIT:          0  iMISS:          0  dACCESS:     137838  dHIT:      45344  dMISS:      92494  itACCESS:          0  itHIT:          0  itMISS:          0  dtACCESS:          0  dtHIT:          0  dtMISS:          0
LLC PREFETCH     ACCESS:    2645182  HIT:     933891  MISS:    1711291  iACCESS:    1106721  iHIT:     454263  iMISS:     652458  dACCESS:    1538461  dHIT:     479628  dMISS:    1058833  itACCESS:          0  itHIT:          0  itMISS:          0  dtACCESS:          0  dtHIT:          0  dtMISS:          0
LLC WRITE        ACCESS:     220882  HIT:     211072  MISS:       9810  iACCESS:          0  iHIT:          0  iMISS:          0  dACCESS:     220882  dHIT:     211072  dMISS:       9810  itACCESS:          0  itHIT:          0  itMISS:          0  dtACCESS:          0  dtHIT:          0  dtMISS:          0
LLC TRANSLATION  ACCESS:     411549  HIT:      41768  MISS:     369781  iACCESS:          0  iHIT:          0  iMISS:          0  dACCESS:          0  dHIT:          0  dMISS:          0  itACCESS:      87336  itHIT:       8755  itMISS:      78581  dtACCESS:     324213  dtHIT:      33013  dtMISS:     291200
LLC PREFETCH  REQUESTED:          0  ISSUED:          0  CROSSED:          0  USEFUL:          0  USELESS:          0
LLC AVERAGE iMISS LATENCY: 45.2847 cycles
LLC AVERAGE dMISS LATENCY: 105.119 cycles
LLC AVERAGE itMISS LATENCY: 4.87064 cycles
LLC AVERAGE dtMISS LATENCY: 19.7633 cycles
LLC PAGE CROSSINGS (TLB HIT):         0 
LLC PAGE CROSSINGS (TLB MISS):         0 
LLC AVERAGE MISS LATENCY: 175.037 cycles

PageTableWalker TOTAL       ACCESS:     174477  
PageTableWalker AVERAGE LATENCY: 6.38126 cycles
PageTableWalker TOTAL LATENCY: 1113382 cycles

DRAM Statistics
Channel 0
 RQ ROW_BUFFER_HIT:     586036
  ROW_BUFFER_MISS:    2252103
 AVG DBUS CONGESTED CYCLE:    3.64523
 WQ ROW_BUFFER_HIT:      66306
  ROW_BUFFER_MISS:      56613  FULL:          0

