last_page:0x200000000000000
VMEM_RES_CAP:0x100000
PAGE_SIZE:4096
LOG2_PAGE_SIZE:12
LOG2_PAGE_TABLE_SIZE:9
page_table_levels:5
WARNING: physical memory size is smaller than virtual memory size
FDiP enabled with aggresivity 16

*** ChampSim Multicore Out-of-Order Simulator ***

Warmup Instructions: 50000000
Simulation Instructions: 100000000
Number of CPUs: 1
Small page size: 4096
Large page size: 2097152

CPU 0 Bimodal branch predictor
Basic BTB sets: 1024 ways: 8 indirect buffer size: 4096 RAS size: 64
Instruction page size distrubution: 0
Loading instruction page size distribution from /home/bsc/bsc018186/scratch/itp_asplos25_AE/dump/smt_srv85_ap_srv551_ap_1024i.pdst
Data page size distrubution: 0
Loading data page size distribution from /home/bsc/bsc018186/scratch/itp_asplos25_AE/dump/smt_srv85_ap_srv551_ap_1024i.pdst
cpu0_L2C IP-based stride prefetcher
cpu0_L2C is using PTP replacement policy:
	TLB_STRESS_THRESHOLD:0
	PTE_EVICTION_RATIO:0
cpu0_L1D next line prefetcher
cpu0_L1I next line prefetcher
Off-chip DRAM Size: 4 GiB Channels: 1 Width: 64-bit Data Rate: 3200 MT/s
Heartbeat CPU 0 instructions: 10000002 cycles: 2500438 heartbeat IPC: 3.99931 cumulative IPC: 3.99931 (Simulation time: 0 hr 0 min 45 sec) 
Heartbeat CPU 0 instructions: 20000001 cycles: 5000779 heartbeat IPC: 3.99946 cumulative IPC: 3.99938 (Simulation time: 0 hr 1 min 32 sec) 
Heartbeat CPU 0 instructions: 30000001 cycles: 7501108 heartbeat IPC: 3.99948 cumulative IPC: 3.99941 (Simulation time: 0 hr 2 min 19 sec) 
Heartbeat CPU 0 instructions: 40000002 cycles: 10001396 heartbeat IPC: 3.99954 cumulative IPC: 3.99945 (Simulation time: 0 hr 3 min 6 sec) 
Heartbeat CPU 0 instructions: 50000000 cycles: 12501877 heartbeat IPC: 3.99923 cumulative IPC: 3.9994 (Simulation time: 0 hr 3 min 54 sec) 
Warmup finished CPU 0 instructions: 50000000 cycles: 12501878 cumulative IPC: 3.9994 (Simulation time: 0 hr 3 min 54 sec) 

Warmup complete CPU 0 instructions: 50000000 cycles: 12501878 (Simulation time: 0 hr 3 min 54 sec) 

Heartbeat CPU 0 instructions: 60000000 cycles: 43221519 heartbeat IPC: 0.325525 cumulative IPC: 0.325525 (Simulation time: 0 hr 5 min 31 sec) 
Heartbeat CPU 0 instructions: 70000000 cycles: 74730415 heartbeat IPC: 0.317371 cumulative IPC: 0.321396 (Simulation time: 0 hr 7 min 10 sec) 
Heartbeat CPU 0 instructions: 80000002 cycles: 105012993 heartbeat IPC: 0.330223 cumulative IPC: 0.324286 (Simulation time: 0 hr 8 min 48 sec) 
Heartbeat CPU 0 instructions: 90000002 cycles: 135820017 heartbeat IPC: 0.324602 cumulative IPC: 0.324365 (Simulation time: 0 hr 10 min 28 sec) 
Heartbeat CPU 0 instructions: 100000000 cycles: 167116601 heartbeat IPC: 0.319524 cumulative IPC: 0.323385 (Simulation time: 0 hr 12 min 8 sec) 
Heartbeat CPU 0 instructions: 110000000 cycles: 196933681 heartbeat IPC: 0.335379 cumulative IPC: 0.325324 (Simulation time: 0 hr 13 min 46 sec) 
Heartbeat CPU 0 instructions: 120000000 cycles: 222768304 heartbeat IPC: 0.387078 cumulative IPC: 0.332911 (Simulation time: 0 hr 15 min 15 sec) 
Heartbeat CPU 0 instructions: 130000001 cycles: 240176863 heartbeat IPC: 0.574431 cumulative IPC: 0.351379 (Simulation time: 0 hr 16 min 26 sec) 
Heartbeat CPU 0 instructions: 140000003 cycles: 258311259 heartbeat IPC: 0.551439 cumulative IPC: 0.366138 (Simulation time: 0 hr 17 min 38 sec) 
Heartbeat CPU 0 instructions: 150000000 cycles: 290867982 heartbeat IPC: 0.307157 cumulative IPC: 0.35924 (Simulation time: 0 hr 19 min 7 sec) 
Simulation finished CPU 0 instructions: 100000000 cycles: 278366105 cumulative IPC: 0.35924 (Simulation time: 0 hr 19 min 7 sec) 

Simulation complete CPU 0 instructions: 100000000 cycles: 278366105 (Simulation time: 0 hr 19 min 7 sec) 


ChampSim completed all CPUs

Saving instructions large page distribution to /home/bsc/bsc018186/scratch/itp_asplos25_AE/dump/smt_srv85_ap_srv551_ap_1024i.pdst...
Saving data large page distribution to /home/bsc/bsc018186/scratch/itp_asplos25_AE/dump/smt_srv85_ap_srv551_ap_1024i.pdst...
=== Simulation ===
CPU 0 runs /gpfs/projects/bsc18/MN4/bsc18/romol/ChampSim/traces/qualcomm_srv/smt_srv85_ap_srv551_ap_1024i.champsimtrace.xz

Region of Interest Statistics

CPU 0 cumulative IPC: 0.35924 instructions: 100000000 cycles: 278366105
CPU 0 Branch Prediction Accuracy: 77.8805% MPKI: 42.6554 Average ROB Occupancy at Mispredict: 11.3071
Branch type MPKI
BRANCH_DIRECT_JUMP: 1.24168
BRANCH_INDIRECT: 23.0029
BRANCH_CONDITIONAL: 11.689
BRANCH_DIRECT_CALL: 2.35969
BRANCH_INDIRECT_CALL: 1.06194
BRANCH_RETURN: 3.30025

Instructions large pages: 0
Instructions small pages: 10447
Large page distribution for instructions: 0%

Data large pages: 0
Data small pages: 8982
Large page distribution for data: 0%

cpu0_L1I TOTAL       ACCESS:   39765155  HIT:   32013437  MISS:    7751718  iACCESS:   39765155  iHIT:   32013437  iMISS:    7751718  dACCESS:          0  dHIT:          0  dMISS:          0  itACCESS:          0  itHIT:          0  itMISS:          0  dtACCESS:          0  dtHIT:          0  dtMISS:          0
cpu0_L1I LOAD         ACCESS:   11358978  HIT:    9247476  MISS:    2111502  iACCESS:   11358978  iHIT:    9247476  iMISS:    2111502  dACCESS:          0  dHIT:          0  dMISS:          0  itACCESS:          0  itHIT:          0  itMISS:          0  dtACCESS:          0  dtHIT:          0  dtMISS:          0
cpu0_L1I RFO          ACCESS:          0  HIT:          0  MISS:          0  iACCESS:          0  iHIT:          0  iMISS:          0  dACCESS:          0  dHIT:          0  dMISS:          0  itACCESS:          0  itHIT:          0  itMISS:          0  dtACCESS:          0  dtHIT:          0  dtMISS:          0
cpu0_L1I PREFETCH     ACCESS:   28406177  HIT:   22765961  MISS:    5640216  iACCESS:   28406177  iHIT:   22765961  iMISS:    5640216  dACCESS:          0  dHIT:          0  dMISS:          0  itACCESS:          0  itHIT:          0  itMISS:          0  dtACCESS:          0  dtHIT:          0  dtMISS:          0
cpu0_L1I WRITE        ACCESS:          0  HIT:          0  MISS:          0  iACCESS:          0  iHIT:          0  iMISS:          0  dACCESS:          0  dHIT:          0  dMISS:          0  itACCESS:          0  itHIT:          0  itMISS:          0  dtACCESS:          0  dtHIT:          0  dtMISS:          0
cpu0_L1I TRANSLATION  ACCESS:          0  HIT:          0  MISS:          0  iACCESS:          0  iHIT:          0  iMISS:          0  dACCESS:          0  dHIT:          0  dMISS:          0  itACCESS:          0  itHIT:          0  itMISS:          0  dtACCESS:          0  dtHIT:          0  dtMISS:          0
cpu0_L1I PREFETCH  REQUESTED:   31087388  ISSUED:   31087149  CROSSED:          0  USEFUL:    1969571  USELESS:     685752
cpu0_L1I AVERAGE iMISS LATENCY: 24.5965 cycles
cpu0_L1I AVERAGE dMISS LATENCY: 0 cycles
cpu0_L1I AVERAGE itMISS LATENCY: 0 cycles
cpu0_L1I AVERAGE dtMISS LATENCY: 0 cycles
cpu0_L1I PAGE CROSSINGS (TLB HIT):         0 
cpu0_L1I PAGE CROSSINGS (TLB MISS):         0 
cpu0_L1I AVERAGE MISS LATENCY: 24.5965 cycles
cpu0_ITLB TOTAL       ACCESS:   33468187  HIT:   31480331  MISS:    1987856  iACCESS:   33468187  iHIT:   31480331  iMISS:    1987856  dACCESS:          0  dHIT:          0  dMISS:          0  itACCESS:          0  itHIT:          0  itMISS:          0  dtACCESS:          0  dtHIT:          0  dtMISS:          0
cpu0_ITLB LOAD         ACCESS:   33468187  HIT:   31480331  MISS:    1987856  iACCESS:   33468187  iHIT:   31480331  iMISS:    1987856  dACCESS:          0  dHIT:          0  dMISS:          0  itACCESS:          0  itHIT:          0  itMISS:          0  dtACCESS:          0  dtHIT:          0  dtMISS:          0
cpu0_ITLB RFO          ACCESS:          0  HIT:          0  MISS:          0  iACCESS:          0  iHIT:          0  iMISS:          0  dACCESS:          0  dHIT:          0  dMISS:          0  itACCESS:          0  itHIT:          0  itMISS:          0  dtACCESS:          0  dtHIT:          0  dtMISS:          0
cpu0_ITLB PREFETCH     ACCESS:          0  HIT:          0  MISS:          0  iACCESS:          0  iHIT:          0  iMISS:          0  dACCESS:          0  dHIT:          0  dMISS:          0  itACCESS:          0  itHIT:          0  itMISS:          0  dtACCESS:          0  dtHIT:          0  dtMISS:          0
cpu0_ITLB WRITE        ACCESS:          0  HIT:          0  MISS:          0  iACCESS:          0  iHIT:          0  iMISS:          0  dACCESS:          0  dHIT:          0  dMISS:          0  itACCESS:          0  itHIT:          0  itMISS:          0  dtACCESS:          0  dtHIT:          0  dtMISS:          0
cpu0_ITLB TRANSLATION  ACCESS:          0  HIT:          0  MISS:          0  iACCESS:          0  iHIT:          0  iMISS:          0  dACCESS:          0  dHIT:          0  dMISS:          0  itACCESS:          0  itHIT:          0  itMISS:          0  dtACCESS:          0  dtHIT:          0  dtMISS:          0
cpu0_ITLB PREFETCH  REQUESTED:          0  ISSUED:          0  CROSSED:          0  USEFUL:     347666  USELESS:      71167
cpu0_ITLB AVERAGE iMISS LATENCY: 10.3803 cycles
cpu0_ITLB AVERAGE dMISS LATENCY: 0 cycles
cpu0_ITLB AVERAGE itMISS LATENCY: 0 cycles
cpu0_ITLB AVERAGE dtMISS LATENCY: 0 cycles
cpu0_ITLB PAGE CROSSINGS (TLB HIT):         0 
cpu0_ITLB PAGE CROSSINGS (TLB MISS):         0 
cpu0_ITLB AVERAGE MISS LATENCY: 10.3803 cycles
cpu0_DTLB TOTAL       ACCESS:   30764835  HIT:   24604161  MISS:    6160674  iACCESS:          0  iHIT:          0  iMISS:          0  dACCESS:   30764835  dHIT:   24604161  dMISS:    6160674  itACCESS:          0  itHIT:          0  itMISS:          0  dtACCESS:          0  dtHIT:          0  dtMISS:          0
cpu0_DTLB LOAD         ACCESS:   30764835  HIT:   24604161  MISS:    6160674  iACCESS:          0  iHIT:          0  iMISS:          0  dACCESS:   30764835  dHIT:   24604161  dMISS:    6160674  itACCESS:          0  itHIT:          0  itMISS:          0  dtACCESS:          0  dtHIT:          0  dtMISS:          0
cpu0_DTLB RFO          ACCESS:          0  HIT:          0  MISS:          0  iACCESS:          0  iHIT:          0  iMISS:          0  dACCESS:          0  dHIT:          0  dMISS:          0  itACCESS:          0  itHIT:          0  itMISS:          0  dtACCESS:          0  dtHIT:          0  dtMISS:          0
cpu0_DTLB PREFETCH     ACCESS:          0  HIT:          0  MISS:          0  iACCESS:          0  iHIT:          0  iMISS:          0  dACCESS:          0  dHIT:          0  dMISS:          0  itACCESS:          0  itHIT:          0  itMISS:          0  dtACCESS:          0  dtHIT:          0  dtMISS:          0
cpu0_DTLB WRITE        ACCESS:          0  HIT:          0  MISS:          0  iACCESS:          0  iHIT:          0  iMISS:          0  dACCESS:          0  dHIT:          0  dMISS:          0  itACCESS:          0  itHIT:          0  itMISS:          0  dtACCESS:          0  dtHIT:          0  dtMISS:          0
cpu0_DTLB TRANSLATION  ACCESS:          0  HIT:          0  MISS:          0  iACCESS:          0  iHIT:          0  iMISS:          0  dACCESS:          0  dHIT:          0  dMISS:          0  itACCESS:          0  itHIT:          0  itMISS:          0  dtACCESS:          0  dtHIT:          0  dtMISS:          0
cpu0_DTLB PREFETCH  REQUESTED:          0  ISSUED:          0  CROSSED:          0  USEFUL:          0  USELESS:          0
cpu0_DTLB AVERAGE iMISS LATENCY: 0 cycles
cpu0_DTLB AVERAGE dMISS LATENCY: 14.6411 cycles
cpu0_DTLB AVERAGE itMISS LATENCY: 0 cycles
cpu0_DTLB AVERAGE dtMISS LATENCY: 0 cycles
cpu0_DTLB PAGE CROSSINGS (TLB HIT):         0 
cpu0_DTLB PAGE CROSSINGS (TLB MISS):         0 
cpu0_DTLB AVERAGE MISS LATENCY: 14.6411 cycles
cpu0_STLB TOTAL       ACCESS:    3690624  HIT:    3353357  MISS:     337267  iACCESS:     418844  iHIT:     314847  iMISS:     103997  dACCESS:    3271780  dHIT:    3038510  dMISS:     233270  itACCESS:          0  itHIT:          0  itMISS:          0  dtACCESS:          0  dtHIT:          0  dtMISS:          0
cpu0_STLB LOAD         ACCESS:    3690624  HIT:    3353357  MISS:     337267  iACCESS:     418844  iHIT:     314847  iMISS:     103997  dACCESS:    3271780  dHIT:    3038510  dMISS:     233270  itACCESS:          0  itHIT:          0  itMISS:          0  dtACCESS:          0  dtHIT:          0  dtMISS:          0
cpu0_STLB RFO          ACCESS:          0  HIT:          0  MISS:          0  iACCESS:          0  iHIT:          0  iMISS:          0  dACCESS:          0  dHIT:          0  dMISS:          0  itACCESS:          0  itHIT:          0  itMISS:          0  dtACCESS:          0  dtHIT:          0  dtMISS:          0
cpu0_STLB PREFETCH     ACCESS:          0  HIT:          0  MISS:          0  iACCESS:          0  iHIT:          0  iMISS:          0  dACCESS:          0  dHIT:          0  dMISS:          0  itACCESS:          0  itHIT:          0  itMISS:          0  dtACCESS:          0  dtHIT:          0  dtMISS:          0
cpu0_STLB WRITE        ACCESS:          0  HIT:          0  MISS:          0  iACCESS:          0  iHIT:          0  iMISS:          0  dACCESS:          0  dHIT:          0  dMISS:          0  itACCESS:          0  itHIT:          0  itMISS:          0  dtACCESS:          0  dtHIT:          0  dtMISS:          0
cpu0_STLB TRANSLATION  ACCESS:          0  HIT:          0  MISS:          0  iACCESS:          0  iHIT:          0  iMISS:          0  dACCESS:          0  dHIT:          0  dMISS:          0  itACCESS:          0  itHIT:          0  itMISS:          0  dtACCESS:          0  dtHIT:          0  dtMISS:          0
cpu0_STLB PREFETCH  REQUESTED:          0  ISSUED:          0  CROSSED:          0  USEFUL:          0  USELESS:          0
cpu0_STLB AVERAGE iMISS LATENCY: 51.24 cycles
cpu0_STLB AVERAGE dMISS LATENCY: 189.012 cycles
cpu0_STLB AVERAGE itMISS LATENCY: 0 cycles
cpu0_STLB AVERAGE dtMISS LATENCY: 0 cycles
cpu0_STLB PAGE CROSSINGS (TLB HIT):         0 
cpu0_STLB PAGE CROSSINGS (TLB MISS):         0 
cpu0_STLB AVERAGE MISS LATENCY: 240.252 cycles
cpu0_L1D TOTAL       ACCESS:   47814829  HIT:   39638461  MISS:    8176368  iACCESS:          0  iHIT:          0  iMISS:          0  dACCESS:   47326292  dHIT:   39610220  dMISS:    7716072  itACCESS:     116341  itHIT:      12590  itMISS:     103751  dtACCESS:     372196  dtHIT:      15651  dtMISS:     356545
cpu0_L1D LOAD         ACCESS:   22708383  HIT:   18372587  MISS:    4335796  iACCESS:          0  iHIT:          0  iMISS:          0  dACCESS:   22708383  dHIT:   18372587  dMISS:    4335796  itACCESS:          0  itHIT:          0  itMISS:          0  dtACCESS:          0  dtHIT:          0  dtMISS:          0
cpu0_L1D RFO          ACCESS:          0  HIT:          0  MISS:          0  iACCESS:          0  iHIT:          0  iMISS:          0  dACCESS:          0  dHIT:          0  dMISS:          0  itACCESS:          0  itHIT:          0  itMISS:          0  dtACCESS:          0  dtHIT:          0  dtMISS:          0
cpu0_L1D PREFETCH     ACCESS:   14833721  HIT:   12035385  MISS:    2798336  iACCESS:          0  iHIT:          0  iMISS:          0  dACCESS:   14833721  dHIT:   12035385  dMISS:    2798336  itACCESS:          0  itHIT:          0  itMISS:          0  dtACCESS:          0  dtHIT:          0  dtMISS:          0
cpu0_L1D WRITE        ACCESS:    9784188  HIT:    9202248  MISS:     581940  iACCESS:          0  iHIT:          0  iMISS:          0  dACCESS:    9784188  dHIT:    9202248  dMISS:     581940  itACCESS:          0  itHIT:          0  itMISS:          0  dtACCESS:          0  dtHIT:          0  dtMISS:          0
cpu0_L1D TRANSLATION  ACCESS:     488537  HIT:      28241  MISS:     460296  iACCESS:          0  iHIT:          0  iMISS:          0  dACCESS:          0  dHIT:          0  dMISS:          0  itACCESS:     116341  itHIT:      12590  itMISS:     103751  dtACCESS:     372196  dtHIT:      15651  dtMISS:     356545
cpu0_L1D PREFETCH  REQUESTED:   22708383  ISSUED:   18942290  CROSSED:          0  USEFUL:     328143  USELESS:    1173977
cpu0_L1D AVERAGE iMISS LATENCY: 0 cycles
cpu0_L1D AVERAGE dMISS LATENCY: 34.2102 cycles
cpu0_L1D AVERAGE itMISS LATENCY: 1.99213 cycles
cpu0_L1D AVERAGE dtMISS LATENCY: 7.2777 cycles
cpu0_L1D PAGE CROSSINGS (TLB HIT):         0 
cpu0_L1D PAGE CROSSINGS (TLB MISS):         0 
cpu0_L1D AVERAGE MISS LATENCY: 43.48 cycles
cpu0_L2C TOTAL       ACCESS:    9960613  HIT:    5889543  MISS:    4071070  iACCESS:    3372662  iHIT:    1975451  iMISS:    1397211  dACCESS:    6153990  dHIT:    3854378  dMISS:    2299612  itACCESS:     103378  itHIT:      19589  itMISS:      83789  dtACCESS:     330583  dtHIT:      40125  dtMISS:     290458
cpu0_L2C LOAD         ACCESS:    3670217  HIT:    2684181  MISS:     986036  iACCESS:     749646  iHIT:     451911  iMISS:     297735  dACCESS:    2920571  dHIT:    2232270  dMISS:     688301  itACCESS:          0  itHIT:          0  itMISS:          0  dtACCESS:          0  dtHIT:          0  dtMISS:          0
cpu0_L2C RFO          ACCESS:     225906  HIT:     108830  MISS:     117076  iACCESS:          0  iHIT:          0  iMISS:          0  dACCESS:     225906  dHIT:     108830  dMISS:     117076  itACCESS:          0  itHIT:          0  itMISS:          0  dtACCESS:          0  dtHIT:          0  dtMISS:          0
cpu0_L2C PREFETCH     ACCESS:    5304926  HIT:    2727230  MISS:    2577696  iACCESS:    2623016  iHIT:    1523540  iMISS:    1099476  dACCESS:    2681910  dHIT:    1203690  dMISS:    1478220  itACCESS:          0  itHIT:          0  itMISS:          0  dtACCESS:          0  dtHIT:          0  dtMISS:          0
cpu0_L2C WRITE        ACCESS:     325603  HIT:     309588  MISS:      16015  iACCESS:          0  iHIT:          0  iMISS:          0  dACCESS:     325603  dHIT:     309588  dMISS:      16015  itACCESS:          0  itHIT:          0  itMISS:          0  dtACCESS:          0  dtHIT:          0  dtMISS:          0
cpu0_L2C TRANSLATION  ACCESS:     433961  HIT:      59714  MISS:     374247  iACCESS:          0  iHIT:          0  iMISS:          0  dACCESS:          0  dHIT:          0  dMISS:          0  itACCESS:     103378  itHIT:      19589  itMISS:      83789  dtACCESS:     330583  dtHIT:      40125  dtMISS:     290458
cpu0_L2C PREFETCH  REQUESTED:    1393213  ISSUED:    1393160  CROSSED:          0  USEFUL:     315852  USELESS:     297098
cpu0_L2C AVERAGE iMISS LATENCY: 39.9742 cycles
cpu0_L2C AVERAGE dMISS LATENCY: 76.8762 cycles
cpu0_L2C AVERAGE itMISS LATENCY: 3.75111 cycles
cpu0_L2C AVERAGE dtMISS LATENCY: 13.81 cycles
cpu0_L2C PAGE CROSSINGS (TLB HIT):         0 
cpu0_L2C PAGE CROSSINGS (TLB MISS):         0 
cpu0_L2C AVERAGE MISS LATENCY: 134.412 cycles
LLC TOTAL       ACCESS:    4050074  HIT:    1293499  MISS:    2756575  iACCESS:    1317604  iHIT:     448836  iMISS:     868768  dACCESS:    2358223  dHIT:     807156  dMISS:    1551067  itACCESS:      83789  itHIT:       7553  itMISS:      76236  dtACCESS:     290458  dtHIT:      29954  dtMISS:     260504
LLC LOAD         ACCESS:     978599  HIT:     343505  MISS:     635094  iACCESS:     296602  iHIT:     112647  iMISS:     183955  dACCESS:     681997  dHIT:     230858  dMISS:     451139  itACCESS:          0  itHIT:          0  itMISS:          0  dtACCESS:          0  dtHIT:          0  dtMISS:          0
LLC RFO          ACCESS:     117075  HIT:      35727  MISS:      81348  iACCESS:          0  iHIT:          0  iMISS:          0  dACCESS:     117075  dHIT:      35727  dMISS:      81348  itACCESS:          0  itHIT:          0  itMISS:          0  dtACCESS:          0  dtHIT:          0  dtMISS:          0
LLC PREFETCH     ACCESS:    2390815  HIT:     695645  MISS:    1695170  iACCESS:    1021002  iHIT:     336189  iMISS:     684813  dACCESS:    1369813  dHIT:     359456  dMISS:    1010357  itACCESS:          0  itHIT:          0  itMISS:          0  dtACCESS:          0  dtHIT:          0  dtMISS:          0
LLC WRITE        ACCESS:     189338  HIT:     181115  MISS:       8223  iACCESS:          0  iHIT:          0  iMISS:          0  dACCESS:     189338  dHIT:     181115  dMISS:       8223  itACCESS:          0  itHIT:          0  itMISS:          0  dtACCESS:          0  dtHIT:          0  dtMISS:          0
LLC TRANSLATION  ACCESS:     374247  HIT:      37507  MISS:     336740  iACCESS:          0  iHIT:          0  iMISS:          0  dACCESS:          0  dHIT:          0  dMISS:          0  itACCESS:      83789  itHIT:       7553  itMISS:      76236  dtACCESS:     290458  dtHIT:      29954  dtMISS:     260504
LLC PREFETCH  REQUESTED:          0  ISSUED:          0  CROSSED:          0  USEFUL:          0  USELESS:          0
LLC AVERAGE iMISS LATENCY: 49.6293 cycles
LLC AVERAGE dMISS LATENCY: 98.9211 cycles
LLC AVERAGE itMISS LATENCY: 4.93737 cycles
LLC AVERAGE dtMISS LATENCY: 18.3117 cycles
LLC PAGE CROSSINGS (TLB HIT):         0 
LLC PAGE CROSSINGS (TLB MISS):         0 
LLC AVERAGE MISS LATENCY: 171.8 cycles

PageTableWalker TOTAL       ACCESS:     197265  
PageTableWalker AVERAGE LATENCY: 6.38325 cycles
PageTableWalker TOTAL LATENCY: 1259191 cycles

DRAM Statistics
Channel 0
 RQ ROW_BUFFER_HIT:     591898
  ROW_BUFFER_MISS:    2139805
 AVG DBUS CONGESTED CYCLE:    3.64997
 WQ ROW_BUFFER_HIT:      58546
  ROW_BUFFER_MISS:      51428  FULL:          0

