last_page:0x200000000000000
VMEM_RES_CAP:0x100000
PAGE_SIZE:4096
LOG2_PAGE_SIZE:12
LOG2_PAGE_TABLE_SIZE:9
page_table_levels:5
WARNING: physical memory size is smaller than virtual memory size
FDiP enabled with aggresivity 16

*** ChampSim Multicore Out-of-Order Simulator ***

Warmup Instructions: 50000000
Simulation Instructions: 100000000
Number of CPUs: 1
Small page size: 4096
Large page size: 2097152

CPU 0 Bimodal branch predictor
Basic BTB sets: 1024 ways: 8 indirect buffer size: 4096 RAS size: 64
Instruction page size distrubution: 0
Loading instruction page size distribution from /home/bsc/bsc018186/scratch/itp_asplos25_AE/dump/smt_srv540_ap_srv259_ap_1024i.pdst
Data page size distrubution: 0
Loading data page size distribution from /home/bsc/bsc018186/scratch/itp_asplos25_AE/dump/smt_srv540_ap_srv259_ap_1024i.pdst
cpu0_L2C IP-based stride prefetcher
cpu0_L2C is using PTP replacement policy:
	TLB_STRESS_THRESHOLD:0
	PTE_EVICTION_RATIO:0
cpu0_L1D next line prefetcher
cpu0_STLB using iTP with max lru@8
cpu0_STLB using iTP with instr@0 and data@2
Init sat counter with 3 bits (max:50).
cpu0_L1I next line prefetcher
Off-chip DRAM Size: 4 GiB Channels: 1 Width: 64-bit Data Rate: 3200 MT/s
Heartbeat CPU 0 instructions: 10000000 cycles: 2500224 heartbeat IPC: 3.99965 cumulative IPC: 3.99965 (Simulation time: 0 hr 0 min 36 sec) 
Heartbeat CPU 0 instructions: 20000001 cycles: 5000306 heartbeat IPC: 3.99987 cumulative IPC: 3.99976 (Simulation time: 0 hr 1 min 15 sec) 
Heartbeat CPU 0 instructions: 30000002 cycles: 7500347 heartbeat IPC: 3.99994 cumulative IPC: 3.99982 (Simulation time: 0 hr 1 min 53 sec) 
Heartbeat CPU 0 instructions: 40000001 cycles: 10000425 heartbeat IPC: 3.99988 cumulative IPC: 3.99984 (Simulation time: 0 hr 2 min 32 sec) 
Heartbeat CPU 0 instructions: 50000000 cycles: 12500726 heartbeat IPC: 3.99952 cumulative IPC: 3.99977 (Simulation time: 0 hr 3 min 11 sec) 
Warmup finished CPU 0 instructions: 50000000 cycles: 12500727 cumulative IPC: 3.99977 (Simulation time: 0 hr 3 min 11 sec) 

Warmup complete CPU 0 instructions: 50000000 cycles: 12500727 (Simulation time: 0 hr 3 min 11 sec) 

Heartbeat CPU 0 instructions: 60000000 cycles: 39818476 heartbeat IPC: 0.366063 cumulative IPC: 0.366063 (Simulation time: 0 hr 4 min 29 sec) 
Heartbeat CPU 0 instructions: 70000002 cycles: 67420292 heartbeat IPC: 0.362296 cumulative IPC: 0.364169 (Simulation time: 0 hr 5 min 47 sec) 
Heartbeat CPU 0 instructions: 80000002 cycles: 95910962 heartbeat IPC: 0.350993 cumulative IPC: 0.359669 (Simulation time: 0 hr 7 min 6 sec) 
Heartbeat CPU 0 instructions: 90000000 cycles: 123537487 heartbeat IPC: 0.361971 cumulative IPC: 0.360242 (Simulation time: 0 hr 8 min 24 sec) 
Heartbeat CPU 0 instructions: 100000001 cycles: 152932263 heartbeat IPC: 0.340197 cumulative IPC: 0.356046 (Simulation time: 0 hr 9 min 45 sec) 
Heartbeat CPU 0 instructions: 110000002 cycles: 180979996 heartbeat IPC: 0.356536 cumulative IPC: 0.356127 (Simulation time: 0 hr 11 min 4 sec) 
Heartbeat CPU 0 instructions: 120000004 cycles: 209750405 heartbeat IPC: 0.34758 cumulative IPC: 0.354881 (Simulation time: 0 hr 12 min 24 sec) 
Heartbeat CPU 0 instructions: 130000003 cycles: 238389719 heartbeat IPC: 0.349171 cumulative IPC: 0.354157 (Simulation time: 0 hr 13 min 44 sec) 
Heartbeat CPU 0 instructions: 140000002 cycles: 265553918 heartbeat IPC: 0.368132 cumulative IPC: 0.355657 (Simulation time: 0 hr 15 min 1 sec) 
Heartbeat CPU 0 instructions: 150000002 cycles: 292463621 heartbeat IPC: 0.371614 cumulative IPC: 0.357191 (Simulation time: 0 hr 16 min 18 sec) 
Simulation finished CPU 0 instructions: 100000002 cycles: 279962895 cumulative IPC: 0.357191 (Simulation time: 0 hr 16 min 18 sec) 

Simulation complete CPU 0 instructions: 100000002 cycles: 279962895 (Simulation time: 0 hr 16 min 18 sec) 


ChampSim completed all CPUs

Saving instructions large page distribution to /home/bsc/bsc018186/scratch/itp_asplos25_AE/dump/smt_srv540_ap_srv259_ap_1024i.pdst...
Saving data large page distribution to /home/bsc/bsc018186/scratch/itp_asplos25_AE/dump/smt_srv540_ap_srv259_ap_1024i.pdst...
=== Simulation ===
CPU 0 runs /gpfs/projects/bsc18/MN4/bsc18/romol/ChampSim/traces/qualcomm_srv/smt_srv540_ap_srv259_ap_1024i.champsimtrace.xz

Region of Interest Statistics

CPU 0 cumulative IPC: 0.357191 instructions: 100000002 cycles: 279962895
CPU 0 Branch Prediction Accuracy: 76.8629% MPKI: 41.6889 Average ROB Occupancy at Mispredict: 11.7618
Branch type MPKI
BRANCH_DIRECT_JUMP: 1.25098
BRANCH_INDIRECT: 22.2395
BRANCH_CONDITIONAL: 11.5272
BRANCH_DIRECT_CALL: 2.33413
BRANCH_INDIRECT_CALL: 0.97953
BRANCH_RETURN: 3.35763

Instructions large pages: 0
Instructions small pages: 9359
Large page distribution for instructions: 0%

Data large pages: 0
Data small pages: 8207
Large page distribution for data: 0%

cpu0_L1I TOTAL       ACCESS:   38544627  HIT:   29900666  MISS:    8643961  iACCESS:   38544627  iHIT:   29900666  iMISS:    8643961  dACCESS:          0  dHIT:          0  dMISS:          0  itACCESS:          0  itHIT:          0  itMISS:          0  dtACCESS:          0  dtHIT:          0  dtMISS:          0
cpu0_L1I LOAD         ACCESS:   11547219  HIT:    9166668  MISS:    2380551  iACCESS:   11547219  iHIT:    9166668  iMISS:    2380551  dACCESS:          0  dHIT:          0  dMISS:          0  itACCESS:          0  itHIT:          0  itMISS:          0  dtACCESS:          0  dtHIT:          0  dtMISS:          0
cpu0_L1I RFO          ACCESS:          0  HIT:          0  MISS:          0  iACCESS:          0  iHIT:          0  iMISS:          0  dACCESS:          0  dHIT:          0  dMISS:          0  itACCESS:          0  itHIT:          0  itMISS:          0  dtACCESS:          0  dtHIT:          0  dtMISS:          0
cpu0_L1I PREFETCH     ACCESS:   26997408  HIT:   20733998  MISS:    6263410  iACCESS:   26997408  iHIT:   20733998  iMISS:    6263410  dACCESS:          0  dHIT:          0  dMISS:          0  itACCESS:          0  itHIT:          0  itMISS:          0  dtACCESS:          0  dtHIT:          0  dtMISS:          0
cpu0_L1I WRITE        ACCESS:          0  HIT:          0  MISS:          0  iACCESS:          0  iHIT:          0  iMISS:          0  dACCESS:          0  dHIT:          0  dMISS:          0  itACCESS:          0  itHIT:          0  itMISS:          0  dtACCESS:          0  dtHIT:          0  dtMISS:          0
cpu0_L1I TRANSLATION  ACCESS:          0  HIT:          0  MISS:          0  iACCESS:          0  iHIT:          0  iMISS:          0  dACCESS:          0  dHIT:          0  dMISS:          0  itACCESS:          0  itHIT:          0  itMISS:          0  dtACCESS:          0  dtHIT:          0  dtMISS:          0
cpu0_L1I PREFETCH  REQUESTED:   29832127  ISSUED:   29832116  CROSSED:          0  USEFUL:    2171524  USELESS:     752179
cpu0_L1I AVERAGE iMISS LATENCY: 21.8323 cycles
cpu0_L1I AVERAGE dMISS LATENCY: 0 cycles
cpu0_L1I AVERAGE itMISS LATENCY: 0 cycles
cpu0_L1I AVERAGE dtMISS LATENCY: 0 cycles
cpu0_L1I PAGE CROSSINGS (TLB HIT):         0 
cpu0_L1I PAGE CROSSINGS (TLB MISS):         0 
cpu0_L1I AVERAGE MISS LATENCY: 21.8323 cycles
cpu0_ITLB TOTAL       ACCESS:   32522446  HIT:   30288368  MISS:    2234078  iACCESS:   32522446  iHIT:   30288368  iMISS:    2234078  dACCESS:          0  dHIT:          0  dMISS:          0  itACCESS:          0  itHIT:          0  itMISS:          0  dtACCESS:          0  dtHIT:          0  dtMISS:          0
cpu0_ITLB LOAD         ACCESS:   32522446  HIT:   30288368  MISS:    2234078  iACCESS:   32522446  iHIT:   30288368  iMISS:    2234078  dACCESS:          0  dHIT:          0  dMISS:          0  itACCESS:          0  itHIT:          0  itMISS:          0  dtACCESS:          0  dtHIT:          0  dtMISS:          0
cpu0_ITLB RFO          ACCESS:          0  HIT:          0  MISS:          0  iACCESS:          0  iHIT:          0  iMISS:          0  dACCESS:          0  dHIT:          0  dMISS:          0  itACCESS:          0  itHIT:          0  itMISS:          0  dtACCESS:          0  dtHIT:          0  dtMISS:          0
cpu0_ITLB PREFETCH     ACCESS:          0  HIT:          0  MISS:          0  iACCESS:          0  iHIT:          0  iMISS:          0  dACCESS:          0  dHIT:          0  dMISS:          0  itACCESS:          0  itHIT:          0  itMISS:          0  dtACCESS:          0  dtHIT:          0  dtMISS:          0
cpu0_ITLB WRITE        ACCESS:          0  HIT:          0  MISS:          0  iACCESS:          0  iHIT:          0  iMISS:          0  dACCESS:          0  dHIT:          0  dMISS:          0  itACCESS:          0  itHIT:          0  itMISS:          0  dtACCESS:          0  dtHIT:          0  dtMISS:          0
cpu0_ITLB TRANSLATION  ACCESS:          0  HIT:          0  MISS:          0  iACCESS:          0  iHIT:          0  iMISS:          0  dACCESS:          0  dHIT:          0  dMISS:          0  itACCESS:          0  itHIT:          0  itMISS:          0  dtACCESS:          0  dtHIT:          0  dtMISS:          0
cpu0_ITLB PREFETCH  REQUESTED:          0  ISSUED:          0  CROSSED:          0  USEFUL:     379103  USELESS:      80569
cpu0_ITLB AVERAGE iMISS LATENCY: 5.74392 cycles
cpu0_ITLB AVERAGE dMISS LATENCY: 0 cycles
cpu0_ITLB AVERAGE itMISS LATENCY: 0 cycles
cpu0_ITLB AVERAGE dtMISS LATENCY: 0 cycles
cpu0_ITLB PAGE CROSSINGS (TLB HIT):         0 
cpu0_ITLB PAGE CROSSINGS (TLB MISS):         0 
cpu0_ITLB AVERAGE MISS LATENCY: 5.74392 cycles
cpu0_DTLB TOTAL       ACCESS:   28737062  HIT:   25036908  MISS:    3700154  iACCESS:          0  iHIT:          0  iMISS:          0  dACCESS:   28737062  dHIT:   25036908  dMISS:    3700154  itACCESS:          0  itHIT:          0  itMISS:          0  dtACCESS:          0  dtHIT:          0  dtMISS:          0
cpu0_DTLB LOAD         ACCESS:   28737062  HIT:   25036908  MISS:    3700154  iACCESS:          0  iHIT:          0  iMISS:          0  dACCESS:   28737062  dHIT:   25036908  dMISS:    3700154  itACCESS:          0  itHIT:          0  itMISS:          0  dtACCESS:          0  dtHIT:          0  dtMISS:          0
cpu0_DTLB RFO          ACCESS:          0  HIT:          0  MISS:          0  iACCESS:          0  iHIT:          0  iMISS:          0  dACCESS:          0  dHIT:          0  dMISS:          0  itACCESS:          0  itHIT:          0  itMISS:          0  dtACCESS:          0  dtHIT:          0  dtMISS:          0
cpu0_DTLB PREFETCH     ACCESS:          0  HIT:          0  MISS:          0  iACCESS:          0  iHIT:          0  iMISS:          0  dACCESS:          0  dHIT:          0  dMISS:          0  itACCESS:          0  itHIT:          0  itMISS:          0  dtACCESS:          0  dtHIT:          0  dtMISS:          0
cpu0_DTLB WRITE        ACCESS:          0  HIT:          0  MISS:          0  iACCESS:          0  iHIT:          0  iMISS:          0  dACCESS:          0  dHIT:          0  dMISS:          0  itACCESS:          0  itHIT:          0  itMISS:          0  dtACCESS:          0  dtHIT:          0  dtMISS:          0
cpu0_DTLB TRANSLATION  ACCESS:          0  HIT:          0  MISS:          0  iACCESS:          0  iHIT:          0  iMISS:          0  dACCESS:          0  dHIT:          0  dMISS:          0  itACCESS:          0  itHIT:          0  itMISS:          0  dtACCESS:          0  dtHIT:          0  dtMISS:          0
cpu0_DTLB PREFETCH  REQUESTED:          0  ISSUED:          0  CROSSED:          0  USEFUL:          0  USELESS:          0
cpu0_DTLB AVERAGE iMISS LATENCY: 0 cycles
cpu0_DTLB AVERAGE dMISS LATENCY: 26.404 cycles
cpu0_DTLB AVERAGE itMISS LATENCY: 0 cycles
cpu0_DTLB AVERAGE dtMISS LATENCY: 0 cycles
cpu0_DTLB PAGE CROSSINGS (TLB HIT):         0 
cpu0_DTLB PAGE CROSSINGS (TLB MISS):         0 
cpu0_DTLB AVERAGE MISS LATENCY: 26.404 cycles
cpu0_STLB TOTAL       ACCESS:    2581202  HIT:    2221967  MISS:     359235  iACCESS:     459671  iHIT:     412552  iMISS:      47119  dACCESS:    2121531  dHIT:    1809415  dMISS:     312116  itACCESS:          0  itHIT:          0  itMISS:          0  dtACCESS:          0  dtHIT:          0  dtMISS:          0
cpu0_STLB LOAD         ACCESS:    2581202  HIT:    2221967  MISS:     359235  iACCESS:     459671  iHIT:     412552  iMISS:      47119  dACCESS:    2121531  dHIT:    1809415  dMISS:     312116  itACCESS:          0  itHIT:          0  itMISS:          0  dtACCESS:          0  dtHIT:          0  dtMISS:          0
cpu0_STLB RFO          ACCESS:          0  HIT:          0  MISS:          0  iACCESS:          0  iHIT:          0  iMISS:          0  dACCESS:          0  dHIT:          0  dMISS:          0  itACCESS:          0  itHIT:          0  itMISS:          0  dtACCESS:          0  dtHIT:          0  dtMISS:          0
cpu0_STLB PREFETCH     ACCESS:          0  HIT:          0  MISS:          0  iACCESS:          0  iHIT:          0  iMISS:          0  dACCESS:          0  dHIT:          0  dMISS:          0  itACCESS:          0  itHIT:          0  itMISS:          0  dtACCESS:          0  dtHIT:          0  dtMISS:          0
cpu0_STLB WRITE        ACCESS:          0  HIT:          0  MISS:          0  iACCESS:          0  iHIT:          0  iMISS:          0  dACCESS:          0  dHIT:          0  dMISS:          0  itACCESS:          0  itHIT:          0  itMISS:          0  dtACCESS:          0  dtHIT:          0  dtMISS:          0
cpu0_STLB TRANSLATION  ACCESS:          0  HIT:          0  MISS:          0  iACCESS:          0  iHIT:          0  iMISS:          0  dACCESS:          0  dHIT:          0  dMISS:          0  itACCESS:          0  itHIT:          0  itMISS:          0  dtACCESS:          0  dtHIT:          0  dtMISS:          0
cpu0_STLB PREFETCH  REQUESTED:          0  ISSUED:          0  CROSSED:          0  USEFUL:          0  USELESS:          0
cpu0_STLB AVERAGE iMISS LATENCY: 25.6874 cycles
cpu0_STLB AVERAGE dMISS LATENCY: 224.271 cycles
cpu0_STLB AVERAGE itMISS LATENCY: 0 cycles
cpu0_STLB AVERAGE dtMISS LATENCY: 0 cycles
cpu0_STLB PAGE CROSSINGS (TLB HIT):         0 
cpu0_STLB PAGE CROSSINGS (TLB MISS):         0 
cpu0_STLB AVERAGE MISS LATENCY: 249.958 cycles
cpu0_L1D TOTAL       ACCESS:   44655552  HIT:   38844283  MISS:    5811269  iACCESS:          0  iHIT:          0  iMISS:          0  dACCESS:   44093631  dHIT:   38816319  dMISS:    5277312  itACCESS:      56937  itHIT:       3926  itMISS:      53011  dtACCESS:     504984  dtHIT:      24038  dtMISS:     480946
cpu0_L1D LOAD         ACCESS:   20179395  HIT:   17810513  MISS:    2368882  iACCESS:          0  iHIT:          0  iMISS:          0  dACCESS:   20179395  dHIT:   17810513  dMISS:    2368882  itACCESS:          0  itHIT:          0  itMISS:          0  dtACCESS:          0  dtHIT:          0  dtMISS:          0
cpu0_L1D RFO          ACCESS:          0  HIT:          0  MISS:          0  iACCESS:          0  iHIT:          0  iMISS:          0  dACCESS:          0  dHIT:          0  dMISS:          0  itACCESS:          0  itHIT:          0  itMISS:          0  dtACCESS:          0  dtHIT:          0  dtMISS:          0
cpu0_L1D PREFETCH     ACCESS:   13798570  HIT:   11462753  MISS:    2335817  iACCESS:          0  iHIT:          0  iMISS:          0  dACCESS:   13798570  dHIT:   11462753  dMISS:    2335817  itACCESS:          0  itHIT:          0  itMISS:          0  dtACCESS:          0  dtHIT:          0  dtMISS:          0
cpu0_L1D WRITE        ACCESS:   10115666  HIT:    9543053  MISS:     572613  iACCESS:          0  iHIT:          0  iMISS:          0  dACCESS:   10115666  dHIT:    9543053  dMISS:     572613  itACCESS:          0  itHIT:          0  itMISS:          0  dtACCESS:          0  dtHIT:          0  dtMISS:          0
cpu0_L1D TRANSLATION  ACCESS:     561921  HIT:      27964  MISS:     533957  iACCESS:          0  iHIT:          0  iMISS:          0  dACCESS:          0  dHIT:          0  dMISS:          0  itACCESS:      56937  itHIT:       3926  itMISS:      53011  dtACCESS:     504984  dtHIT:      24038  dtMISS:     480946
cpu0_L1D PREFETCH  REQUESTED:   20179395  ISSUED:   18314148  CROSSED:          0  USEFUL:     353688  USELESS:     921236
cpu0_L1D AVERAGE iMISS LATENCY: 0 cycles
cpu0_L1D AVERAGE dMISS LATENCY: 48.8912 cycles
cpu0_L1D AVERAGE itMISS LATENCY: 1.50159 cycles
cpu0_L1D AVERAGE dtMISS LATENCY: 12.986 cycles
cpu0_L1D PAGE CROSSINGS (TLB HIT):         0 
cpu0_L1D PAGE CROSSINGS (TLB MISS):         0 
cpu0_L1D AVERAGE MISS LATENCY: 63.3787 cycles
cpu0_L2C TOTAL       ACCESS:    8514427  HIT:    4034515  MISS:    4479912  iACCESS:    3733614  iHIT:    2255529  iMISS:    1478085  dACCESS:    4282019  dHIT:    1705262  dMISS:    2576757  itACCESS:      52923  itHIT:       7600  itMISS:      45323  dtACCESS:     445871  dtHIT:      66124  dtMISS:     379747
cpu0_L2C LOAD         ACCESS:    2042595  HIT:     944800  MISS:    1097795  iACCESS:     847711  iHIT:     525575  iMISS:     322136  dACCESS:    1194884  dHIT:     419225  dMISS:     775659  itACCESS:          0  itHIT:          0  itMISS:          0  dtACCESS:          0  dtHIT:          0  dtMISS:          0
cpu0_L2C RFO          ACCESS:     218794  HIT:      78841  MISS:     139953  iACCESS:          0  iHIT:          0  iMISS:          0  dACCESS:     218794  dHIT:      78841  dMISS:     139953  itACCESS:          0  itHIT:          0  itMISS:          0  dtACCESS:          0  dtHIT:          0  dtMISS:          0
cpu0_L2C PREFETCH     ACCESS:    5411357  HIT:    2625804  MISS:    2785553  iACCESS:    2885903  iHIT:    1729954  iMISS:    1155949  dACCESS:    2525454  dHIT:     895850  dMISS:    1629604  itACCESS:          0  itHIT:          0  itMISS:          0  dtACCESS:          0  dtHIT:          0  dtMISS:          0
cpu0_L2C WRITE        ACCESS:     342887  HIT:     311346  MISS:      31541  iACCESS:          0  iHIT:          0  iMISS:          0  dACCESS:     342887  dHIT:     311346  dMISS:      31541  itACCESS:          0  itHIT:          0  itMISS:          0  dtACCESS:          0  dtHIT:          0  dtMISS:          0
cpu0_L2C TRANSLATION  ACCESS:     498794  HIT:      73724  MISS:     425070  iACCESS:          0  iHIT:          0  iMISS:          0  dACCESS:          0  dHIT:          0  dMISS:          0  itACCESS:      52923  itHIT:       7600  itMISS:      45323  dtACCESS:     445871  dtHIT:      66124  dtMISS:     379747
cpu0_L2C PREFETCH  REQUESTED:    1511786  ISSUED:    1511785  CROSSED:          0  USEFUL:     347491  USELESS:     304080
cpu0_L2C AVERAGE iMISS LATENCY: 34.9746 cycles
cpu0_L2C AVERAGE dMISS LATENCY: 76.0534 cycles
cpu0_L2C AVERAGE itMISS LATENCY: 1.83101 cycles
cpu0_L2C AVERAGE dtMISS LATENCY: 15.8586 cycles
cpu0_L2C PAGE CROSSINGS (TLB HIT):         0 
cpu0_L2C PAGE CROSSINGS (TLB MISS):         0 
cpu0_L2C AVERAGE MISS LATENCY: 128.718 cycles
LLC TOTAL       ACCESS:    4477078  HIT:    1663083  MISS:    2813995  iACCESS:    1399611  iHIT:     592966  iMISS:     806645  dACCESS:    2652397  dHIT:    1013469  dMISS:    1638928  itACCESS:      45323  itHIT:       4276  itMISS:      41047  dtACCESS:     379747  dtHIT:      52372  dtMISS:     327375
LLC LOAD         ACCESS:    1090363  HIT:     419951  MISS:     670412  iACCESS:     320999  iHIT:     148197  iMISS:     172802  dACCESS:     769364  dHIT:     271754  dMISS:     497610  itACCESS:          0  itHIT:          0  itMISS:          0  dtACCESS:          0  dtHIT:          0  dtMISS:          0
LLC RFO          ACCESS:     139936  HIT:      49217  MISS:      90719  iACCESS:          0  iHIT:          0  iMISS:          0  dACCESS:     139936  dHIT:      49217  dMISS:      90719  itACCESS:          0  itHIT:          0  itMISS:          0  dtACCESS:          0  dtHIT:          0  dtMISS:          0
LLC PREFETCH     ACCESS:    2603218  HIT:     927124  MISS:    1676094  iACCESS:    1078612  iHIT:     444769  iMISS:     633843  dACCESS:    1524606  dHIT:     482355  dMISS:    1042251  itACCESS:          0  itHIT:          0  itMISS:          0  dtACCESS:          0  dtHIT:          0  dtMISS:          0
LLC WRITE        ACCESS:     218491  HIT:     210143  MISS:       8348  iACCESS:          0  iHIT:          0  iMISS:          0  dACCESS:     218491  dHIT:     210143  dMISS:       8348  itACCESS:          0  itHIT:          0  itMISS:          0  dtACCESS:          0  dtHIT:          0  dtMISS:          0
LLC TRANSLATION  ACCESS:     425070  HIT:      56648  MISS:     368422  iACCESS:          0  iHIT:          0  iMISS:          0  dACCESS:          0  dHIT:          0  dMISS:          0  itACCESS:      45323  itHIT:       4276  itMISS:      41047  dtACCESS:     379747  dtHIT:      52372  dtMISS:     327375
LLC PREFETCH  REQUESTED:          0  ISSUED:          0  CROSSED:          0  USEFUL:          0  USELESS:          0
LLC AVERAGE iMISS LATENCY: 45.9279 cycles
LLC AVERAGE dMISS LATENCY: 105.189 cycles
LLC AVERAGE itMISS LATENCY: 2.59584 cycles
LLC AVERAGE dtMISS LATENCY: 22.5815 cycles
LLC PAGE CROSSINGS (TLB HIT):         0 
LLC PAGE CROSSINGS (TLB MISS):         0 
LLC AVERAGE MISS LATENCY: 176.295 cycles

PageTableWalker TOTAL       ACCESS:     177077  
PageTableWalker AVERAGE LATENCY: 6.54562 cycles
PageTableWalker TOTAL LATENCY: 1159077 cycles

DRAM Statistics
Channel 0
 RQ ROW_BUFFER_HIT:     567821
  ROW_BUFFER_MISS:    2216608
 AVG DBUS CONGESTED CYCLE:    3.65192
 WQ ROW_BUFFER_HIT:      63941
  ROW_BUFFER_MISS:      57177  FULL:          0

