last_page:0x200000000000000
VMEM_RES_CAP:0x100000
PAGE_SIZE:4096
LOG2_PAGE_SIZE:12
LOG2_PAGE_TABLE_SIZE:9
page_table_levels:5
WARNING: physical memory size is smaller than virtual memory size
FDiP enabled with aggresivity 16

*** ChampSim Multicore Out-of-Order Simulator ***

Warmup Instructions: 50000000
Simulation Instructions: 100000000
Number of CPUs: 1
Small page size: 4096
Large page size: 2097152

CPU 0 Bimodal branch predictor
Basic BTB sets: 1024 ways: 8 indirect buffer size: 4096 RAS size: 64
Instruction page size distrubution: 0
Loading instruction page size distribution from /home/bsc/bsc018186/scratch/itp_asplos25_AE/dump/smt_srv12_ap_srv194_ap_1024i.pdst
Data page size distrubution: 0
Loading data page size distribution from /home/bsc/bsc018186/scratch/itp_asplos25_AE/dump/smt_srv12_ap_srv194_ap_1024i.pdst
cpu0_L2C IP-based stride prefetcher
cpu0_L1D next line prefetcher
cpu0_STLB using iTP with max lru@8
cpu0_STLB using iTP with instr@0 and data@2
Init sat counter with 3 bits (max:50).
cpu0_L1I next line prefetcher
Off-chip DRAM Size: 4 GiB Channels: 1 Width: 64-bit Data Rate: 3200 MT/s
Heartbeat CPU 0 instructions: 10000003 cycles: 2500444 heartbeat IPC: 3.9993 cumulative IPC: 3.9993 (Simulation time: 0 hr 0 min 38 sec) 
Heartbeat CPU 0 instructions: 20000000 cycles: 5000683 heartbeat IPC: 3.99962 cumulative IPC: 3.99946 (Simulation time: 0 hr 1 min 18 sec) 
Heartbeat CPU 0 instructions: 30000001 cycles: 7501221 heartbeat IPC: 3.99914 cumulative IPC: 3.99935 (Simulation time: 0 hr 2 min 0 sec) 
Heartbeat CPU 0 instructions: 40000001 cycles: 10001770 heartbeat IPC: 3.99913 cumulative IPC: 3.9993 (Simulation time: 0 hr 2 min 41 sec) 
Heartbeat CPU 0 instructions: 50000003 cycles: 12580055 heartbeat IPC: 3.87855 cumulative IPC: 3.97455 (Simulation time: 0 hr 3 min 22 sec) 
Warmup finished CPU 0 instructions: 50000003 cycles: 12580056 cumulative IPC: 3.97455 (Simulation time: 0 hr 3 min 22 sec) 

Warmup complete CPU 0 instructions: 50000003 cycles: 12580056 (Simulation time: 0 hr 3 min 22 sec) 

Heartbeat CPU 0 instructions: 60000004 cycles: 29959397 heartbeat IPC: 0.575396 cumulative IPC: 0.575396 (Simulation time: 0 hr 4 min 35 sec) 
Heartbeat CPU 0 instructions: 70000002 cycles: 51665623 heartbeat IPC: 0.460698 cumulative IPC: 0.511698 (Simulation time: 0 hr 5 min 55 sec) 
Heartbeat CPU 0 instructions: 80000001 cycles: 84657645 heartbeat IPC: 0.303104 cumulative IPC: 0.416219 (Simulation time: 0 hr 7 min 30 sec) 
Heartbeat CPU 0 instructions: 90000003 cycles: 113159019 heartbeat IPC: 0.350861 cumulative IPC: 0.397698 (Simulation time: 0 hr 8 min 57 sec) 
Heartbeat CPU 0 instructions: 100000000 cycles: 145140262 heartbeat IPC: 0.312684 cumulative IPC: 0.377188 (Simulation time: 0 hr 10 min 28 sec) 
Heartbeat CPU 0 instructions: 110000000 cycles: 176261075 heartbeat IPC: 0.321329 cumulative IPC: 0.366567 (Simulation time: 0 hr 11 min 58 sec) 
Heartbeat CPU 0 instructions: 120000000 cycles: 208267006 heartbeat IPC: 0.312443 cumulative IPC: 0.357715 (Simulation time: 0 hr 13 min 26 sec) 
Heartbeat CPU 0 instructions: 130000001 cycles: 240753320 heartbeat IPC: 0.307822 cumulative IPC: 0.350611 (Simulation time: 0 hr 14 min 53 sec) 
Heartbeat CPU 0 instructions: 140000004 cycles: 273796639 heartbeat IPC: 0.302634 cumulative IPC: 0.344542 (Simulation time: 0 hr 16 min 20 sec) 
Heartbeat CPU 0 instructions: 150000002 cycles: 306277441 heartbeat IPC: 0.307875 cumulative IPC: 0.340487 (Simulation time: 0 hr 17 min 47 sec) 
Simulation finished CPU 0 instructions: 100000004 cycles: 293697387 cumulative IPC: 0.340487 (Simulation time: 0 hr 17 min 47 sec) 

Simulation complete CPU 0 instructions: 100000004 cycles: 293697387 (Simulation time: 0 hr 17 min 47 sec) 


ChampSim completed all CPUs

Saving instructions large page distribution to /home/bsc/bsc018186/scratch/itp_asplos25_AE/dump/smt_srv12_ap_srv194_ap_1024i.pdst...
Saving data large page distribution to /home/bsc/bsc018186/scratch/itp_asplos25_AE/dump/smt_srv12_ap_srv194_ap_1024i.pdst...
=== Simulation ===
CPU 0 runs /gpfs/projects/bsc18/MN4/bsc18/romol/ChampSim/traces/qualcomm_srv/smt_srv12_ap_srv194_ap_1024i.champsimtrace.xz

Region of Interest Statistics

CPU 0 cumulative IPC: 0.340487 instructions: 100000004 cycles: 293697387
CPU 0 Branch Prediction Accuracy: 76.6532% MPKI: 44.6624 Average ROB Occupancy at Mispredict: 10.5681
Branch type MPKI
BRANCH_DIRECT_JUMP: 1.40131
BRANCH_INDIRECT: 23.3294
BRANCH_CONDITIONAL: 12.5869
BRANCH_DIRECT_CALL: 2.66418
BRANCH_INDIRECT_CALL: 1.22556
BRANCH_RETURN: 3.45501

Instructions large pages: 0
Instructions small pages: 12295
Large page distribution for instructions: 0%

Data large pages: 0
Data small pages: 10519
Large page distribution for data: 0%

cpu0_L1I TOTAL       ACCESS:   39730730  HIT:   31484292  MISS:    8246438  iACCESS:   39730730  iHIT:   31484292  iMISS:    8246438  dACCESS:          0  dHIT:          0  dMISS:          0  itACCESS:          0  itHIT:          0  itMISS:          0  dtACCESS:          0  dtHIT:          0  dtMISS:          0
cpu0_L1I LOAD         ACCESS:   11361703  HIT:    9108170  MISS:    2253533  iACCESS:   11361703  iHIT:    9108170  iMISS:    2253533  dACCESS:          0  dHIT:          0  dMISS:          0  itACCESS:          0  itHIT:          0  itMISS:          0  dtACCESS:          0  dtHIT:          0  dtMISS:          0
cpu0_L1I RFO          ACCESS:          0  HIT:          0  MISS:          0  iACCESS:          0  iHIT:          0  iMISS:          0  dACCESS:          0  dHIT:          0  dMISS:          0  itACCESS:          0  itHIT:          0  itMISS:          0  dtACCESS:          0  dtHIT:          0  dtMISS:          0
cpu0_L1I PREFETCH     ACCESS:   28369027  HIT:   22376122  MISS:    5992905  iACCESS:   28369027  iHIT:   22376122  iMISS:    5992905  dACCESS:          0  dHIT:          0  dMISS:          0  itACCESS:          0  itHIT:          0  itMISS:          0  dtACCESS:          0  dtHIT:          0  dtMISS:          0
cpu0_L1I WRITE        ACCESS:          0  HIT:          0  MISS:          0  iACCESS:          0  iHIT:          0  iMISS:          0  dACCESS:          0  dHIT:          0  dMISS:          0  itACCESS:          0  itHIT:          0  itMISS:          0  dtACCESS:          0  dtHIT:          0  dtMISS:          0
cpu0_L1I TRANSLATION  ACCESS:          0  HIT:          0  MISS:          0  iACCESS:          0  iHIT:          0  iMISS:          0  dACCESS:          0  dHIT:          0  dMISS:          0  itACCESS:          0  itHIT:          0  itMISS:          0  dtACCESS:          0  dtHIT:          0  dtMISS:          0
cpu0_L1I PREFETCH  REQUESTED:   30958238  ISSUED:   30958043  CROSSED:          0  USEFUL:    2084448  USELESS:     754861
cpu0_L1I AVERAGE iMISS LATENCY: 25.3858 cycles
cpu0_L1I AVERAGE dMISS LATENCY: 0 cycles
cpu0_L1I AVERAGE itMISS LATENCY: 0 cycles
cpu0_L1I AVERAGE dtMISS LATENCY: 0 cycles
cpu0_L1I PAGE CROSSINGS (TLB HIT):         0 
cpu0_L1I PAGE CROSSINGS (TLB MISS):         0 
cpu0_L1I AVERAGE MISS LATENCY: 25.3858 cycles
cpu0_ITLB TOTAL       ACCESS:   33673694  HIT:   31510017  MISS:    2163677  iACCESS:   33673694  iHIT:   31510017  iMISS:    2163677  dACCESS:          0  dHIT:          0  dMISS:          0  itACCESS:          0  itHIT:          0  itMISS:          0  dtACCESS:          0  dtHIT:          0  dtMISS:          0
cpu0_ITLB LOAD         ACCESS:   33673694  HIT:   31510017  MISS:    2163677  iACCESS:   33673694  iHIT:   31510017  iMISS:    2163677  dACCESS:          0  dHIT:          0  dMISS:          0  itACCESS:          0  itHIT:          0  itMISS:          0  dtACCESS:          0  dtHIT:          0  dtMISS:          0
cpu0_ITLB RFO          ACCESS:          0  HIT:          0  MISS:          0  iACCESS:          0  iHIT:          0  iMISS:          0  dACCESS:          0  dHIT:          0  dMISS:          0  itACCESS:          0  itHIT:          0  itMISS:          0  dtACCESS:          0  dtHIT:          0  dtMISS:          0
cpu0_ITLB PREFETCH     ACCESS:          0  HIT:          0  MISS:          0  iACCESS:          0  iHIT:          0  iMISS:          0  dACCESS:          0  dHIT:          0  dMISS:          0  itACCESS:          0  itHIT:          0  itMISS:          0  dtACCESS:          0  dtHIT:          0  dtMISS:          0
cpu0_ITLB WRITE        ACCESS:          0  HIT:          0  MISS:          0  iACCESS:          0  iHIT:          0  iMISS:          0  dACCESS:          0  dHIT:          0  dMISS:          0  itACCESS:          0  itHIT:          0  itMISS:          0  dtACCESS:          0  dtHIT:          0  dtMISS:          0
cpu0_ITLB TRANSLATION  ACCESS:          0  HIT:          0  MISS:          0  iACCESS:          0  iHIT:          0  iMISS:          0  dACCESS:          0  dHIT:          0  dMISS:          0  itACCESS:          0  itHIT:          0  itMISS:          0  dtACCESS:          0  dtHIT:          0  dtMISS:          0
cpu0_ITLB PREFETCH  REQUESTED:          0  ISSUED:          0  CROSSED:          0  USEFUL:     381902  USELESS:      82243
cpu0_ITLB AVERAGE iMISS LATENCY: 7.0981 cycles
cpu0_ITLB AVERAGE dMISS LATENCY: 0 cycles
cpu0_ITLB AVERAGE itMISS LATENCY: 0 cycles
cpu0_ITLB AVERAGE dtMISS LATENCY: 0 cycles
cpu0_ITLB PAGE CROSSINGS (TLB HIT):         0 
cpu0_ITLB PAGE CROSSINGS (TLB MISS):         0 
cpu0_ITLB AVERAGE MISS LATENCY: 7.0981 cycles
cpu0_DTLB TOTAL       ACCESS:   30424951  HIT:   25254534  MISS:    5170417  iACCESS:          0  iHIT:          0  iMISS:          0  dACCESS:   30424951  dHIT:   25254534  dMISS:    5170417  itACCESS:          0  itHIT:          0  itMISS:          0  dtACCESS:          0  dtHIT:          0  dtMISS:          0
cpu0_DTLB LOAD         ACCESS:   30424951  HIT:   25254534  MISS:    5170417  iACCESS:          0  iHIT:          0  iMISS:          0  dACCESS:   30424951  dHIT:   25254534  dMISS:    5170417  itACCESS:          0  itHIT:          0  itMISS:          0  dtACCESS:          0  dtHIT:          0  dtMISS:          0
cpu0_DTLB RFO          ACCESS:          0  HIT:          0  MISS:          0  iACCESS:          0  iHIT:          0  iMISS:          0  dACCESS:          0  dHIT:          0  dMISS:          0  itACCESS:          0  itHIT:          0  itMISS:          0  dtACCESS:          0  dtHIT:          0  dtMISS:          0
cpu0_DTLB PREFETCH     ACCESS:          0  HIT:          0  MISS:          0  iACCESS:          0  iHIT:          0  iMISS:          0  dACCESS:          0  dHIT:          0  dMISS:          0  itACCESS:          0  itHIT:          0  itMISS:          0  dtACCESS:          0  dtHIT:          0  dtMISS:          0
cpu0_DTLB WRITE        ACCESS:          0  HIT:          0  MISS:          0  iACCESS:          0  iHIT:          0  iMISS:          0  dACCESS:          0  dHIT:          0  dMISS:          0  itACCESS:          0  itHIT:          0  itMISS:          0  dtACCESS:          0  dtHIT:          0  dtMISS:          0
cpu0_DTLB TRANSLATION  ACCESS:          0  HIT:          0  MISS:          0  iACCESS:          0  iHIT:          0  iMISS:          0  dACCESS:          0  dHIT:          0  dMISS:          0  itACCESS:          0  itHIT:          0  itMISS:          0  dtACCESS:          0  dtHIT:          0  dtMISS:          0
cpu0_DTLB PREFETCH  REQUESTED:          0  ISSUED:          0  CROSSED:          0  USEFUL:          0  USELESS:          0
cpu0_DTLB AVERAGE iMISS LATENCY: 0 cycles
cpu0_DTLB AVERAGE dMISS LATENCY: 19.3382 cycles
cpu0_DTLB AVERAGE itMISS LATENCY: 0 cycles
cpu0_DTLB AVERAGE dtMISS LATENCY: 0 cycles
cpu0_DTLB PAGE CROSSINGS (TLB HIT):         0 
cpu0_DTLB PAGE CROSSINGS (TLB MISS):         0 
cpu0_DTLB AVERAGE MISS LATENCY: 19.3382 cycles
cpu0_STLB TOTAL       ACCESS:    3278909  HIT:    2932036  MISS:     346873  iACCESS:     464154  iHIT:     402943  iMISS:      61211  dACCESS:    2814755  dHIT:    2529093  dMISS:     285662  itACCESS:          0  itHIT:          0  itMISS:          0  dtACCESS:          0  dtHIT:          0  dtMISS:          0
cpu0_STLB LOAD         ACCESS:    3278909  HIT:    2932036  MISS:     346873  iACCESS:     464154  iHIT:     402943  iMISS:      61211  dACCESS:    2814755  dHIT:    2529093  dMISS:     285662  itACCESS:          0  itHIT:          0  itMISS:          0  dtACCESS:          0  dtHIT:          0  dtMISS:          0
cpu0_STLB RFO          ACCESS:          0  HIT:          0  MISS:          0  iACCESS:          0  iHIT:          0  iMISS:          0  dACCESS:          0  dHIT:          0  dMISS:          0  itACCESS:          0  itHIT:          0  itMISS:          0  dtACCESS:          0  dtHIT:          0  dtMISS:          0
cpu0_STLB PREFETCH     ACCESS:          0  HIT:          0  MISS:          0  iACCESS:          0  iHIT:          0  iMISS:          0  dACCESS:          0  dHIT:          0  dMISS:          0  itACCESS:          0  itHIT:          0  itMISS:          0  dtACCESS:          0  dtHIT:          0  dtMISS:          0
cpu0_STLB WRITE        ACCESS:          0  HIT:          0  MISS:          0  iACCESS:          0  iHIT:          0  iMISS:          0  dACCESS:          0  dHIT:          0  dMISS:          0  itACCESS:          0  itHIT:          0  itMISS:          0  dtACCESS:          0  dtHIT:          0  dtMISS:          0
cpu0_STLB TRANSLATION  ACCESS:          0  HIT:          0  MISS:          0  iACCESS:          0  iHIT:          0  iMISS:          0  dACCESS:          0  dHIT:          0  dMISS:          0  itACCESS:          0  itHIT:          0  itMISS:          0  dtACCESS:          0  dtHIT:          0  dtMISS:          0
cpu0_STLB PREFETCH  REQUESTED:          0  ISSUED:          0  CROSSED:          0  USEFUL:          0  USELESS:          0
cpu0_STLB AVERAGE iMISS LATENCY: 33.7385 cycles
cpu0_STLB AVERAGE dMISS LATENCY: 222.484 cycles
cpu0_STLB AVERAGE itMISS LATENCY: 0 cycles
cpu0_STLB AVERAGE dtMISS LATENCY: 0 cycles
cpu0_STLB PAGE CROSSINGS (TLB HIT):         0 
cpu0_STLB PAGE CROSSINGS (TLB MISS):         0 
cpu0_STLB AVERAGE MISS LATENCY: 256.222 cycles
cpu0_L1D TOTAL       ACCESS:   47450402  HIT:   39830903  MISS:    7619499  iACCESS:          0  iHIT:          0  iMISS:          0  dACCESS:   46910434  dHIT:   39804281  dMISS:    7106153  itACCESS:      71803  itHIT:       5802  itMISS:      66001  dtACCESS:     468165  dtHIT:      20820  dtMISS:     447345
cpu0_L1D LOAD         ACCESS:   22118787  HIT:   18341257  MISS:    3777530  iACCESS:          0  iHIT:          0  iMISS:          0  dACCESS:   22118787  dHIT:   18341257  dMISS:    3777530  itACCESS:          0  itHIT:          0  itMISS:          0  dtACCESS:          0  dtHIT:          0  dtMISS:          0
cpu0_L1D RFO          ACCESS:          0  HIT:          0  MISS:          0  iACCESS:          0  iHIT:          0  iMISS:          0  dACCESS:          0  dHIT:          0  dMISS:          0  itACCESS:          0  itHIT:          0  itMISS:          0  dtACCESS:          0  dtHIT:          0  dtMISS:          0
cpu0_L1D PREFETCH     ACCESS:   14709375  HIT:   11995428  MISS:    2713947  iACCESS:          0  iHIT:          0  iMISS:          0  dACCESS:   14709375  dHIT:   11995428  dMISS:    2713947  itACCESS:          0  itHIT:          0  itMISS:          0  dtACCESS:          0  dtHIT:          0  dtMISS:          0
cpu0_L1D WRITE        ACCESS:   10082272  HIT:    9467596  MISS:     614676  iACCESS:          0  iHIT:          0  iMISS:          0  dACCESS:   10082272  dHIT:    9467596  dMISS:     614676  itACCESS:          0  itHIT:          0  itMISS:          0  dtACCESS:          0  dtHIT:          0  dtMISS:          0
cpu0_L1D TRANSLATION  ACCESS:     539968  HIT:      26622  MISS:     513346  iACCESS:          0  iHIT:          0  iMISS:          0  dACCESS:          0  dHIT:          0  dMISS:          0  itACCESS:      71803  itHIT:       5802  itMISS:      66001  dtACCESS:     468165  dtHIT:      20820  dtMISS:     447345
cpu0_L1D PREFETCH  REQUESTED:   22118787  ISSUED:   18935967  CROSSED:          0  USEFUL:     336069  USELESS:    1043614
cpu0_L1D AVERAGE iMISS LATENCY: 0 cycles
cpu0_L1D AVERAGE dMISS LATENCY: 38.4641 cycles
cpu0_L1D AVERAGE itMISS LATENCY: 1.45427 cycles
cpu0_L1D AVERAGE dtMISS LATENCY: 9.47479 cycles
cpu0_L1D PAGE CROSSINGS (TLB HIT):         0 
cpu0_L1D PAGE CROSSINGS (TLB MISS):         0 
cpu0_L1D AVERAGE MISS LATENCY: 49.3931 cycles
cpu0_L2C TOTAL       ACCESS:    9598163  HIT:    5401430  MISS:    4196733  iACCESS:    3623160  iHIT:    2178197  iMISS:    1444963  dACCESS:    5502529  dHIT:    3161637  dMISS:    2340892  itACCESS:      65756  itHIT:       9944  itMISS:      55812  dtACCESS:     406718  dtHIT:      51652  dtMISS:     355066
cpu0_L2C LOAD         ACCESS:    3167721  HIT:    2178059  MISS:     989662  iACCESS:     816214  iHIT:     516847  iMISS:     299367  dACCESS:    2351507  dHIT:    1661212  dMISS:     690295  itACCESS:          0  itHIT:          0  itMISS:          0  dtACCESS:          0  dtHIT:          0  dtMISS:          0
cpu0_L2C RFO          ACCESS:     243072  HIT:     114383  MISS:     128689  iACCESS:          0  iHIT:          0  iMISS:          0  dACCESS:     243072  dHIT:     114383  dMISS:     128689  itACCESS:          0  itHIT:          0  itMISS:          0  dtACCESS:          0  dtHIT:          0  dtMISS:          0
cpu0_L2C PREFETCH     ACCESS:    5384687  HIT:    2720651  MISS:    2664036  iACCESS:    2806946  iHIT:    1661350  iMISS:    1145596  dACCESS:    2577741  dHIT:    1059301  dMISS:    1518440  itACCESS:          0  itHIT:          0  itMISS:          0  dtACCESS:          0  dtHIT:          0  dtMISS:          0
cpu0_L2C WRITE        ACCESS:     330209  HIT:     326741  MISS:       3468  iACCESS:          0  iHIT:          0  iMISS:          0  dACCESS:     330209  dHIT:     326741  dMISS:       3468  itACCESS:          0  itHIT:          0  itMISS:          0  dtACCESS:          0  dtHIT:          0  dtMISS:          0
cpu0_L2C TRANSLATION  ACCESS:     472474  HIT:      61596  MISS:     410878  iACCESS:          0  iHIT:          0  iMISS:          0  dACCESS:          0  dHIT:          0  dMISS:          0  itACCESS:      65756  itHIT:       9944  itMISS:      55812  dtACCESS:     406718  dtHIT:      51652  dtMISS:     355066
cpu0_L2C PREFETCH  REQUESTED:    1406693  ISSUED:    1406674  CROSSED:          0  USEFUL:     325546  USELESS:     304850
cpu0_L2C AVERAGE iMISS LATENCY: 42.7626 cycles
cpu0_L2C AVERAGE dMISS LATENCY: 81.1674 cycles
cpu0_L2C AVERAGE itMISS LATENCY: 2.48553 cycles
cpu0_L2C AVERAGE dtMISS LATENCY: 16.2398 cycles
cpu0_L2C PAGE CROSSINGS (TLB HIT):         0 
cpu0_L2C PAGE CROSSINGS (TLB MISS):         0 
cpu0_L2C AVERAGE MISS LATENCY: 142.656 cycles
LLC TOTAL       ACCESS:    4186637  HIT:    1185294  MISS:    3001343  iACCESS:    1363538  iHIT:     407218  iMISS:     956320  dACCESS:    2412221  dHIT:     732617  dMISS:    1679604  itACCESS:      55812  itHIT:       3672  itMISS:      52140  dtACCESS:     355066  dtHIT:      41787  dtMISS:     313279
LLC LOAD         ACCESS:     983085  HIT:     288963  MISS:     694122  iACCESS:     298393  iHIT:      95555  iMISS:     202838  dACCESS:     684692  dHIT:     193408  dMISS:     491284  itACCESS:          0  itHIT:          0  itMISS:          0  dtACCESS:          0  dtHIT:          0  dtMISS:          0
LLC RFO          ACCESS:     128675  HIT:      35076  MISS:      93599  iACCESS:          0  iHIT:          0  iMISS:          0  dACCESS:     128675  dHIT:      35076  dMISS:      93599  itACCESS:          0  itHIT:          0  itMISS:          0  dtACCESS:          0  dtHIT:          0  dtMISS:          0
LLC PREFETCH     ACCESS:    2473396  HIT:     635029  MISS:    1838367  iACCESS:    1065145  iHIT:     311663  iMISS:     753482  dACCESS:    1408251  dHIT:     323366  dMISS:    1084885  itACCESS:          0  itHIT:          0  itMISS:          0  dtACCESS:          0  dtHIT:          0  dtMISS:          0
LLC WRITE        ACCESS:     190603  HIT:     180767  MISS:       9836  iACCESS:          0  iHIT:          0  iMISS:          0  dACCESS:     190603  dHIT:     180767  dMISS:       9836  itACCESS:          0  itHIT:          0  itMISS:          0  dtACCESS:          0  dtHIT:          0  dtMISS:          0
LLC TRANSLATION  ACCESS:     410878  HIT:      45459  MISS:     365419  iACCESS:          0  iHIT:          0  iMISS:          0  dACCESS:          0  dHIT:          0  dMISS:          0  itACCESS:      55812  itHIT:       3672  itMISS:      52140  dtACCESS:     355066  dtHIT:      41787  dtMISS:     313279
LLC PREFETCH  REQUESTED:          0  ISSUED:          0  CROSSED:          0  USEFUL:          0  USELESS:          0
LLC AVERAGE iMISS LATENCY: 50.8491 cycles
LLC AVERAGE dMISS LATENCY: 99.7799 cycles
LLC AVERAGE itMISS LATENCY: 3.10657 cycles
LLC AVERAGE dtMISS LATENCY: 20.3701 cycles
LLC PAGE CROSSINGS (TLB HIT):         0 
LLC PAGE CROSSINGS (TLB MISS):         0 
LLC AVERAGE MISS LATENCY: 174.106 cycles

PageTableWalker TOTAL       ACCESS:     165240  
PageTableWalker AVERAGE LATENCY: 6.78374 cycles
PageTableWalker TOTAL LATENCY: 1120944 cycles

DRAM Statistics
Channel 0
 RQ ROW_BUFFER_HIT:     625961
  ROW_BUFFER_MISS:    2348200
 AVG DBUS CONGESTED CYCLE:    3.65297
 WQ ROW_BUFFER_HIT:      62660
  ROW_BUFFER_MISS:      53246  FULL:          0

