last_page:0x200000000000000
VMEM_RES_CAP:0x100000
PAGE_SIZE:4096
LOG2_PAGE_SIZE:12
LOG2_PAGE_TABLE_SIZE:9
page_table_levels:5
WARNING: physical memory size is smaller than virtual memory size
FDiP enabled with aggresivity 16

*** ChampSim Multicore Out-of-Order Simulator ***

Warmup Instructions: 50000000
Simulation Instructions: 100000000
Number of CPUs: 1
Small page size: 4096
Large page size: 2097152

CPU 0 Bimodal branch predictor
Basic BTB sets: 1024 ways: 8 indirect buffer size: 4096 RAS size: 64
Instruction page size distrubution: 0
Loading instruction page size distribution from /home/bsc/bsc018186/scratch/itp_asplos25_AE/dump/smt_srv85_ap_srv128_ap_1024i.pdst
Data page size distrubution: 0
Loading data page size distribution from /home/bsc/bsc018186/scratch/itp_asplos25_AE/dump/smt_srv85_ap_srv128_ap_1024i.pdst
cpu0_L2C IP-based stride prefetcher
cpu0_L2C is using PTP replacement policy:
	TLB_STRESS_THRESHOLD:0
	PTE_EVICTION_RATIO:0
cpu0_L1D next line prefetcher
CHiRPing...
cpu0_L1I next line prefetcher
Off-chip DRAM Size: 4 GiB Channels: 1 Width: 64-bit Data Rate: 3200 MT/s
Heartbeat CPU 0 instructions: 10000000 cycles: 2500468 heartbeat IPC: 3.99926 cumulative IPC: 3.99926 (Simulation time: 0 hr 0 min 36 sec) 
Heartbeat CPU 0 instructions: 20000000 cycles: 5079739 heartbeat IPC: 3.87707 cumulative IPC: 3.93722 (Simulation time: 0 hr 1 min 15 sec) 
Heartbeat CPU 0 instructions: 30000003 cycles: 7628109 heartbeat IPC: 3.92408 cumulative IPC: 3.93283 (Simulation time: 0 hr 1 min 55 sec) 
Heartbeat CPU 0 instructions: 40000002 cycles: 10169327 heartbeat IPC: 3.93513 cumulative IPC: 3.9334 (Simulation time: 0 hr 2 min 35 sec) 
Heartbeat CPU 0 instructions: 50000003 cycles: 12669760 heartbeat IPC: 3.99931 cumulative IPC: 3.94641 (Simulation time: 0 hr 3 min 14 sec) 
Warmup finished CPU 0 instructions: 50000003 cycles: 12669761 cumulative IPC: 3.94641 (Simulation time: 0 hr 3 min 14 sec) 

Warmup complete CPU 0 instructions: 50000003 cycles: 12669761 (Simulation time: 0 hr 3 min 14 sec) 

Heartbeat CPU 0 instructions: 60000000 cycles: 42886076 heartbeat IPC: 0.330947 cumulative IPC: 0.330947 (Simulation time: 0 hr 4 min 36 sec) 
Heartbeat CPU 0 instructions: 70000000 cycles: 72978881 heartbeat IPC: 0.332306 cumulative IPC: 0.331625 (Simulation time: 0 hr 5 min 58 sec) 
Heartbeat CPU 0 instructions: 80000002 cycles: 103576891 heartbeat IPC: 0.326819 cumulative IPC: 0.330008 (Simulation time: 0 hr 7 min 21 sec) 
Heartbeat CPU 0 instructions: 90000002 cycles: 133560752 heartbeat IPC: 0.333513 cumulative IPC: 0.330877 (Simulation time: 0 hr 8 min 42 sec) 
Heartbeat CPU 0 instructions: 100000000 cycles: 164776693 heartbeat IPC: 0.32035 cumulative IPC: 0.328717 (Simulation time: 0 hr 10 min 6 sec) 
Heartbeat CPU 0 instructions: 110000000 cycles: 195113799 heartbeat IPC: 0.32963 cumulative IPC: 0.328868 (Simulation time: 0 hr 11 min 28 sec) 
Heartbeat CPU 0 instructions: 120000000 cycles: 226212511 heartbeat IPC: 0.321557 cumulative IPC: 0.327804 (Simulation time: 0 hr 12 min 51 sec) 
Heartbeat CPU 0 instructions: 130000000 cycles: 256542578 heartbeat IPC: 0.329706 cumulative IPC: 0.32804 (Simulation time: 0 hr 14 min 13 sec) 
Heartbeat CPU 0 instructions: 140000004 cycles: 286986088 heartbeat IPC: 0.328478 cumulative IPC: 0.328089 (Simulation time: 0 hr 15 min 36 sec) 
Heartbeat CPU 0 instructions: 150000000 cycles: 318476778 heartbeat IPC: 0.317555 cumulative IPC: 0.327004 (Simulation time: 0 hr 17 min 0 sec) 
Simulation finished CPU 0 instructions: 100000002 cycles: 305807019 cumulative IPC: 0.327004 (Simulation time: 0 hr 17 min 0 sec) 

Simulation complete CPU 0 instructions: 100000002 cycles: 305807019 (Simulation time: 0 hr 17 min 0 sec) 


ChampSim completed all CPUs

Saving instructions large page distribution to /home/bsc/bsc018186/scratch/itp_asplos25_AE/dump/smt_srv85_ap_srv128_ap_1024i.pdst...
Saving data large page distribution to /home/bsc/bsc018186/scratch/itp_asplos25_AE/dump/smt_srv85_ap_srv128_ap_1024i.pdst...
=== Simulation ===
CPU 0 runs /gpfs/projects/bsc18/MN4/bsc18/romol/ChampSim/traces/qualcomm_srv/smt_srv85_ap_srv128_ap_1024i.champsimtrace.xz

Region of Interest Statistics

CPU 0 cumulative IPC: 0.327004 instructions: 100000002 cycles: 305807019
CPU 0 Branch Prediction Accuracy: 75.0492% MPKI: 44.9943 Average ROB Occupancy at Mispredict: 10.7485
Branch type MPKI
BRANCH_DIRECT_JUMP: 1.39321
BRANCH_INDIRECT: 23.3239
BRANCH_CONDITIONAL: 13.0686
BRANCH_DIRECT_CALL: 2.66733
BRANCH_INDIRECT_CALL: 1.0116
BRANCH_RETURN: 3.52962

Instructions large pages: 0
Instructions small pages: 10022
Large page distribution for instructions: 0%

Data large pages: 0
Data small pages: 8595
Large page distribution for data: 0%

cpu0_L1I TOTAL       ACCESS:   39244965  HIT:   30456983  MISS:    8787982  iACCESS:   39244965  iHIT:   30456983  iMISS:    8787982  dACCESS:          0  dHIT:          0  dMISS:          0  itACCESS:          0  itHIT:          0  itMISS:          0  dtACCESS:          0  dtHIT:          0  dtMISS:          0
cpu0_L1I LOAD         ACCESS:   11728969  HIT:    9337186  MISS:    2391783  iACCESS:   11728969  iHIT:    9337186  iMISS:    2391783  dACCESS:          0  dHIT:          0  dMISS:          0  itACCESS:          0  itHIT:          0  itMISS:          0  dtACCESS:          0  dtHIT:          0  dtMISS:          0
cpu0_L1I RFO          ACCESS:          0  HIT:          0  MISS:          0  iACCESS:          0  iHIT:          0  iMISS:          0  dACCESS:          0  dHIT:          0  dMISS:          0  itACCESS:          0  itHIT:          0  itMISS:          0  dtACCESS:          0  dtHIT:          0  dtMISS:          0
cpu0_L1I PREFETCH     ACCESS:   27515996  HIT:   21119797  MISS:    6396199  iACCESS:   27515996  iHIT:   21119797  iMISS:    6396199  dACCESS:          0  dHIT:          0  dMISS:          0  itACCESS:          0  itHIT:          0  itMISS:          0  dtACCESS:          0  dtHIT:          0  dtMISS:          0
cpu0_L1I WRITE        ACCESS:          0  HIT:          0  MISS:          0  iACCESS:          0  iHIT:          0  iMISS:          0  dACCESS:          0  dHIT:          0  dMISS:          0  itACCESS:          0  itHIT:          0  itMISS:          0  dtACCESS:          0  dtHIT:          0  dtMISS:          0
cpu0_L1I TRANSLATION  ACCESS:          0  HIT:          0  MISS:          0  iACCESS:          0  iHIT:          0  iMISS:          0  dACCESS:          0  dHIT:          0  dMISS:          0  itACCESS:          0  itHIT:          0  itMISS:          0  dtACCESS:          0  dtHIT:          0  dtMISS:          0
cpu0_L1I PREFETCH  REQUESTED:   30309849  ISSUED:   30309735  CROSSED:          0  USEFUL:    2222469  USELESS:     775475
cpu0_L1I AVERAGE iMISS LATENCY: 24.5993 cycles
cpu0_L1I AVERAGE dMISS LATENCY: 0 cycles
cpu0_L1I AVERAGE itMISS LATENCY: 0 cycles
cpu0_L1I AVERAGE dtMISS LATENCY: 0 cycles
cpu0_L1I PAGE CROSSINGS (TLB HIT):         0 
cpu0_L1I PAGE CROSSINGS (TLB MISS):         0 
cpu0_L1I AVERAGE MISS LATENCY: 24.5993 cycles
cpu0_ITLB TOTAL       ACCESS:   33250589  HIT:   30991802  MISS:    2258787  iACCESS:   33250589  iHIT:   30991802  iMISS:    2258787  dACCESS:          0  dHIT:          0  dMISS:          0  itACCESS:          0  itHIT:          0  itMISS:          0  dtACCESS:          0  dtHIT:          0  dtMISS:          0
cpu0_ITLB LOAD         ACCESS:   33250589  HIT:   30991802  MISS:    2258787  iACCESS:   33250589  iHIT:   30991802  iMISS:    2258787  dACCESS:          0  dHIT:          0  dMISS:          0  itACCESS:          0  itHIT:          0  itMISS:          0  dtACCESS:          0  dtHIT:          0  dtMISS:          0
cpu0_ITLB RFO          ACCESS:          0  HIT:          0  MISS:          0  iACCESS:          0  iHIT:          0  iMISS:          0  dACCESS:          0  dHIT:          0  dMISS:          0  itACCESS:          0  itHIT:          0  itMISS:          0  dtACCESS:          0  dtHIT:          0  dtMISS:          0
cpu0_ITLB PREFETCH     ACCESS:          0  HIT:          0  MISS:          0  iACCESS:          0  iHIT:          0  iMISS:          0  dACCESS:          0  dHIT:          0  dMISS:          0  itACCESS:          0  itHIT:          0  itMISS:          0  dtACCESS:          0  dtHIT:          0  dtMISS:          0
cpu0_ITLB WRITE        ACCESS:          0  HIT:          0  MISS:          0  iACCESS:          0  iHIT:          0  iMISS:          0  dACCESS:          0  dHIT:          0  dMISS:          0  itACCESS:          0  itHIT:          0  itMISS:          0  dtACCESS:          0  dtHIT:          0  dtMISS:          0
cpu0_ITLB TRANSLATION  ACCESS:          0  HIT:          0  MISS:          0  iACCESS:          0  iHIT:          0  iMISS:          0  dACCESS:          0  dHIT:          0  dMISS:          0  itACCESS:          0  itHIT:          0  itMISS:          0  dtACCESS:          0  dtHIT:          0  dtMISS:          0
cpu0_ITLB PREFETCH  REQUESTED:          0  ISSUED:          0  CROSSED:          0  USEFUL:     393628  USELESS:      80937
cpu0_ITLB AVERAGE iMISS LATENCY: 10.3759 cycles
cpu0_ITLB AVERAGE dMISS LATENCY: 0 cycles
cpu0_ITLB AVERAGE itMISS LATENCY: 0 cycles
cpu0_ITLB AVERAGE dtMISS LATENCY: 0 cycles
cpu0_ITLB PAGE CROSSINGS (TLB HIT):         0 
cpu0_ITLB PAGE CROSSINGS (TLB MISS):         0 
cpu0_ITLB AVERAGE MISS LATENCY: 10.3759 cycles
cpu0_DTLB TOTAL       ACCESS:   28870550  HIT:   25264926  MISS:    3605624  iACCESS:          0  iHIT:          0  iMISS:          0  dACCESS:   28870550  dHIT:   25264926  dMISS:    3605624  itACCESS:          0  itHIT:          0  itMISS:          0  dtACCESS:          0  dtHIT:          0  dtMISS:          0
cpu0_DTLB LOAD         ACCESS:   28870550  HIT:   25264926  MISS:    3605624  iACCESS:          0  iHIT:          0  iMISS:          0  dACCESS:   28870550  dHIT:   25264926  dMISS:    3605624  itACCESS:          0  itHIT:          0  itMISS:          0  dtACCESS:          0  dtHIT:          0  dtMISS:          0
cpu0_DTLB RFO          ACCESS:          0  HIT:          0  MISS:          0  iACCESS:          0  iHIT:          0  iMISS:          0  dACCESS:          0  dHIT:          0  dMISS:          0  itACCESS:          0  itHIT:          0  itMISS:          0  dtACCESS:          0  dtHIT:          0  dtMISS:          0
cpu0_DTLB PREFETCH     ACCESS:          0  HIT:          0  MISS:          0  iACCESS:          0  iHIT:          0  iMISS:          0  dACCESS:          0  dHIT:          0  dMISS:          0  itACCESS:          0  itHIT:          0  itMISS:          0  dtACCESS:          0  dtHIT:          0  dtMISS:          0
cpu0_DTLB WRITE        ACCESS:          0  HIT:          0  MISS:          0  iACCESS:          0  iHIT:          0  iMISS:          0  dACCESS:          0  dHIT:          0  dMISS:          0  itACCESS:          0  itHIT:          0  itMISS:          0  dtACCESS:          0  dtHIT:          0  dtMISS:          0
cpu0_DTLB TRANSLATION  ACCESS:          0  HIT:          0  MISS:          0  iACCESS:          0  iHIT:          0  iMISS:          0  dACCESS:          0  dHIT:          0  dMISS:          0  itACCESS:          0  itHIT:          0  itMISS:          0  dtACCESS:          0  dtHIT:          0  dtMISS:          0
cpu0_DTLB PREFETCH  REQUESTED:          0  ISSUED:          0  CROSSED:          0  USEFUL:          0  USELESS:          0
cpu0_DTLB AVERAGE iMISS LATENCY: 0 cycles
cpu0_DTLB AVERAGE dMISS LATENCY: 25.4228 cycles
cpu0_DTLB AVERAGE itMISS LATENCY: 0 cycles
cpu0_DTLB AVERAGE dtMISS LATENCY: 0 cycles
cpu0_DTLB PAGE CROSSINGS (TLB HIT):         0 
cpu0_DTLB PAGE CROSSINGS (TLB MISS):         0 
cpu0_DTLB AVERAGE MISS LATENCY: 25.4228 cycles
cpu0_STLB TOTAL       ACCESS:    2591639  HIT:    2203131  MISS:     388508  iACCESS:     474572  iHIT:     356874  iMISS:     117698  dACCESS:    2117067  dHIT:    1846257  dMISS:     270810  itACCESS:          0  itHIT:          0  itMISS:          0  dtACCESS:          0  dtHIT:          0  dtMISS:          0
cpu0_STLB LOAD         ACCESS:    2591639  HIT:    2203131  MISS:     388508  iACCESS:     474572  iHIT:     356874  iMISS:     117698  dACCESS:    2117067  dHIT:    1846257  dMISS:     270810  itACCESS:          0  itHIT:          0  itMISS:          0  dtACCESS:          0  dtHIT:          0  dtMISS:          0
cpu0_STLB RFO          ACCESS:          0  HIT:          0  MISS:          0  iACCESS:          0  iHIT:          0  iMISS:          0  dACCESS:          0  dHIT:          0  dMISS:          0  itACCESS:          0  itHIT:          0  itMISS:          0  dtACCESS:          0  dtHIT:          0  dtMISS:          0
cpu0_STLB PREFETCH     ACCESS:          0  HIT:          0  MISS:          0  iACCESS:          0  iHIT:          0  iMISS:          0  dACCESS:          0  dHIT:          0  dMISS:          0  itACCESS:          0  itHIT:          0  itMISS:          0  dtACCESS:          0  dtHIT:          0  dtMISS:          0
cpu0_STLB WRITE        ACCESS:          0  HIT:          0  MISS:          0  iACCESS:          0  iHIT:          0  iMISS:          0  dACCESS:          0  dHIT:          0  dMISS:          0  itACCESS:          0  itHIT:          0  itMISS:          0  dtACCESS:          0  dtHIT:          0  dtMISS:          0
cpu0_STLB TRANSLATION  ACCESS:          0  HIT:          0  MISS:          0  iACCESS:          0  iHIT:          0  iMISS:          0  dACCESS:          0  dHIT:          0  dMISS:          0  itACCESS:          0  itHIT:          0  itMISS:          0  dtACCESS:          0  dtHIT:          0  dtMISS:          0
cpu0_STLB PREFETCH  REQUESTED:          0  ISSUED:          0  CROSSED:          0  USEFUL:          0  USELESS:          0
cpu0_STLB AVERAGE iMISS LATENCY: 50.5449 cycles
cpu0_STLB AVERAGE dMISS LATENCY: 192.064 cycles
cpu0_STLB AVERAGE itMISS LATENCY: 0 cycles
cpu0_STLB AVERAGE dtMISS LATENCY: 0 cycles
cpu0_STLB PAGE CROSSINGS (TLB HIT):         0 
cpu0_STLB PAGE CROSSINGS (TLB MISS):         0 
cpu0_STLB AVERAGE MISS LATENCY: 242.609 cycles
cpu0_L1D TOTAL       ACCESS:   45186714  HIT:   39231540  MISS:    5955174  iACCESS:          0  iHIT:          0  iMISS:          0  dACCESS:   44610743  dHIT:   39198360  dMISS:    5412383  itACCESS:     133935  itHIT:      14405  itMISS:     119530  dtACCESS:     442036  dtHIT:      18775  dtMISS:     423261
cpu0_L1D LOAD         ACCESS:   20339907  HIT:   17912934  MISS:    2426973  iACCESS:          0  iHIT:          0  iMISS:          0  dACCESS:   20339907  dHIT:   17912934  dMISS:    2426973  itACCESS:          0  itHIT:          0  itMISS:          0  dtACCESS:          0  dtHIT:          0  dtMISS:          0
cpu0_L1D RFO          ACCESS:          0  HIT:          0  MISS:          0  iACCESS:          0  iHIT:          0  iMISS:          0  dACCESS:          0  dHIT:          0  dMISS:          0  itACCESS:          0  itHIT:          0  itMISS:          0  dtACCESS:          0  dtHIT:          0  dtMISS:          0
cpu0_L1D PREFETCH     ACCESS:   14100421  HIT:   11704651  MISS:    2395770  iACCESS:          0  iHIT:          0  iMISS:          0  dACCESS:   14100421  dHIT:   11704651  dMISS:    2395770  itACCESS:          0  itHIT:          0  itMISS:          0  dtACCESS:          0  dtHIT:          0  dtMISS:          0
cpu0_L1D WRITE        ACCESS:   10170415  HIT:    9580775  MISS:     589640  iACCESS:          0  iHIT:          0  iMISS:          0  dACCESS:   10170415  dHIT:    9580775  dMISS:     589640  itACCESS:          0  itHIT:          0  itMISS:          0  dtACCESS:          0  dtHIT:          0  dtMISS:          0
cpu0_L1D TRANSLATION  ACCESS:     575971  HIT:      33180  MISS:     542791  iACCESS:          0  iHIT:          0  iMISS:          0  dACCESS:          0  dHIT:          0  dMISS:          0  itACCESS:     133935  itHIT:      14405  itMISS:     119530  dtACCESS:     442036  dtHIT:      18775  dtMISS:     423261
cpu0_L1D PREFETCH  REQUESTED:   20339907  ISSUED:   18503506  CROSSED:          0  USEFUL:     359389  USELESS:     940066
cpu0_L1D AVERAGE iMISS LATENCY: 0 cycles
cpu0_L1D AVERAGE dMISS LATENCY: 49.036 cycles
cpu0_L1D AVERAGE itMISS LATENCY: 3.11164 cycles
cpu0_L1D AVERAGE dtMISS LATENCY: 11.7421 cycles
cpu0_L1D PAGE CROSSINGS (TLB HIT):         0 
cpu0_L1D PAGE CROSSINGS (TLB MISS):         0 
cpu0_L1D AVERAGE MISS LATENCY: 63.8897 cycles
cpu0_L2C TOTAL       ACCESS:    8695138  HIT:    4066647  MISS:    4628491  iACCESS:    3814763  iHIT:    2243474  iMISS:    1571289  dACCESS:    4377896  dHIT:    1756156  dMISS:    2621740  itACCESS:     116774  itHIT:      20841  itMISS:      95933  dtACCESS:     385705  dtHIT:      46176  dtMISS:     339529
cpu0_L2C LOAD         ACCESS:    2074667  HIT:     966531  MISS:    1108136  iACCESS:     854451  iHIT:     522015  iMISS:     332436  dACCESS:    1220216  dHIT:     444516  dMISS:     775700  itACCESS:          0  itHIT:          0  itMISS:          0  dtACCESS:          0  dtHIT:          0  dtMISS:          0
cpu0_L2C RFO          ACCESS:     216818  HIT:      79079  MISS:     137739  iACCESS:          0  iHIT:          0  iMISS:          0  dACCESS:     216818  dHIT:      79079  dMISS:     137739  itACCESS:          0  itHIT:          0  itMISS:          0  dtACCESS:          0  dtHIT:          0  dtMISS:          0
cpu0_L2C PREFETCH     ACCESS:    5554985  HIT:    2626992  MISS:    2927993  iACCESS:    2960312  iHIT:    1721459  iMISS:    1238853  dACCESS:    2594673  dHIT:     905533  dMISS:    1689140  itACCESS:          0  itHIT:          0  itMISS:          0  dtACCESS:          0  dtHIT:          0  dtMISS:          0
cpu0_L2C WRITE        ACCESS:     346189  HIT:     327028  MISS:      19161  iACCESS:          0  iHIT:          0  iMISS:          0  dACCESS:     346189  dHIT:     327028  dMISS:      19161  itACCESS:          0  itHIT:          0  itMISS:          0  dtACCESS:          0  dtHIT:          0  dtMISS:          0
cpu0_L2C TRANSLATION  ACCESS:     502479  HIT:      67017  MISS:     435462  iACCESS:          0  iHIT:          0  iMISS:          0  dACCESS:          0  dHIT:          0  dMISS:          0  itACCESS:     116774  itHIT:      20841  itMISS:      95933  dtACCESS:     385705  dtHIT:      46176  dtMISS:     339529
cpu0_L2C PREFETCH  REQUESTED:    1536799  ISSUED:    1536796  CROSSED:          0  USEFUL:     358303  USELESS:     336657
cpu0_L2C AVERAGE iMISS LATENCY: 39.8276 cycles
cpu0_L2C AVERAGE dMISS LATENCY: 78.4955 cycles
cpu0_L2C AVERAGE itMISS LATENCY: 3.75498 cycles
cpu0_L2C AVERAGE dtMISS LATENCY: 14.2798 cycles
cpu0_L2C PAGE CROSSINGS (TLB HIT):         0 
cpu0_L2C PAGE CROSSINGS (TLB MISS):         0 
cpu0_L2C AVERAGE MISS LATENCY: 136.358 cycles
LLC TOTAL       ACCESS:    4606104  HIT:    1446825  MISS:    3159279  iACCESS:    1479940  iHIT:     499500  iMISS:     980440  dACCESS:    2690702  dHIT:     904304  dMISS:    1786398  itACCESS:      95933  itHIT:       9295  itMISS:      86638  dtACCESS:     339529  dtHIT:      33726  dtMISS:     305803
LLC LOAD         ACCESS:    1100573  HIT:     369599  MISS:     730974  iACCESS:     331224  iHIT:     120660  iMISS:     210564  dACCESS:     769349  dHIT:     248939  dMISS:     520410  itACCESS:          0  itHIT:          0  itMISS:          0  dtACCESS:          0  dtHIT:          0  dtMISS:          0
LLC RFO          ACCESS:     137734  HIT:      42882  MISS:      94852  iACCESS:          0  iHIT:          0  iMISS:          0  dACCESS:     137734  dHIT:      42882  dMISS:      94852  itACCESS:          0  itHIT:          0  itMISS:          0  dtACCESS:          0  dtHIT:          0  dtMISS:          0
LLC PREFETCH     ACCESS:    2712395  HIT:     781472  MISS:    1930923  iACCESS:    1148716  iHIT:     378840  iMISS:     769876  dACCESS:    1563679  dHIT:     402632  dMISS:    1161047  itACCESS:          0  itHIT:          0  itMISS:          0  dtACCESS:          0  dtHIT:          0  dtMISS:          0
LLC WRITE        ACCESS:     219940  HIT:     209851  MISS:      10089  iACCESS:          0  iHIT:          0  iMISS:          0  dACCESS:     219940  dHIT:     209851  dMISS:      10089  itACCESS:          0  itHIT:          0  itMISS:          0  dtACCESS:          0  dtHIT:          0  dtMISS:          0
LLC TRANSLATION  ACCESS:     435462  HIT:      43021  MISS:     392441  iACCESS:          0  iHIT:          0  iMISS:          0  dACCESS:          0  dHIT:          0  dMISS:          0  itACCESS:      95933  itHIT:       9295  itMISS:      86638  dtACCESS:     339529  dtHIT:      33726  dtMISS:     305803
LLC PREFETCH  REQUESTED:          0  ISSUED:          0  CROSSED:          0  USEFUL:          0  USELESS:          0
LLC AVERAGE iMISS LATENCY: 49.1271 cycles
LLC AVERAGE dMISS LATENCY: 100.618 cycles
LLC AVERAGE itMISS LATENCY: 4.89955 cycles
LLC AVERAGE dtMISS LATENCY: 18.7952 cycles
LLC PAGE CROSSINGS (TLB HIT):         0 
LLC PAGE CROSSINGS (TLB MISS):         0 
LLC AVERAGE MISS LATENCY: 173.44 cycles

PageTableWalker TOTAL       ACCESS:     147251  
PageTableWalker AVERAGE LATENCY: 6.31042 cycles
PageTableWalker TOTAL LATENCY: 929215 cycles

DRAM Statistics
Channel 0
 RQ ROW_BUFFER_HIT:     654315
  ROW_BUFFER_MISS:    2474773
 AVG DBUS CONGESTED CYCLE:    3.65137
 WQ ROW_BUFFER_HIT:      69231
  ROW_BUFFER_MISS:      59755  FULL:          0

