last_page:0x200000000000000
VMEM_RES_CAP:0x100000
PAGE_SIZE:4096
LOG2_PAGE_SIZE:12
LOG2_PAGE_TABLE_SIZE:9
page_table_levels:5
WARNING: physical memory size is smaller than virtual memory size
FDiP enabled with aggresivity 16

*** ChampSim Multicore Out-of-Order Simulator ***

Warmup Instructions: 50000000
Simulation Instructions: 100000000
Number of CPUs: 1
Small page size: 4096
Large page size: 2097152

CPU 0 Bimodal branch predictor
Basic BTB sets: 1024 ways: 8 indirect buffer size: 4096 RAS size: 64
Instruction page size distrubution: 0
Loading instruction page size distribution from /home/bsc/bsc018186/scratch/itp_asplos25_AE/dump/smt_srv85_ap_srv180_ap_1024i.pdst
Data page size distrubution: 0
Loading data page size distribution from /home/bsc/bsc018186/scratch/itp_asplos25_AE/dump/smt_srv85_ap_srv180_ap_1024i.pdst
cpu0_L2C IP-based stride prefetcher
cpu0_L2C is using PTP replacement policy:
	TLB_STRESS_THRESHOLD:0
	PTE_EVICTION_RATIO:0
cpu0_L1D next line prefetcher
cpu0_L1I next line prefetcher
Off-chip DRAM Size: 4 GiB Channels: 1 Width: 64-bit Data Rate: 3200 MT/s
Heartbeat CPU 0 instructions: 10000001 cycles: 2500614 heartbeat IPC: 3.99902 cumulative IPC: 3.99902 (Simulation time: 0 hr 0 min 44 sec) 
Heartbeat CPU 0 instructions: 20000000 cycles: 5000900 heartbeat IPC: 3.99955 cumulative IPC: 3.99929 (Simulation time: 0 hr 1 min 29 sec) 
Heartbeat CPU 0 instructions: 30000002 cycles: 7501198 heartbeat IPC: 3.99953 cumulative IPC: 3.99937 (Simulation time: 0 hr 2 min 16 sec) 
Heartbeat CPU 0 instructions: 40000000 cycles: 10001600 heartbeat IPC: 3.99936 cumulative IPC: 3.99937 (Simulation time: 0 hr 3 min 4 sec) 
Heartbeat CPU 0 instructions: 50000000 cycles: 12501839 heartbeat IPC: 3.99962 cumulative IPC: 3.99942 (Simulation time: 0 hr 3 min 51 sec) 
Warmup finished CPU 0 instructions: 50000000 cycles: 12501840 cumulative IPC: 3.99942 (Simulation time: 0 hr 3 min 51 sec) 

Warmup complete CPU 0 instructions: 50000000 cycles: 12501840 (Simulation time: 0 hr 3 min 51 sec) 

Heartbeat CPU 0 instructions: 60000004 cycles: 41775789 heartbeat IPC: 0.341601 cumulative IPC: 0.341601 (Simulation time: 0 hr 5 min 28 sec) 
Heartbeat CPU 0 instructions: 70000003 cycles: 70310839 heartbeat IPC: 0.350447 cumulative IPC: 0.345967 (Simulation time: 0 hr 6 min 54 sec) 
Heartbeat CPU 0 instructions: 80000000 cycles: 100115085 heartbeat IPC: 0.335523 cumulative IPC: 0.342414 (Simulation time: 0 hr 8 min 20 sec) 
Heartbeat CPU 0 instructions: 90000002 cycles: 129597417 heartbeat IPC: 0.339187 cumulative IPC: 0.341602 (Simulation time: 0 hr 9 min 45 sec) 
Heartbeat CPU 0 instructions: 100000000 cycles: 158976928 heartbeat IPC: 0.340374 cumulative IPC: 0.341355 (Simulation time: 0 hr 11 min 11 sec) 
Heartbeat CPU 0 instructions: 110000000 cycles: 188918926 heartbeat IPC: 0.33398 cumulative IPC: 0.340104 (Simulation time: 0 hr 12 min 36 sec) 
Heartbeat CPU 0 instructions: 120000002 cycles: 218029666 heartbeat IPC: 0.343516 cumulative IPC: 0.340587 (Simulation time: 0 hr 14 min 8 sec) 
Heartbeat CPU 0 instructions: 130000000 cycles: 245878836 heartbeat IPC: 0.359078 cumulative IPC: 0.342793 (Simulation time: 0 hr 15 min 35 sec) 
Heartbeat CPU 0 instructions: 140000004 cycles: 275328943 heartbeat IPC: 0.339558 cumulative IPC: 0.342431 (Simulation time: 0 hr 16 min 59 sec) 
Heartbeat CPU 0 instructions: 150000000 cycles: 304499613 heartbeat IPC: 0.34281 cumulative IPC: 0.342469 (Simulation time: 0 hr 18 min 25 sec) 
Simulation finished CPU 0 instructions: 100000000 cycles: 291997774 cumulative IPC: 0.342469 (Simulation time: 0 hr 18 min 25 sec) 

Simulation complete CPU 0 instructions: 100000000 cycles: 291997774 (Simulation time: 0 hr 18 min 25 sec) 


ChampSim completed all CPUs

Saving instructions large page distribution to /home/bsc/bsc018186/scratch/itp_asplos25_AE/dump/smt_srv85_ap_srv180_ap_1024i.pdst...
Saving data large page distribution to /home/bsc/bsc018186/scratch/itp_asplos25_AE/dump/smt_srv85_ap_srv180_ap_1024i.pdst...
=== Simulation ===
CPU 0 runs /gpfs/projects/bsc18/MN4/bsc18/romol/ChampSim/traces/qualcomm_srv/smt_srv85_ap_srv180_ap_1024i.champsimtrace.xz

Region of Interest Statistics

CPU 0 cumulative IPC: 0.342469 instructions: 100000000 cycles: 291997774
CPU 0 Branch Prediction Accuracy: 75.818% MPKI: 43.4496 Average ROB Occupancy at Mispredict: 11.4291
Branch type MPKI
BRANCH_DIRECT_JUMP: 1.30955
BRANCH_INDIRECT: 22.6756
BRANCH_CONDITIONAL: 12.6136
BRANCH_DIRECT_CALL: 2.49479
BRANCH_INDIRECT_CALL: 0.920661
BRANCH_RETURN: 3.4354

Instructions large pages: 0
Instructions small pages: 13336
Large page distribution for instructions: 0%

Data large pages: 0
Data small pages: 12088
Large page distribution for data: 0%

cpu0_L1I TOTAL       ACCESS:   39080923  HIT:   30377962  MISS:    8702961  iACCESS:   39080923  iHIT:   30377962  iMISS:    8702961  dACCESS:          0  dHIT:          0  dMISS:          0  itACCESS:          0  itHIT:          0  itMISS:          0  dtACCESS:          0  dtHIT:          0  dtMISS:          0
cpu0_L1I LOAD         ACCESS:   11756864  HIT:    9381130  MISS:    2375734  iACCESS:   11756864  iHIT:    9381130  iMISS:    2375734  dACCESS:          0  dHIT:          0  dMISS:          0  itACCESS:          0  itHIT:          0  itMISS:          0  dtACCESS:          0  dtHIT:          0  dtMISS:          0
cpu0_L1I RFO          ACCESS:          0  HIT:          0  MISS:          0  iACCESS:          0  iHIT:          0  iMISS:          0  dACCESS:          0  dHIT:          0  dMISS:          0  itACCESS:          0  itHIT:          0  itMISS:          0  dtACCESS:          0  dtHIT:          0  dtMISS:          0
cpu0_L1I PREFETCH     ACCESS:   27324059  HIT:   20996832  MISS:    6327227  iACCESS:   27324059  iHIT:   20996832  iMISS:    6327227  dACCESS:          0  dHIT:          0  dMISS:          0  itACCESS:          0  itHIT:          0  itMISS:          0  dtACCESS:          0  dtHIT:          0  dtMISS:          0
cpu0_L1I WRITE        ACCESS:          0  HIT:          0  MISS:          0  iACCESS:          0  iHIT:          0  iMISS:          0  dACCESS:          0  dHIT:          0  dMISS:          0  itACCESS:          0  itHIT:          0  itMISS:          0  dtACCESS:          0  dtHIT:          0  dtMISS:          0
cpu0_L1I TRANSLATION  ACCESS:          0  HIT:          0  MISS:          0  iACCESS:          0  iHIT:          0  iMISS:          0  dACCESS:          0  dHIT:          0  dMISS:          0  itACCESS:          0  itHIT:          0  itMISS:          0  dtACCESS:          0  dtHIT:          0  dtMISS:          0
cpu0_L1I PREFETCH  REQUESTED:   30194459  ISSUED:   30194413  CROSSED:          0  USEFUL:    2195912  USELESS:     753065
cpu0_L1I AVERAGE iMISS LATENCY: 23.2681 cycles
cpu0_L1I AVERAGE dMISS LATENCY: 0 cycles
cpu0_L1I AVERAGE itMISS LATENCY: 0 cycles
cpu0_L1I AVERAGE dtMISS LATENCY: 0 cycles
cpu0_L1I PAGE CROSSINGS (TLB HIT):         0 
cpu0_L1I PAGE CROSSINGS (TLB MISS):         0 
cpu0_L1I AVERAGE MISS LATENCY: 23.2681 cycles
cpu0_ITLB TOTAL       ACCESS:   32981117  HIT:   30779340  MISS:    2201777  iACCESS:   32981117  iHIT:   30779340  iMISS:    2201777  dACCESS:          0  dHIT:          0  dMISS:          0  itACCESS:          0  itHIT:          0  itMISS:          0  dtACCESS:          0  dtHIT:          0  dtMISS:          0
cpu0_ITLB LOAD         ACCESS:   32981117  HIT:   30779340  MISS:    2201777  iACCESS:   32981117  iHIT:   30779340  iMISS:    2201777  dACCESS:          0  dHIT:          0  dMISS:          0  itACCESS:          0  itHIT:          0  itMISS:          0  dtACCESS:          0  dtHIT:          0  dtMISS:          0
cpu0_ITLB RFO          ACCESS:          0  HIT:          0  MISS:          0  iACCESS:          0  iHIT:          0  iMISS:          0  dACCESS:          0  dHIT:          0  dMISS:          0  itACCESS:          0  itHIT:          0  itMISS:          0  dtACCESS:          0  dtHIT:          0  dtMISS:          0
cpu0_ITLB PREFETCH     ACCESS:          0  HIT:          0  MISS:          0  iACCESS:          0  iHIT:          0  iMISS:          0  dACCESS:          0  dHIT:          0  dMISS:          0  itACCESS:          0  itHIT:          0  itMISS:          0  dtACCESS:          0  dtHIT:          0  dtMISS:          0
cpu0_ITLB WRITE        ACCESS:          0  HIT:          0  MISS:          0  iACCESS:          0  iHIT:          0  iMISS:          0  dACCESS:          0  dHIT:          0  dMISS:          0  itACCESS:          0  itHIT:          0  itMISS:          0  dtACCESS:          0  dtHIT:          0  dtMISS:          0
cpu0_ITLB TRANSLATION  ACCESS:          0  HIT:          0  MISS:          0  iACCESS:          0  iHIT:          0  iMISS:          0  dACCESS:          0  dHIT:          0  dMISS:          0  itACCESS:          0  itHIT:          0  itMISS:          0  dtACCESS:          0  dtHIT:          0  dtMISS:          0
cpu0_ITLB PREFETCH  REQUESTED:          0  ISSUED:          0  CROSSED:          0  USEFUL:     383577  USELESS:      77330
cpu0_ITLB AVERAGE iMISS LATENCY: 9.82336 cycles
cpu0_ITLB AVERAGE dMISS LATENCY: 0 cycles
cpu0_ITLB AVERAGE itMISS LATENCY: 0 cycles
cpu0_ITLB AVERAGE dtMISS LATENCY: 0 cycles
cpu0_ITLB PAGE CROSSINGS (TLB HIT):         0 
cpu0_ITLB PAGE CROSSINGS (TLB MISS):         0 
cpu0_ITLB AVERAGE MISS LATENCY: 9.82336 cycles
cpu0_DTLB TOTAL       ACCESS:   28757346  HIT:   25069603  MISS:    3687743  iACCESS:          0  iHIT:          0  iMISS:          0  dACCESS:   28757346  dHIT:   25069603  dMISS:    3687743  itACCESS:          0  itHIT:          0  itMISS:          0  dtACCESS:          0  dtHIT:          0  dtMISS:          0
cpu0_DTLB LOAD         ACCESS:   28757346  HIT:   25069603  MISS:    3687743  iACCESS:          0  iHIT:          0  iMISS:          0  dACCESS:   28757346  dHIT:   25069603  dMISS:    3687743  itACCESS:          0  itHIT:          0  itMISS:          0  dtACCESS:          0  dtHIT:          0  dtMISS:          0
cpu0_DTLB RFO          ACCESS:          0  HIT:          0  MISS:          0  iACCESS:          0  iHIT:          0  iMISS:          0  dACCESS:          0  dHIT:          0  dMISS:          0  itACCESS:          0  itHIT:          0  itMISS:          0  dtACCESS:          0  dtHIT:          0  dtMISS:          0
cpu0_DTLB PREFETCH     ACCESS:          0  HIT:          0  MISS:          0  iACCESS:          0  iHIT:          0  iMISS:          0  dACCESS:          0  dHIT:          0  dMISS:          0  itACCESS:          0  itHIT:          0  itMISS:          0  dtACCESS:          0  dtHIT:          0  dtMISS:          0
cpu0_DTLB WRITE        ACCESS:          0  HIT:          0  MISS:          0  iACCESS:          0  iHIT:          0  iMISS:          0  dACCESS:          0  dHIT:          0  dMISS:          0  itACCESS:          0  itHIT:          0  itMISS:          0  dtACCESS:          0  dtHIT:          0  dtMISS:          0
cpu0_DTLB TRANSLATION  ACCESS:          0  HIT:          0  MISS:          0  iACCESS:          0  iHIT:          0  iMISS:          0  dACCESS:          0  dHIT:          0  dMISS:          0  itACCESS:          0  itHIT:          0  itMISS:          0  dtACCESS:          0  dtHIT:          0  dtMISS:          0
cpu0_DTLB PREFETCH  REQUESTED:          0  ISSUED:          0  CROSSED:          0  USEFUL:          0  USELESS:          0
cpu0_DTLB AVERAGE iMISS LATENCY: 0 cycles
cpu0_DTLB AVERAGE dMISS LATENCY: 24.3004 cycles
cpu0_DTLB AVERAGE itMISS LATENCY: 0 cycles
cpu0_DTLB AVERAGE dtMISS LATENCY: 0 cycles
cpu0_DTLB PAGE CROSSINGS (TLB HIT):         0 
cpu0_DTLB PAGE CROSSINGS (TLB MISS):         0 
cpu0_DTLB AVERAGE MISS LATENCY: 24.3004 cycles
cpu0_STLB TOTAL       ACCESS:    2608954  HIT:    2239427  MISS:     369527  iACCESS:     460911  iHIT:     352787  iMISS:     108124  dACCESS:    2148043  dHIT:    1886640  dMISS:     261403  itACCESS:          0  itHIT:          0  itMISS:          0  dtACCESS:          0  dtHIT:          0  dtMISS:          0
cpu0_STLB LOAD         ACCESS:    2608954  HIT:    2239427  MISS:     369527  iACCESS:     460911  iHIT:     352787  iMISS:     108124  dACCESS:    2148043  dHIT:    1886640  dMISS:     261403  itACCESS:          0  itHIT:          0  itMISS:          0  dtACCESS:          0  dtHIT:          0  dtMISS:          0
cpu0_STLB RFO          ACCESS:          0  HIT:          0  MISS:          0  iACCESS:          0  iHIT:          0  iMISS:          0  dACCESS:          0  dHIT:          0  dMISS:          0  itACCESS:          0  itHIT:          0  itMISS:          0  dtACCESS:          0  dtHIT:          0  dtMISS:          0
cpu0_STLB PREFETCH     ACCESS:          0  HIT:          0  MISS:          0  iACCESS:          0  iHIT:          0  iMISS:          0  dACCESS:          0  dHIT:          0  dMISS:          0  itACCESS:          0  itHIT:          0  itMISS:          0  dtACCESS:          0  dtHIT:          0  dtMISS:          0
cpu0_STLB WRITE        ACCESS:          0  HIT:          0  MISS:          0  iACCESS:          0  iHIT:          0  iMISS:          0  dACCESS:          0  dHIT:          0  dMISS:          0  itACCESS:          0  itHIT:          0  itMISS:          0  dtACCESS:          0  dtHIT:          0  dtMISS:          0
cpu0_STLB TRANSLATION  ACCESS:          0  HIT:          0  MISS:          0  iACCESS:          0  iHIT:          0  iMISS:          0  dACCESS:          0  dHIT:          0  dMISS:          0  itACCESS:          0  itHIT:          0  itMISS:          0  dtACCESS:          0  dtHIT:          0  dtMISS:          0
cpu0_STLB PREFETCH  REQUESTED:          0  ISSUED:          0  CROSSED:          0  USEFUL:          0  USELESS:          0
cpu0_STLB AVERAGE iMISS LATENCY: 48.568 cycles
cpu0_STLB AVERAGE dMISS LATENCY: 195.736 cycles
cpu0_STLB AVERAGE itMISS LATENCY: 0 cycles
cpu0_STLB AVERAGE dtMISS LATENCY: 0 cycles
cpu0_STLB PAGE CROSSINGS (TLB HIT):         0 
cpu0_STLB PAGE CROSSINGS (TLB MISS):         0 
cpu0_STLB AVERAGE MISS LATENCY: 244.304 cycles
cpu0_L1D TOTAL       ACCESS:   44450775  HIT:   39070734  MISS:    5380041  iACCESS:          0  iHIT:          0  iMISS:          0  dACCESS:   43905817  dHIT:   39036446  dMISS:    4869371  itACCESS:     121991  itHIT:      14395  itMISS:     107596  dtACCESS:     422967  dtHIT:      19893  dtMISS:     403074
cpu0_L1D LOAD         ACCESS:   20025917  HIT:   17849559  MISS:    2176358  iACCESS:          0  iHIT:          0  iMISS:          0  dACCESS:   20025917  dHIT:   17849559  dMISS:    2176358  itACCESS:          0  itHIT:          0  itMISS:          0  dtACCESS:          0  dtHIT:          0  dtMISS:          0
cpu0_L1D RFO          ACCESS:          0  HIT:          0  MISS:          0  iACCESS:          0  iHIT:          0  iMISS:          0  dACCESS:          0  dHIT:          0  dMISS:          0  itACCESS:          0  itHIT:          0  itMISS:          0  dtACCESS:          0  dtHIT:          0  dtMISS:          0
cpu0_L1D PREFETCH     ACCESS:   13743822  HIT:   11607273  MISS:    2136549  iACCESS:          0  iHIT:          0  iMISS:          0  dACCESS:   13743822  dHIT:   11607273  dMISS:    2136549  itACCESS:          0  itHIT:          0  itMISS:          0  dtACCESS:          0  dtHIT:          0  dtMISS:          0
cpu0_L1D WRITE        ACCESS:   10136078  HIT:    9579614  MISS:     556464  iACCESS:          0  iHIT:          0  iMISS:          0  dACCESS:   10136078  dHIT:    9579614  dMISS:     556464  itACCESS:          0  itHIT:          0  itMISS:          0  dtACCESS:          0  dtHIT:          0  dtMISS:          0
cpu0_L1D TRANSLATION  ACCESS:     544958  HIT:      34288  MISS:     510670  iACCESS:          0  iHIT:          0  iMISS:          0  dACCESS:          0  dHIT:          0  dMISS:          0  itACCESS:     121991  itHIT:      14395  itMISS:     107596  dtACCESS:     422967  dtHIT:      19893  dtMISS:     403074
cpu0_L1D PREFETCH  REQUESTED:   20025917  ISSUED:   18358266  CROSSED:          0  USEFUL:     357286  USELESS:     933653
cpu0_L1D AVERAGE iMISS LATENCY: 0 cycles
cpu0_L1D AVERAGE dMISS LATENCY: 51.0451 cycles
cpu0_L1D AVERAGE itMISS LATENCY: 3.14987 cycles
cpu0_L1D AVERAGE dtMISS LATENCY: 12.4489 cycles
cpu0_L1D PAGE CROSSINGS (TLB HIT):         0 
cpu0_L1D PAGE CROSSINGS (TLB MISS):         0 
cpu0_L1D AVERAGE MISS LATENCY: 66.6438 cycles
cpu0_L2C TOTAL       ACCESS:    8556013  HIT:    4070250  MISS:    4485763  iACCESS:    3753067  iHIT:    2235312  iMISS:    1517755  dACCESS:    4320636  dHIT:    1770830  dMISS:    2549806  itACCESS:     106962  itHIT:      20408  itMISS:      86554  dtACCESS:     375348  dtHIT:      43700  dtMISS:     331648
cpu0_L2C LOAD         ACCESS:    2051606  HIT:     981090  MISS:    1070516  iACCESS:     842467  iHIT:     520276  iMISS:     322191  dACCESS:    1209139  dHIT:     460814  dMISS:     748325  itACCESS:          0  itHIT:          0  itMISS:          0  dtACCESS:          0  dtHIT:          0  dtMISS:          0
cpu0_L2C RFO          ACCESS:     209783  HIT:      79624  MISS:     130159  iACCESS:          0  iHIT:          0  iMISS:          0  dACCESS:     209783  dHIT:      79624  dMISS:     130159  itACCESS:          0  itHIT:          0  itMISS:          0  dtACCESS:          0  dtHIT:          0  dtMISS:          0
cpu0_L2C PREFETCH     ACCESS:    5465331  HIT:    2616733  MISS:    2848598  iACCESS:    2910600  iHIT:    1715036  iMISS:    1195564  dACCESS:    2554731  dHIT:     901697  dMISS:    1653034  itACCESS:          0  itHIT:          0  itMISS:          0  dtACCESS:          0  dtHIT:          0  dtMISS:          0
cpu0_L2C WRITE        ACCESS:     346983  HIT:     328695  MISS:      18288  iACCESS:          0  iHIT:          0  iMISS:          0  dACCESS:     346983  dHIT:     328695  dMISS:      18288  itACCESS:          0  itHIT:          0  itMISS:          0  dtACCESS:          0  dtHIT:          0  dtMISS:          0
cpu0_L2C TRANSLATION  ACCESS:     482310  HIT:      64108  MISS:     418202  iACCESS:          0  iHIT:          0  iMISS:          0  dACCESS:          0  dHIT:          0  dMISS:          0  itACCESS:     106962  itHIT:      20408  itMISS:      86554  dtACCESS:     375348  dtHIT:      43700  dtMISS:     331648
cpu0_L2C PREFETCH  REQUESTED:    1510862  ISSUED:    1510857  CROSSED:          0  USEFUL:     361698  USELESS:     328336
cpu0_L2C AVERAGE iMISS LATENCY: 38.0347 cycles
cpu0_L2C AVERAGE dMISS LATENCY: 75.9434 cycles
cpu0_L2C AVERAGE itMISS LATENCY: 3.54325 cycles
cpu0_L2C AVERAGE dtMISS LATENCY: 14.0988 cycles
cpu0_L2C PAGE CROSSINGS (TLB HIT):         0 
cpu0_L2C PAGE CROSSINGS (TLB MISS):         0 
cpu0_L2C AVERAGE MISS LATENCY: 131.621 cycles
LLC TOTAL       ACCESS:    4475977  HIT:    1523694  MISS:    2952283  iACCESS:    1425495  iHIT:     520680  iMISS:     904815  dACCESS:    2632280  dHIT:     958576  dMISS:    1673704  itACCESS:      86554  itHIT:       7416  itMISS:      79138  dtACCESS:     331648  dtHIT:      37022  dtMISS:     294626
LLC LOAD         ACCESS:    1065096  HIT:     386760  MISS:     678336  iACCESS:     320945  iHIT:     129260  iMISS:     191685  dACCESS:     744151  dHIT:     257500  dMISS:     486651  itACCESS:          0  itHIT:          0  itMISS:          0  dtACCESS:          0  dtHIT:          0  dtMISS:          0
LLC RFO          ACCESS:     130156  HIT:      42987  MISS:      87169  iACCESS:          0  iHIT:          0  iMISS:          0  dACCESS:     130156  dHIT:      42987  dMISS:      87169  itACCESS:          0  itHIT:          0  itMISS:          0  dtACCESS:          0  dtHIT:          0  dtMISS:          0
LLC PREFETCH     ACCESS:    2642238  HIT:     839077  MISS:    1803161  iACCESS:    1104550  iHIT:     391420  iMISS:     713130  dACCESS:    1537688  dHIT:     447657  dMISS:    1090031  itACCESS:          0  itHIT:          0  itMISS:          0  dtACCESS:          0  dtHIT:          0  dtMISS:          0
LLC WRITE        ACCESS:     220285  HIT:     210432  MISS:       9853  iACCESS:          0  iHIT:          0  iMISS:          0  dACCESS:     220285  dHIT:     210432  dMISS:       9853  itACCESS:          0  itHIT:          0  itMISS:          0  dtACCESS:          0  dtHIT:          0  dtMISS:          0
LLC TRANSLATION  ACCESS:     418202  HIT:      44438  MISS:     373764  iACCESS:          0  iHIT:          0  iMISS:          0  dACCESS:          0  dHIT:          0  dMISS:          0  itACCESS:      86554  itHIT:       7416  itMISS:      79138  dtACCESS:     331648  dtHIT:      37022  dtMISS:     294626
LLC PREFETCH  REQUESTED:          0  ISSUED:          0  CROSSED:          0  USEFUL:          0  USELESS:          0
LLC AVERAGE iMISS LATENCY: 48.2943 cycles
LLC AVERAGE dMISS LATENCY: 100.038 cycles
LLC AVERAGE itMISS LATENCY: 4.80252 cycles
LLC AVERAGE dtMISS LATENCY: 19.2014 cycles
LLC PAGE CROSSINGS (TLB HIT):         0 
LLC PAGE CROSSINGS (TLB MISS):         0 
LLC AVERAGE MISS LATENCY: 172.336 cycles

PageTableWalker TOTAL       ACCESS:     184682  
PageTableWalker AVERAGE LATENCY: 6.4508 cycles
PageTableWalker TOTAL LATENCY: 1191346 cycles

DRAM Statistics
Channel 0
 RQ ROW_BUFFER_HIT:     624232
  ROW_BUFFER_MISS:    2307326
 AVG DBUS CONGESTED CYCLE:    3.64665
 WQ ROW_BUFFER_HIT:      64964
  ROW_BUFFER_MISS:      56618  FULL:          0

