last_page:0x200000000000000
VMEM_RES_CAP:0x100000
PAGE_SIZE:4096
LOG2_PAGE_SIZE:12
LOG2_PAGE_TABLE_SIZE:9
page_table_levels:5
WARNING: physical memory size is smaller than virtual memory size
FDiP enabled with aggresivity 16

*** ChampSim Multicore Out-of-Order Simulator ***

Warmup Instructions: 50000000
Simulation Instructions: 100000000
Number of CPUs: 1
Small page size: 4096
Large page size: 2097152

CPU 0 Bimodal branch predictor
Basic BTB sets: 1024 ways: 8 indirect buffer size: 4096 RAS size: 64
Instruction page size distrubution: 0
Loading instruction page size distribution from /home/bsc/bsc018186/scratch/itp_asplos25_AE/dump/smt_srv537_ap_srv582_ap_1024i.pdst
Data page size distrubution: 0
Loading data page size distribution from /home/bsc/bsc018186/scratch/itp_asplos25_AE/dump/smt_srv537_ap_srv582_ap_1024i.pdst
cpu0_L2C IP-based stride prefetcher
cpu0_L1D next line prefetcher
cpu0_STLB using iTP with max lru@8
cpu0_STLB using iTP with instr@0 and data@2
Init sat counter with 3 bits (max:50).
cpu0_L1I next line prefetcher
Off-chip DRAM Size: 4 GiB Channels: 1 Width: 64-bit Data Rate: 3200 MT/s
Heartbeat CPU 0 instructions: 10000003 cycles: 2500567 heartbeat IPC: 3.9991 cumulative IPC: 3.9991 (Simulation time: 0 hr 0 min 35 sec) 
Heartbeat CPU 0 instructions: 20000001 cycles: 5000630 heartbeat IPC: 3.9999 cumulative IPC: 3.9995 (Simulation time: 0 hr 1 min 13 sec) 
Heartbeat CPU 0 instructions: 30000000 cycles: 7500740 heartbeat IPC: 3.99983 cumulative IPC: 3.99961 (Simulation time: 0 hr 1 min 52 sec) 
Heartbeat CPU 0 instructions: 40000003 cycles: 10000811 heartbeat IPC: 3.99989 cumulative IPC: 3.99968 (Simulation time: 0 hr 2 min 30 sec) 
Heartbeat CPU 0 instructions: 50000002 cycles: 12500969 heartbeat IPC: 3.99975 cumulative IPC: 3.9997 (Simulation time: 0 hr 3 min 9 sec) 
Warmup finished CPU 0 instructions: 50000002 cycles: 12500970 cumulative IPC: 3.99969 (Simulation time: 0 hr 3 min 9 sec) 

Warmup complete CPU 0 instructions: 50000002 cycles: 12500970 (Simulation time: 0 hr 3 min 9 sec) 

Heartbeat CPU 0 instructions: 60000000 cycles: 40244844 heartbeat IPC: 0.36044 cumulative IPC: 0.36044 (Simulation time: 0 hr 4 min 28 sec) 
Heartbeat CPU 0 instructions: 70000000 cycles: 68488640 heartbeat IPC: 0.354061 cumulative IPC: 0.357222 (Simulation time: 0 hr 5 min 48 sec) 
Heartbeat CPU 0 instructions: 80000002 cycles: 95387590 heartbeat IPC: 0.371762 cumulative IPC: 0.361941 (Simulation time: 0 hr 7 min 6 sec) 
Heartbeat CPU 0 instructions: 90000000 cycles: 122696093 heartbeat IPC: 0.366187 cumulative IPC: 0.362993 (Simulation time: 0 hr 8 min 24 sec) 
Heartbeat CPU 0 instructions: 100000003 cycles: 150893542 heartbeat IPC: 0.354643 cumulative IPC: 0.361292 (Simulation time: 0 hr 9 min 44 sec) 
Heartbeat CPU 0 instructions: 110000000 cycles: 179644213 heartbeat IPC: 0.347818 cumulative IPC: 0.358974 (Simulation time: 0 hr 11 min 5 sec) 
Heartbeat CPU 0 instructions: 120000002 cycles: 207096514 heartbeat IPC: 0.364269 cumulative IPC: 0.359721 (Simulation time: 0 hr 12 min 24 sec) 
Heartbeat CPU 0 instructions: 130000003 cycles: 234332938 heartbeat IPC: 0.367156 cumulative IPC: 0.360634 (Simulation time: 0 hr 13 min 43 sec) 
Heartbeat CPU 0 instructions: 140000003 cycles: 262040398 heartbeat IPC: 0.360914 cumulative IPC: 0.360665 (Simulation time: 0 hr 15 min 2 sec) 
Heartbeat CPU 0 instructions: 150000002 cycles: 289058144 heartbeat IPC: 0.370128 cumulative IPC: 0.361589 (Simulation time: 0 hr 16 min 21 sec) 
Simulation finished CPU 0 instructions: 100000000 cycles: 276557175 cumulative IPC: 0.361589 (Simulation time: 0 hr 16 min 21 sec) 

Simulation complete CPU 0 instructions: 100000000 cycles: 276557175 (Simulation time: 0 hr 16 min 21 sec) 


ChampSim completed all CPUs

Saving instructions large page distribution to /home/bsc/bsc018186/scratch/itp_asplos25_AE/dump/smt_srv537_ap_srv582_ap_1024i.pdst...
Saving data large page distribution to /home/bsc/bsc018186/scratch/itp_asplos25_AE/dump/smt_srv537_ap_srv582_ap_1024i.pdst...
=== Simulation ===
CPU 0 runs /gpfs/projects/bsc18/MN4/bsc18/romol/ChampSim/traces/qualcomm_srv/smt_srv537_ap_srv582_ap_1024i.champsimtrace.xz

Region of Interest Statistics

CPU 0 cumulative IPC: 0.361589 instructions: 100000000 cycles: 276557175
CPU 0 Branch Prediction Accuracy: 75.196% MPKI: 44.8116 Average ROB Occupancy at Mispredict: 10.467
Branch type MPKI
BRANCH_DIRECT_JUMP: 1.38828
BRANCH_INDIRECT: 23.1194
BRANCH_CONDITIONAL: 13.0578
BRANCH_DIRECT_CALL: 2.67902
BRANCH_INDIRECT_CALL: 1.03442
BRANCH_RETURN: 3.53271

Instructions large pages: 0
Instructions small pages: 10288
Large page distribution for instructions: 0%

Data large pages: 0
Data small pages: 8888
Large page distribution for data: 0%

cpu0_L1I TOTAL       ACCESS:   39764566  HIT:   30470400  MISS:    9294166  iACCESS:   39764566  iHIT:   30470400  iMISS:    9294166  dACCESS:          0  dHIT:          0  dMISS:          0  itACCESS:          0  itHIT:          0  itMISS:          0  dtACCESS:          0  dtHIT:          0  dtMISS:          0
cpu0_L1I LOAD         ACCESS:   11887003  HIT:    9365385  MISS:    2521618  iACCESS:   11887003  iHIT:    9365385  iMISS:    2521618  dACCESS:          0  dHIT:          0  dMISS:          0  itACCESS:          0  itHIT:          0  itMISS:          0  dtACCESS:          0  dtHIT:          0  dtMISS:          0
cpu0_L1I RFO          ACCESS:          0  HIT:          0  MISS:          0  iACCESS:          0  iHIT:          0  iMISS:          0  dACCESS:          0  dHIT:          0  dMISS:          0  itACCESS:          0  itHIT:          0  itMISS:          0  dtACCESS:          0  dtHIT:          0  dtMISS:          0
cpu0_L1I PREFETCH     ACCESS:   27877563  HIT:   21105015  MISS:    6772548  iACCESS:   27877563  iHIT:   21105015  iMISS:    6772548  dACCESS:          0  dHIT:          0  dMISS:          0  itACCESS:          0  itHIT:          0  itMISS:          0  dtACCESS:          0  dtHIT:          0  dtMISS:          0
cpu0_L1I WRITE        ACCESS:          0  HIT:          0  MISS:          0  iACCESS:          0  iHIT:          0  iMISS:          0  dACCESS:          0  dHIT:          0  dMISS:          0  itACCESS:          0  itHIT:          0  itMISS:          0  dtACCESS:          0  dtHIT:          0  dtMISS:          0
cpu0_L1I TRANSLATION  ACCESS:          0  HIT:          0  MISS:          0  iACCESS:          0  iHIT:          0  iMISS:          0  dACCESS:          0  dHIT:          0  dMISS:          0  itACCESS:          0  itHIT:          0  itMISS:          0  dtACCESS:          0  dtHIT:          0  dtMISS:          0
cpu0_L1I PREFETCH  REQUESTED:   30504747  ISSUED:   30503031  CROSSED:          0  USEFUL:    2229061  USELESS:     772156
cpu0_L1I AVERAGE iMISS LATENCY: 24.0966 cycles
cpu0_L1I AVERAGE dMISS LATENCY: 0 cycles
cpu0_L1I AVERAGE itMISS LATENCY: 0 cycles
cpu0_L1I AVERAGE dtMISS LATENCY: 0 cycles
cpu0_L1I PAGE CROSSINGS (TLB HIT):         0 
cpu0_L1I PAGE CROSSINGS (TLB MISS):         0 
cpu0_L1I AVERAGE MISS LATENCY: 24.0966 cycles
cpu0_ITLB TOTAL       ACCESS:   33431672  HIT:   31181304  MISS:    2250368  iACCESS:   33431672  iHIT:   31181304  iMISS:    2250368  dACCESS:          0  dHIT:          0  dMISS:          0  itACCESS:          0  itHIT:          0  itMISS:          0  dtACCESS:          0  dtHIT:          0  dtMISS:          0
cpu0_ITLB LOAD         ACCESS:   33431672  HIT:   31181304  MISS:    2250368  iACCESS:   33431672  iHIT:   31181304  iMISS:    2250368  dACCESS:          0  dHIT:          0  dMISS:          0  itACCESS:          0  itHIT:          0  itMISS:          0  dtACCESS:          0  dtHIT:          0  dtMISS:          0
cpu0_ITLB RFO          ACCESS:          0  HIT:          0  MISS:          0  iACCESS:          0  iHIT:          0  iMISS:          0  dACCESS:          0  dHIT:          0  dMISS:          0  itACCESS:          0  itHIT:          0  itMISS:          0  dtACCESS:          0  dtHIT:          0  dtMISS:          0
cpu0_ITLB PREFETCH     ACCESS:          0  HIT:          0  MISS:          0  iACCESS:          0  iHIT:          0  iMISS:          0  dACCESS:          0  dHIT:          0  dMISS:          0  itACCESS:          0  itHIT:          0  itMISS:          0  dtACCESS:          0  dtHIT:          0  dtMISS:          0
cpu0_ITLB WRITE        ACCESS:          0  HIT:          0  MISS:          0  iACCESS:          0  iHIT:          0  iMISS:          0  dACCESS:          0  dHIT:          0  dMISS:          0  itACCESS:          0  itHIT:          0  itMISS:          0  dtACCESS:          0  dtHIT:          0  dtMISS:          0
cpu0_ITLB TRANSLATION  ACCESS:          0  HIT:          0  MISS:          0  iACCESS:          0  iHIT:          0  iMISS:          0  dACCESS:          0  dHIT:          0  dMISS:          0  itACCESS:          0  itHIT:          0  itMISS:          0  dtACCESS:          0  dtHIT:          0  dtMISS:          0
cpu0_ITLB PREFETCH  REQUESTED:          0  ISSUED:          0  CROSSED:          0  USEFUL:     393741  USELESS:      80388
cpu0_ITLB AVERAGE iMISS LATENCY: 5.68524 cycles
cpu0_ITLB AVERAGE dMISS LATENCY: 0 cycles
cpu0_ITLB AVERAGE itMISS LATENCY: 0 cycles
cpu0_ITLB AVERAGE dtMISS LATENCY: 0 cycles
cpu0_ITLB PAGE CROSSINGS (TLB HIT):         0 
cpu0_ITLB PAGE CROSSINGS (TLB MISS):         0 
cpu0_ITLB AVERAGE MISS LATENCY: 5.68524 cycles
cpu0_DTLB TOTAL       ACCESS:   28877874  HIT:   25501750  MISS:    3376124  iACCESS:          0  iHIT:          0  iMISS:          0  dACCESS:   28877874  dHIT:   25501750  dMISS:    3376124  itACCESS:          0  itHIT:          0  itMISS:          0  dtACCESS:          0  dtHIT:          0  dtMISS:          0
cpu0_DTLB LOAD         ACCESS:   28877874  HIT:   25501750  MISS:    3376124  iACCESS:          0  iHIT:          0  iMISS:          0  dACCESS:   28877874  dHIT:   25501750  dMISS:    3376124  itACCESS:          0  itHIT:          0  itMISS:          0  dtACCESS:          0  dtHIT:          0  dtMISS:          0
cpu0_DTLB RFO          ACCESS:          0  HIT:          0  MISS:          0  iACCESS:          0  iHIT:          0  iMISS:          0  dACCESS:          0  dHIT:          0  dMISS:          0  itACCESS:          0  itHIT:          0  itMISS:          0  dtACCESS:          0  dtHIT:          0  dtMISS:          0
cpu0_DTLB PREFETCH     ACCESS:          0  HIT:          0  MISS:          0  iACCESS:          0  iHIT:          0  iMISS:          0  dACCESS:          0  dHIT:          0  dMISS:          0  itACCESS:          0  itHIT:          0  itMISS:          0  dtACCESS:          0  dtHIT:          0  dtMISS:          0
cpu0_DTLB WRITE        ACCESS:          0  HIT:          0  MISS:          0  iACCESS:          0  iHIT:          0  iMISS:          0  dACCESS:          0  dHIT:          0  dMISS:          0  itACCESS:          0  itHIT:          0  itMISS:          0  dtACCESS:          0  dtHIT:          0  dtMISS:          0
cpu0_DTLB TRANSLATION  ACCESS:          0  HIT:          0  MISS:          0  iACCESS:          0  iHIT:          0  iMISS:          0  dACCESS:          0  dHIT:          0  dMISS:          0  itACCESS:          0  itHIT:          0  itMISS:          0  dtACCESS:          0  dtHIT:          0  dtMISS:          0
cpu0_DTLB PREFETCH  REQUESTED:          0  ISSUED:          0  CROSSED:          0  USEFUL:          0  USELESS:          0
cpu0_DTLB AVERAGE iMISS LATENCY: 0 cycles
cpu0_DTLB AVERAGE dMISS LATENCY: 19.435 cycles
cpu0_DTLB AVERAGE itMISS LATENCY: 0 cycles
cpu0_DTLB AVERAGE dtMISS LATENCY: 0 cycles
cpu0_DTLB PAGE CROSSINGS (TLB HIT):         0 
cpu0_DTLB PAGE CROSSINGS (TLB MISS):         0 
cpu0_DTLB AVERAGE MISS LATENCY: 19.435 cycles
cpu0_STLB TOTAL       ACCESS:    2416944  HIT:    2053264  MISS:     363680  iACCESS:     474137  iHIT:     415118  iMISS:      59019  dACCESS:    1942807  dHIT:    1638146  dMISS:     304661  itACCESS:          0  itHIT:          0  itMISS:          0  dtACCESS:          0  dtHIT:          0  dtMISS:          0
cpu0_STLB LOAD         ACCESS:    2416944  HIT:    2053264  MISS:     363680  iACCESS:     474137  iHIT:     415118  iMISS:      59019  dACCESS:    1942807  dHIT:    1638146  dMISS:     304661  itACCESS:          0  itHIT:          0  itMISS:          0  dtACCESS:          0  dtHIT:          0  dtMISS:          0
cpu0_STLB RFO          ACCESS:          0  HIT:          0  MISS:          0  iACCESS:          0  iHIT:          0  iMISS:          0  dACCESS:          0  dHIT:          0  dMISS:          0  itACCESS:          0  itHIT:          0  itMISS:          0  dtACCESS:          0  dtHIT:          0  dtMISS:          0
cpu0_STLB PREFETCH     ACCESS:          0  HIT:          0  MISS:          0  iACCESS:          0  iHIT:          0  iMISS:          0  dACCESS:          0  dHIT:          0  dMISS:          0  itACCESS:          0  itHIT:          0  itMISS:          0  dtACCESS:          0  dtHIT:          0  dtMISS:          0
cpu0_STLB WRITE        ACCESS:          0  HIT:          0  MISS:          0  iACCESS:          0  iHIT:          0  iMISS:          0  dACCESS:          0  dHIT:          0  dMISS:          0  itACCESS:          0  itHIT:          0  itMISS:          0  dtACCESS:          0  dtHIT:          0  dtMISS:          0
cpu0_STLB TRANSLATION  ACCESS:          0  HIT:          0  MISS:          0  iACCESS:          0  iHIT:          0  iMISS:          0  dACCESS:          0  dHIT:          0  dMISS:          0  itACCESS:          0  itHIT:          0  itMISS:          0  dtACCESS:          0  dtHIT:          0  dtMISS:          0
cpu0_STLB PREFETCH  REQUESTED:          0  ISSUED:          0  CROSSED:          0  USEFUL:          0  USELESS:          0
cpu0_STLB AVERAGE iMISS LATENCY: 24.9306 cycles
cpu0_STLB AVERAGE dMISS LATENCY: 137.396 cycles
cpu0_STLB AVERAGE itMISS LATENCY: 0 cycles
cpu0_STLB AVERAGE dtMISS LATENCY: 0 cycles
cpu0_STLB PAGE CROSSINGS (TLB HIT):         0 
cpu0_STLB PAGE CROSSINGS (TLB MISS):         0 
cpu0_STLB AVERAGE MISS LATENCY: 162.327 cycles
cpu0_L1D TOTAL       ACCESS:   45098959  HIT:   39257458  MISS:    5841501  iACCESS:          0  iHIT:          0  iMISS:          0  dACCESS:   44541443  dHIT:   39230250  dMISS:    5311193  itACCESS:      69003  itHIT:       5560  itMISS:      63443  dtACCESS:     488513  dtHIT:      21648  dtMISS:     466865
cpu0_L1D LOAD         ACCESS:   20314183  HIT:   17919436  MISS:    2394747  iACCESS:          0  iHIT:          0  iMISS:          0  dACCESS:   20314183  dHIT:   17919436  dMISS:    2394747  itACCESS:          0  itHIT:          0  itMISS:          0  dtACCESS:          0  dtHIT:          0  dtMISS:          0
cpu0_L1D RFO          ACCESS:          0  HIT:          0  MISS:          0  iACCESS:          0  iHIT:          0  iMISS:          0  dACCESS:          0  dHIT:          0  dMISS:          0  itACCESS:          0  itHIT:          0  itMISS:          0  dtACCESS:          0  dtHIT:          0  dtMISS:          0
cpu0_L1D PREFETCH     ACCESS:   14044470  HIT:   11697264  MISS:    2347206  iACCESS:          0  iHIT:          0  iMISS:          0  dACCESS:   14044470  dHIT:   11697264  dMISS:    2347206  itACCESS:          0  itHIT:          0  itMISS:          0  dtACCESS:          0  dtHIT:          0  dtMISS:          0
cpu0_L1D WRITE        ACCESS:   10182790  HIT:    9613550  MISS:     569240  iACCESS:          0  iHIT:          0  iMISS:          0  dACCESS:   10182790  dHIT:    9613550  dMISS:     569240  itACCESS:          0  itHIT:          0  itMISS:          0  dtACCESS:          0  dtHIT:          0  dtMISS:          0
cpu0_L1D TRANSLATION  ACCESS:     557516  HIT:      27208  MISS:     530308  iACCESS:          0  iHIT:          0  iMISS:          0  dACCESS:          0  dHIT:          0  dMISS:          0  itACCESS:      69003  itHIT:       5560  itMISS:      63443  dtACCESS:     488513  dtHIT:      21648  dtMISS:     466865
cpu0_L1D PREFETCH  REQUESTED:   20314183  ISSUED:   18434361  CROSSED:          0  USEFUL:     372716  USELESS:     912584
cpu0_L1D AVERAGE iMISS LATENCY: 0 cycles
cpu0_L1D AVERAGE dMISS LATENCY: 49.3334 cycles
cpu0_L1D AVERAGE itMISS LATENCY: 1.44659 cycles
cpu0_L1D AVERAGE dtMISS LATENCY: 7.67063 cycles
cpu0_L1D PAGE CROSSINGS (TLB HIT):         0 
cpu0_L1D PAGE CROSSINGS (TLB MISS):         0 
cpu0_L1D AVERAGE MISS LATENCY: 58.4506 cycles
cpu0_L2C TOTAL       ACCESS:    8672578  HIT:    1534823  MISS:    7137755  iACCESS:    3813896  iHIT:     801047  iMISS:    3012849  dACCESS:    4358331  dHIT:     532905  dMISS:    3825426  itACCESS:      63248  itHIT:      15882  itMISS:      47366  dtACCESS:     437103  dtHIT:     184989  dtMISS:     252114
cpu0_L2C LOAD         ACCESS:    2055470  HIT:     203117  MISS:    1852353  iACCESS:     849281  iHIT:     114353  iMISS:     734928  dACCESS:    1206189  dHIT:      88764  dMISS:    1117425  itACCESS:          0  itHIT:          0  itMISS:          0  dtACCESS:          0  dtHIT:          0  dtMISS:          0
cpu0_L2C RFO          ACCESS:     214875  HIT:      28447  MISS:     186428  iACCESS:          0  iHIT:          0  iMISS:          0  dACCESS:     214875  dHIT:      28447  dMISS:     186428  itACCESS:          0  itHIT:          0  itMISS:          0  dtACCESS:          0  dtHIT:          0  dtMISS:          0
cpu0_L2C PREFETCH     ACCESS:    5556959  HIT:    1001459  MISS:    4555500  iACCESS:    2964615  iHIT:     686694  iMISS:    2277921  dACCESS:    2592344  dHIT:     314765  dMISS:    2277579  itACCESS:          0  itHIT:          0  itMISS:          0  dtACCESS:          0  dtHIT:          0  dtMISS:          0
cpu0_L2C WRITE        ACCESS:     344923  HIT:     100929  MISS:     243994  iACCESS:          0  iHIT:          0  iMISS:          0  dACCESS:     344923  dHIT:     100929  dMISS:     243994  itACCESS:          0  itHIT:          0  itMISS:          0  dtACCESS:          0  dtHIT:          0  dtMISS:          0
cpu0_L2C TRANSLATION  ACCESS:     500351  HIT:     200871  MISS:     299480  iACCESS:          0  iHIT:          0  iMISS:          0  dACCESS:          0  dHIT:          0  dMISS:          0  itACCESS:      63248  itHIT:      15882  itMISS:      47366  dtACCESS:     437103  dtHIT:     184989  dtMISS:     252114
cpu0_L2C PREFETCH  REQUESTED:    1550709  ISSUED:    1550705  CROSSED:          0  USEFUL:     417680  USELESS:     497958
cpu0_L2C AVERAGE iMISS LATENCY: 26.8112 cycles
cpu0_L2C AVERAGE dMISS LATENCY: 49.9706 cycles
cpu0_L2C AVERAGE itMISS LATENCY: 1.09723 cycles
cpu0_L2C AVERAGE dtMISS LATENCY: 5.68847 cycles
cpu0_L2C PAGE CROSSINGS (TLB HIT):         0 
cpu0_L2C PAGE CROSSINGS (TLB MISS):         0 
cpu0_L2C AVERAGE MISS LATENCY: 83.5674 cycles
LLC TOTAL       ACCESS:    6938552  HIT:    4197945  MISS:    2740607  iACCESS:    2919454  iHIT:    2061298  iMISS:     858156  dACCESS:    3719618  dHIT:    2063439  dMISS:    1656179  itACCESS:      47366  itHIT:       8687  itMISS:      38679  dtACCESS:     252114  dtHIT:      64521  dtMISS:     187593
LLC LOAD         ACCESS:    1844723  HIT:    1186876  MISS:     657847  iACCESS:     733659  iHIT:     553457  iMISS:     180202  dACCESS:    1111064  dHIT:     633419  dMISS:     477645  itACCESS:          0  itHIT:          0  itMISS:          0  dtACCESS:          0  dtHIT:          0  dtMISS:          0
LLC RFO          ACCESS:     186411  HIT:      92806  MISS:      93605  iACCESS:          0  iHIT:          0  iMISS:          0  dACCESS:     186411  dHIT:      92806  dMISS:      93605  itACCESS:          0  itHIT:          0  itMISS:          0  dtACCESS:          0  dtHIT:          0  dtMISS:          0
LLC PREFETCH     ACCESS:    4333818  HIT:    2578142  MISS:    1755676  iACCESS:    2185795  iHIT:    1507841  iMISS:     677954  dACCESS:    2148023  dHIT:    1070301  dMISS:    1077722  itACCESS:          0  itHIT:          0  itMISS:          0  dtACCESS:          0  dtHIT:          0  dtMISS:          0
LLC WRITE        ACCESS:     274120  HIT:     266913  MISS:       7207  iACCESS:          0  iHIT:          0  iMISS:          0  dACCESS:     274120  dHIT:     266913  dMISS:       7207  itACCESS:          0  itHIT:          0  itMISS:          0  dtACCESS:          0  dtHIT:          0  dtMISS:          0
LLC TRANSLATION  ACCESS:     299480  HIT:      73208  MISS:     226272  iACCESS:          0  iHIT:          0  iMISS:          0  dACCESS:          0  dHIT:          0  dMISS:          0  itACCESS:      47366  itHIT:       8687  itMISS:      38679  dtACCESS:     252114  dtHIT:      64521  dtMISS:     187593
LLC PREFETCH  REQUESTED:          0  ISSUED:          0  CROSSED:          0  USEFUL:          0  USELESS:          0
LLC AVERAGE iMISS LATENCY: 49.1425 cycles
LLC AVERAGE dMISS LATENCY: 106.608 cycles
LLC AVERAGE itMISS LATENCY: 2.51645 cycles
LLC AVERAGE dtMISS LATENCY: 13.0048 cycles
LLC PAGE CROSSINGS (TLB HIT):         0 
LLC PAGE CROSSINGS (TLB MISS):         0 
LLC AVERAGE MISS LATENCY: 171.272 cycles

PageTableWalker TOTAL       ACCESS:     178089  
PageTableWalker AVERAGE LATENCY: 6.1901 cycles
PageTableWalker TOTAL LATENCY: 1102388 cycles

DRAM Statistics
Channel 0
 RQ ROW_BUFFER_HIT:     625310
  ROW_BUFFER_MISS:    2087823
 AVG DBUS CONGESTED CYCLE:    3.65562
 WQ ROW_BUFFER_HIT:      66862
  ROW_BUFFER_MISS:      64443  FULL:          0

