last_page:0x200000000000000
VMEM_RES_CAP:0x100000
PAGE_SIZE:4096
LOG2_PAGE_SIZE:12
LOG2_PAGE_TABLE_SIZE:9
page_table_levels:5
WARNING: physical memory size is smaller than virtual memory size
FDiP enabled with aggresivity 16

*** ChampSim Multicore Out-of-Order Simulator ***

Warmup Instructions: 50000000
Simulation Instructions: 100000000
Number of CPUs: 1
Small page size: 4096
Large page size: 2097152

CPU 0 Bimodal branch predictor
Basic BTB sets: 1024 ways: 8 indirect buffer size: 4096 RAS size: 64
Instruction page size distrubution: 0
Loading instruction page size distribution from /home/bsc/bsc018186/scratch/itp_asplos25_AE/dump/smt_srv12_ap_srv551_ap_1024i.pdst
Data page size distrubution: 0
Loading data page size distribution from /home/bsc/bsc018186/scratch/itp_asplos25_AE/dump/smt_srv12_ap_srv551_ap_1024i.pdst
cpu0_L2C IP-based stride prefetcher
cpu0_L2C is using PTP replacement policy:
	TLB_STRESS_THRESHOLD:0
	PTE_EVICTION_RATIO:0
cpu0_L1D next line prefetcher
cpu0_STLB using iTP with max lru@8
cpu0_STLB using iTP with instr@0 and data@2
Init sat counter with 3 bits (max:50).
cpu0_L1I next line prefetcher
Off-chip DRAM Size: 4 GiB Channels: 1 Width: 64-bit Data Rate: 3200 MT/s
Heartbeat CPU 0 instructions: 10000001 cycles: 2500371 heartbeat IPC: 3.99941 cumulative IPC: 3.99941 (Simulation time: 0 hr 0 min 37 sec) 
Heartbeat CPU 0 instructions: 20000001 cycles: 5000656 heartbeat IPC: 3.99955 cumulative IPC: 3.99948 (Simulation time: 0 hr 1 min 16 sec) 
Heartbeat CPU 0 instructions: 30000003 cycles: 7501286 heartbeat IPC: 3.999 cumulative IPC: 3.99932 (Simulation time: 0 hr 1 min 56 sec) 
Heartbeat CPU 0 instructions: 40000002 cycles: 10001442 heartbeat IPC: 3.99976 cumulative IPC: 3.99943 (Simulation time: 0 hr 2 min 35 sec) 
Heartbeat CPU 0 instructions: 50000002 cycles: 12501568 heartbeat IPC: 3.9998 cumulative IPC: 3.9995 (Simulation time: 0 hr 3 min 15 sec) 
Warmup finished CPU 0 instructions: 50000002 cycles: 12501569 cumulative IPC: 3.9995 (Simulation time: 0 hr 3 min 15 sec) 

Warmup complete CPU 0 instructions: 50000002 cycles: 12501569 (Simulation time: 0 hr 3 min 15 sec) 

Heartbeat CPU 0 instructions: 60000000 cycles: 43882516 heartbeat IPC: 0.318665 cumulative IPC: 0.318665 (Simulation time: 0 hr 4 min 38 sec) 
Heartbeat CPU 0 instructions: 70000000 cycles: 76139363 heartbeat IPC: 0.310012 cumulative IPC: 0.314279 (Simulation time: 0 hr 6 min 9 sec) 
Heartbeat CPU 0 instructions: 80000001 cycles: 107463865 heartbeat IPC: 0.319239 cumulative IPC: 0.315915 (Simulation time: 0 hr 7 min 48 sec) 
Heartbeat CPU 0 instructions: 90000000 cycles: 134739368 heartbeat IPC: 0.36663 cumulative IPC: 0.327232 (Simulation time: 0 hr 9 min 18 sec) 
Heartbeat CPU 0 instructions: 100000000 cycles: 165608682 heartbeat IPC: 0.323947 cumulative IPC: 0.326569 (Simulation time: 0 hr 10 min 55 sec) 
Heartbeat CPU 0 instructions: 110000000 cycles: 195806691 heartbeat IPC: 0.331148 cumulative IPC: 0.327324 (Simulation time: 0 hr 12 min 33 sec) 
Heartbeat CPU 0 instructions: 120000001 cycles: 222047986 heartbeat IPC: 0.381079 cumulative IPC: 0.334055 (Simulation time: 0 hr 14 min 4 sec) 
Heartbeat CPU 0 instructions: 130000001 cycles: 239944047 heartbeat IPC: 0.558783 cumulative IPC: 0.351738 (Simulation time: 0 hr 15 min 21 sec) 
Heartbeat CPU 0 instructions: 140000000 cycles: 258546720 heartbeat IPC: 0.537558 cumulative IPC: 0.365787 (Simulation time: 0 hr 16 min 36 sec) 
Heartbeat CPU 0 instructions: 150000002 cycles: 290577935 heartbeat IPC: 0.312196 cumulative IPC: 0.359614 (Simulation time: 0 hr 18 min 12 sec) 
Simulation finished CPU 0 instructions: 100000000 cycles: 278076367 cumulative IPC: 0.359614 (Simulation time: 0 hr 18 min 12 sec) 

Simulation complete CPU 0 instructions: 100000000 cycles: 278076367 (Simulation time: 0 hr 18 min 12 sec) 


ChampSim completed all CPUs

Saving instructions large page distribution to /home/bsc/bsc018186/scratch/itp_asplos25_AE/dump/smt_srv12_ap_srv551_ap_1024i.pdst...
Saving data large page distribution to /home/bsc/bsc018186/scratch/itp_asplos25_AE/dump/smt_srv12_ap_srv551_ap_1024i.pdst...
=== Simulation ===
CPU 0 runs /gpfs/projects/bsc18/MN4/bsc18/romol/ChampSim/traces/qualcomm_srv/smt_srv12_ap_srv551_ap_1024i.champsimtrace.xz

Region of Interest Statistics

CPU 0 cumulative IPC: 0.359614 instructions: 100000000 cycles: 278076367
CPU 0 Branch Prediction Accuracy: 77.4284% MPKI: 43.7503 Average ROB Occupancy at Mispredict: 11.1189
Branch type MPKI
BRANCH_DIRECT_JUMP: 1.3119
BRANCH_INDIRECT: 23.221
BRANCH_CONDITIONAL: 12.1681
BRANCH_DIRECT_CALL: 2.50059
BRANCH_INDIRECT_CALL: 1.19351
BRANCH_RETURN: 3.35539

Instructions large pages: 0
Instructions small pages: 11842
Large page distribution for instructions: 0%

Data large pages: 0
Data small pages: 9976
Large page distribution for data: 0%

cpu0_L1I TOTAL       ACCESS:   39945543  HIT:   32180282  MISS:    7765261  iACCESS:   39945543  iHIT:   32180282  iMISS:    7765261  dACCESS:          0  dHIT:          0  dMISS:          0  itACCESS:          0  itHIT:          0  itMISS:          0  dtACCESS:          0  dtHIT:          0  dtMISS:          0
cpu0_L1I LOAD         ACCESS:   11371526  HIT:    9265909  MISS:    2105617  iACCESS:   11371526  iHIT:    9265909  iMISS:    2105617  dACCESS:          0  dHIT:          0  dMISS:          0  itACCESS:          0  itHIT:          0  itMISS:          0  dtACCESS:          0  dtHIT:          0  dtMISS:          0
cpu0_L1I RFO          ACCESS:          0  HIT:          0  MISS:          0  iACCESS:          0  iHIT:          0  iMISS:          0  dACCESS:          0  dHIT:          0  dMISS:          0  itACCESS:          0  itHIT:          0  itMISS:          0  dtACCESS:          0  dtHIT:          0  dtMISS:          0
cpu0_L1I PREFETCH     ACCESS:   28574017  HIT:   22914373  MISS:    5659644  iACCESS:   28574017  iHIT:   22914373  iMISS:    5659644  dACCESS:          0  dHIT:          0  dMISS:          0  itACCESS:          0  itHIT:          0  itMISS:          0  dtACCESS:          0  dtHIT:          0  dtMISS:          0
cpu0_L1I WRITE        ACCESS:          0  HIT:          0  MISS:          0  iACCESS:          0  iHIT:          0  iMISS:          0  dACCESS:          0  dHIT:          0  dMISS:          0  itACCESS:          0  itHIT:          0  itMISS:          0  dtACCESS:          0  dtHIT:          0  dtMISS:          0
cpu0_L1I TRANSLATION  ACCESS:          0  HIT:          0  MISS:          0  iACCESS:          0  iHIT:          0  iMISS:          0  dACCESS:          0  dHIT:          0  dMISS:          0  itACCESS:          0  itHIT:          0  itMISS:          0  dtACCESS:          0  dtHIT:          0  dtMISS:          0
cpu0_L1I PREFETCH  REQUESTED:   31237386  ISSUED:   31237253  CROSSED:          0  USEFUL:    1982685  USELESS:     693815
cpu0_L1I AVERAGE iMISS LATENCY: 25.0443 cycles
cpu0_L1I AVERAGE dMISS LATENCY: 0 cycles
cpu0_L1I AVERAGE itMISS LATENCY: 0 cycles
cpu0_L1I AVERAGE dtMISS LATENCY: 0 cycles
cpu0_L1I PAGE CROSSINGS (TLB HIT):         0 
cpu0_L1I PAGE CROSSINGS (TLB MISS):         0 
cpu0_L1I AVERAGE MISS LATENCY: 25.0443 cycles
cpu0_ITLB TOTAL       ACCESS:   33667492  HIT:   31678554  MISS:    1988938  iACCESS:   33667492  iHIT:   31678554  iMISS:    1988938  dACCESS:          0  dHIT:          0  dMISS:          0  itACCESS:          0  itHIT:          0  itMISS:          0  dtACCESS:          0  dtHIT:          0  dtMISS:          0
cpu0_ITLB LOAD         ACCESS:   33667492  HIT:   31678554  MISS:    1988938  iACCESS:   33667492  iHIT:   31678554  iMISS:    1988938  dACCESS:          0  dHIT:          0  dMISS:          0  itACCESS:          0  itHIT:          0  itMISS:          0  dtACCESS:          0  dtHIT:          0  dtMISS:          0
cpu0_ITLB RFO          ACCESS:          0  HIT:          0  MISS:          0  iACCESS:          0  iHIT:          0  iMISS:          0  dACCESS:          0  dHIT:          0  dMISS:          0  itACCESS:          0  itHIT:          0  itMISS:          0  dtACCESS:          0  dtHIT:          0  dtMISS:          0
cpu0_ITLB PREFETCH     ACCESS:          0  HIT:          0  MISS:          0  iACCESS:          0  iHIT:          0  iMISS:          0  dACCESS:          0  dHIT:          0  dMISS:          0  itACCESS:          0  itHIT:          0  itMISS:          0  dtACCESS:          0  dtHIT:          0  dtMISS:          0
cpu0_ITLB WRITE        ACCESS:          0  HIT:          0  MISS:          0  iACCESS:          0  iHIT:          0  iMISS:          0  dACCESS:          0  dHIT:          0  dMISS:          0  itACCESS:          0  itHIT:          0  itMISS:          0  dtACCESS:          0  dtHIT:          0  dtMISS:          0
cpu0_ITLB TRANSLATION  ACCESS:          0  HIT:          0  MISS:          0  iACCESS:          0  iHIT:          0  iMISS:          0  dACCESS:          0  dHIT:          0  dMISS:          0  itACCESS:          0  itHIT:          0  itMISS:          0  dtACCESS:          0  dtHIT:          0  dtMISS:          0
cpu0_ITLB PREFETCH  REQUESTED:          0  ISSUED:          0  CROSSED:          0  USEFUL:     353843  USELESS:      71491
cpu0_ITLB AVERAGE iMISS LATENCY: 7.07938 cycles
cpu0_ITLB AVERAGE dMISS LATENCY: 0 cycles
cpu0_ITLB AVERAGE itMISS LATENCY: 0 cycles
cpu0_ITLB AVERAGE dtMISS LATENCY: 0 cycles
cpu0_ITLB PAGE CROSSINGS (TLB HIT):         0 
cpu0_ITLB PAGE CROSSINGS (TLB MISS):         0 
cpu0_ITLB AVERAGE MISS LATENCY: 7.07938 cycles
cpu0_DTLB TOTAL       ACCESS:   30886790  HIT:   24845276  MISS:    6041514  iACCESS:          0  iHIT:          0  iMISS:          0  dACCESS:   30886790  dHIT:   24845276  dMISS:    6041514  itACCESS:          0  itHIT:          0  itMISS:          0  dtACCESS:          0  dtHIT:          0  dtMISS:          0
cpu0_DTLB LOAD         ACCESS:   30886790  HIT:   24845276  MISS:    6041514  iACCESS:          0  iHIT:          0  iMISS:          0  dACCESS:   30886790  dHIT:   24845276  dMISS:    6041514  itACCESS:          0  itHIT:          0  itMISS:          0  dtACCESS:          0  dtHIT:          0  dtMISS:          0
cpu0_DTLB RFO          ACCESS:          0  HIT:          0  MISS:          0  iACCESS:          0  iHIT:          0  iMISS:          0  dACCESS:          0  dHIT:          0  dMISS:          0  itACCESS:          0  itHIT:          0  itMISS:          0  dtACCESS:          0  dtHIT:          0  dtMISS:          0
cpu0_DTLB PREFETCH     ACCESS:          0  HIT:          0  MISS:          0  iACCESS:          0  iHIT:          0  iMISS:          0  dACCESS:          0  dHIT:          0  dMISS:          0  itACCESS:          0  itHIT:          0  itMISS:          0  dtACCESS:          0  dtHIT:          0  dtMISS:          0
cpu0_DTLB WRITE        ACCESS:          0  HIT:          0  MISS:          0  iACCESS:          0  iHIT:          0  iMISS:          0  dACCESS:          0  dHIT:          0  dMISS:          0  itACCESS:          0  itHIT:          0  itMISS:          0  dtACCESS:          0  dtHIT:          0  dtMISS:          0
cpu0_DTLB TRANSLATION  ACCESS:          0  HIT:          0  MISS:          0  iACCESS:          0  iHIT:          0  iMISS:          0  dACCESS:          0  dHIT:          0  dMISS:          0  itACCESS:          0  itHIT:          0  itMISS:          0  dtACCESS:          0  dtHIT:          0  dtMISS:          0
cpu0_DTLB PREFETCH  REQUESTED:          0  ISSUED:          0  CROSSED:          0  USEFUL:          0  USELESS:          0
cpu0_DTLB AVERAGE iMISS LATENCY: 0 cycles
cpu0_DTLB AVERAGE dMISS LATENCY: 15.6096 cycles
cpu0_DTLB AVERAGE itMISS LATENCY: 0 cycles
cpu0_DTLB AVERAGE dtMISS LATENCY: 0 cycles
cpu0_DTLB PAGE CROSSINGS (TLB HIT):         0 
cpu0_DTLB PAGE CROSSINGS (TLB MISS):         0 
cpu0_DTLB AVERAGE MISS LATENCY: 15.6096 cycles
cpu0_STLB TOTAL       ACCESS:    3633545  HIT:    3312195  MISS:     321350  iACCESS:     425339  iHIT:     369141  iMISS:      56198  dACCESS:    3208206  dHIT:    2943054  dMISS:     265152  itACCESS:          0  itHIT:          0  itMISS:          0  dtACCESS:          0  dtHIT:          0  dtMISS:          0
cpu0_STLB LOAD         ACCESS:    3633545  HIT:    3312195  MISS:     321350  iACCESS:     425339  iHIT:     369141  iMISS:      56198  dACCESS:    3208206  dHIT:    2943054  dMISS:     265152  itACCESS:          0  itHIT:          0  itMISS:          0  dtACCESS:          0  dtHIT:          0  dtMISS:          0
cpu0_STLB RFO          ACCESS:          0  HIT:          0  MISS:          0  iACCESS:          0  iHIT:          0  iMISS:          0  dACCESS:          0  dHIT:          0  dMISS:          0  itACCESS:          0  itHIT:          0  itMISS:          0  dtACCESS:          0  dtHIT:          0  dtMISS:          0
cpu0_STLB PREFETCH     ACCESS:          0  HIT:          0  MISS:          0  iACCESS:          0  iHIT:          0  iMISS:          0  dACCESS:          0  dHIT:          0  dMISS:          0  itACCESS:          0  itHIT:          0  itMISS:          0  dtACCESS:          0  dtHIT:          0  dtMISS:          0
cpu0_STLB WRITE        ACCESS:          0  HIT:          0  MISS:          0  iACCESS:          0  iHIT:          0  iMISS:          0  dACCESS:          0  dHIT:          0  dMISS:          0  itACCESS:          0  itHIT:          0  itMISS:          0  dtACCESS:          0  dtHIT:          0  dtMISS:          0
cpu0_STLB TRANSLATION  ACCESS:          0  HIT:          0  MISS:          0  iACCESS:          0  iHIT:          0  iMISS:          0  dACCESS:          0  dHIT:          0  dMISS:          0  itACCESS:          0  itHIT:          0  itMISS:          0  dtACCESS:          0  dtHIT:          0  dtMISS:          0
cpu0_STLB PREFETCH  REQUESTED:          0  ISSUED:          0  CROSSED:          0  USEFUL:          0  USELESS:          0
cpu0_STLB AVERAGE iMISS LATENCY: 33.39 cycles
cpu0_STLB AVERAGE dMISS LATENCY: 212.597 cycles
cpu0_STLB AVERAGE itMISS LATENCY: 0 cycles
cpu0_STLB AVERAGE dtMISS LATENCY: 0 cycles
cpu0_STLB PAGE CROSSINGS (TLB HIT):         0 
cpu0_STLB PAGE CROSSINGS (TLB MISS):         0 
cpu0_STLB AVERAGE MISS LATENCY: 245.987 cycles
cpu0_L1D TOTAL       ACCESS:   47919106  HIT:   39766650  MISS:    8152456  iACCESS:          0  iHIT:          0  iMISS:          0  dACCESS:   47427402  dHIT:   39742576  dMISS:    7684826  itACCESS:      65732  itHIT:       5293  itMISS:      60439  dtACCESS:     425972  dtHIT:      18781  dtMISS:     407191
cpu0_L1D LOAD         ACCESS:   22808154  HIT:   18506275  MISS:    4301879  iACCESS:          0  iHIT:          0  iMISS:          0  dACCESS:   22808154  dHIT:   18506275  dMISS:    4301879  itACCESS:          0  itHIT:          0  itMISS:          0  dtACCESS:          0  dtHIT:          0  dtMISS:          0
cpu0_L1D RFO          ACCESS:          0  HIT:          0  MISS:          0  iACCESS:          0  iHIT:          0  iMISS:          0  dACCESS:          0  dHIT:          0  dMISS:          0  itACCESS:          0  itHIT:          0  itMISS:          0  dtACCESS:          0  dtHIT:          0  dtMISS:          0
cpu0_L1D PREFETCH     ACCESS:   14817726  HIT:   12002804  MISS:    2814922  iACCESS:          0  iHIT:          0  iMISS:          0  dACCESS:   14817726  dHIT:   12002804  dMISS:    2814922  itACCESS:          0  itHIT:          0  itMISS:          0  dtACCESS:          0  dtHIT:          0  dtMISS:          0
cpu0_L1D WRITE        ACCESS:    9801522  HIT:    9233497  MISS:     568025  iACCESS:          0  iHIT:          0  iMISS:          0  dACCESS:    9801522  dHIT:    9233497  dMISS:     568025  itACCESS:          0  itHIT:          0  itMISS:          0  dtACCESS:          0  dtHIT:          0  dtMISS:          0
cpu0_L1D TRANSLATION  ACCESS:     491704  HIT:      24074  MISS:     467630  iACCESS:          0  iHIT:          0  iMISS:          0  dACCESS:          0  dHIT:          0  dMISS:          0  itACCESS:      65732  itHIT:       5293  itMISS:      60439  dtACCESS:     425972  dtHIT:      18781  dtMISS:     407191
cpu0_L1D PREFETCH  REQUESTED:   22808154  ISSUED:   18970924  CROSSED:          0  USEFUL:     332457  USELESS:    1142570
cpu0_L1D AVERAGE iMISS LATENCY: 0 cycles
cpu0_L1D AVERAGE dMISS LATENCY: 34.3325 cycles
cpu0_L1D AVERAGE itMISS LATENCY: 1.23356 cycles
cpu0_L1D AVERAGE dtMISS LATENCY: 7.7931 cycles
cpu0_L1D PAGE CROSSINGS (TLB HIT):         0 
cpu0_L1D PAGE CROSSINGS (TLB MISS):         0 
cpu0_L1D AVERAGE MISS LATENCY: 43.3592 cycles
cpu0_L2C TOTAL       ACCESS:    9935609  HIT:    5399329  MISS:    4536280  iACCESS:    3390851  iHIT:    1864929  iMISS:    1525922  dACCESS:    6107330  dHIT:    3468127  dMISS:    2639203  itACCESS:      60022  itHIT:       8306  itMISS:      51716  dtACCESS:     377406  dtHIT:      57967  dtMISS:     319439
cpu0_L2C LOAD         ACCESS:    3637829  HIT:    2377149  MISS:    1260680  iACCESS:     747004  iHIT:     418469  iMISS:     328535  dACCESS:    2890825  dHIT:    1958680  dMISS:     932145  itACCESS:          0  itHIT:          0  itMISS:          0  dtACCESS:          0  dtHIT:          0  dtMISS:          0
cpu0_L2C RFO          ACCESS:     230007  HIT:      90011  MISS:     139996  iACCESS:          0  iHIT:          0  iMISS:          0  dACCESS:     230007  dHIT:      90011  dMISS:     139996  itACCESS:          0  itHIT:          0  itMISS:          0  dtACCESS:          0  dtHIT:          0  dtMISS:          0
cpu0_L2C PREFETCH     ACCESS:    5311449  HIT:    2585758  MISS:    2725691  iACCESS:    2643847  iHIT:    1446460  iMISS:    1197387  dACCESS:    2667602  dHIT:    1139298  dMISS:    1528304  itACCESS:          0  itHIT:          0  itMISS:          0  dtACCESS:          0  dtHIT:          0  dtMISS:          0
cpu0_L2C WRITE        ACCESS:     318896  HIT:     280138  MISS:      38758  iACCESS:          0  iHIT:          0  iMISS:          0  dACCESS:     318896  dHIT:     280138  dMISS:      38758  itACCESS:          0  itHIT:          0  itMISS:          0  dtACCESS:          0  dtHIT:          0  dtMISS:          0
cpu0_L2C TRANSLATION  ACCESS:     437428  HIT:      66273  MISS:     371155  iACCESS:          0  iHIT:          0  iMISS:          0  dACCESS:          0  dHIT:          0  dMISS:          0  itACCESS:      60022  itHIT:       8306  itMISS:      51716  dtACCESS:     377406  dtHIT:      57967  dtMISS:     319439
cpu0_L2C PREFETCH  REQUESTED:    1399697  ISSUED:    1399673  CROSSED:          0  USEFUL:     326539  USELESS:     311572
cpu0_L2C AVERAGE iMISS LATENCY: 36.6985 cycles
cpu0_L2C AVERAGE dMISS LATENCY: 69.9378 cycles
cpu0_L2C AVERAGE itMISS LATENCY: 2.08599 cycles
cpu0_L2C AVERAGE dtMISS LATENCY: 13.1817 cycles
cpu0_L2C PAGE CROSSINGS (TLB HIT):         0 
cpu0_L2C PAGE CROSSINGS (TLB MISS):         0 
cpu0_L2C AVERAGE MISS LATENCY: 121.904 cycles
LLC TOTAL       ACCESS:    4498242  HIT:    1755175  MISS:    2743067  iACCESS:    1445938  iHIT:     567276  iMISS:     878662  dACCESS:    2681149  dHIT:    1141325  dMISS:    1539824  itACCESS:      51716  itHIT:       4381  itMISS:      47335  dtACCESS:     319439  dtHIT:      42193  dtMISS:     277246
LLC LOAD         ACCESS:    1254283  HIT:     625776  MISS:     628507  iACCESS:     327552  iHIT:     142086  iMISS:     185466  dACCESS:     926731  dHIT:     483690  dMISS:     443041  itACCESS:          0  itHIT:          0  itMISS:          0  dtACCESS:          0  dtHIT:          0  dtMISS:          0
LLC RFO          ACCESS:     139964  HIT:      56989  MISS:      82975  iACCESS:          0  iHIT:          0  iMISS:          0  dACCESS:     139964  dHIT:      56989  dMISS:      82975  itACCESS:          0  itHIT:          0  itMISS:          0  dtACCESS:          0  dtHIT:          0  dtMISS:          0
LLC PREFETCH     ACCESS:    2539294  HIT:     839950  MISS:    1699344  iACCESS:    1118386  iHIT:     425190  iMISS:     693196  dACCESS:    1420908  dHIT:     414760  dMISS:    1006148  itACCESS:          0  itHIT:          0  itMISS:          0  dtACCESS:          0  dtHIT:          0  dtMISS:          0
LLC WRITE        ACCESS:     193546  HIT:     185886  MISS:       7660  iACCESS:          0  iHIT:          0  iMISS:          0  dACCESS:     193546  dHIT:     185886  dMISS:       7660  itACCESS:          0  itHIT:          0  itMISS:          0  dtACCESS:          0  dtHIT:          0  dtMISS:          0
LLC TRANSLATION  ACCESS:     371155  HIT:      46574  MISS:     324581  iACCESS:          0  iHIT:          0  iMISS:          0  dACCESS:          0  dHIT:          0  dMISS:          0  itACCESS:      51716  itHIT:       4381  itMISS:      47335  dtACCESS:     319439  dtHIT:      42193  dtMISS:     277246
LLC PREFETCH  REQUESTED:          0  ISSUED:          0  CROSSED:          0  USEFUL:          0  USELESS:          0
LLC AVERAGE iMISS LATENCY: 50.3487 cycles
LLC AVERAGE dMISS LATENCY: 98.6917 cycles
LLC AVERAGE itMISS LATENCY: 3.07589 cycles
LLC AVERAGE dtMISS LATENCY: 19.4983 cycles
LLC PAGE CROSSINGS (TLB HIT):         0 
LLC PAGE CROSSINGS (TLB MISS):         0 
LLC AVERAGE MISS LATENCY: 171.615 cycles

PageTableWalker TOTAL       ACCESS:     180094  
PageTableWalker AVERAGE LATENCY: 6.62756 cycles
PageTableWalker TOTAL LATENCY: 1193583 cycles

DRAM Statistics
Channel 0
 RQ ROW_BUFFER_HIT:     604953
  ROW_BUFFER_MISS:    2113706
 AVG DBUS CONGESTED CYCLE:    3.65008
 WQ ROW_BUFFER_HIT:      58506
  ROW_BUFFER_MISS:      49193  FULL:          0

