last_page:0x200000000000000
VMEM_RES_CAP:0x100000
PAGE_SIZE:4096
LOG2_PAGE_SIZE:12
LOG2_PAGE_TABLE_SIZE:9
page_table_levels:5
WARNING: physical memory size is smaller than virtual memory size
FDiP enabled with aggresivity 16

*** ChampSim Multicore Out-of-Order Simulator ***

Warmup Instructions: 50000000
Simulation Instructions: 100000000
Number of CPUs: 1
Small page size: 4096
Large page size: 2097152

CPU 0 Bimodal branch predictor
Basic BTB sets: 1024 ways: 8 indirect buffer size: 4096 RAS size: 64
Instruction page size distrubution: 0
Loading instruction page size distribution from /home/bsc/bsc018186/scratch/itp_asplos25_AE/dump/smt_srv540_ap_srv526_ap_1024i.pdst
Data page size distrubution: 0
Loading data page size distribution from /home/bsc/bsc018186/scratch/itp_asplos25_AE/dump/smt_srv540_ap_srv526_ap_1024i.pdst
cpu0_L2C IP-based stride prefetcher
cpu0_L1D next line prefetcher
cpu0_L1I next line prefetcher
Off-chip DRAM Size: 4 GiB Channels: 1 Width: 64-bit Data Rate: 3200 MT/s
Heartbeat CPU 0 instructions: 10000000 cycles: 2500502 heartbeat IPC: 3.9992 cumulative IPC: 3.9992 (Simulation time: 0 hr 0 min 40 sec) 
Heartbeat CPU 0 instructions: 20000001 cycles: 5000884 heartbeat IPC: 3.99939 cumulative IPC: 3.9993 (Simulation time: 0 hr 1 min 24 sec) 
Heartbeat CPU 0 instructions: 30000002 cycles: 7583258 heartbeat IPC: 3.87241 cumulative IPC: 3.95609 (Simulation time: 0 hr 2 min 8 sec) 
Heartbeat CPU 0 instructions: 40000002 cycles: 10128406 heartbeat IPC: 3.92905 cumulative IPC: 3.94929 (Simulation time: 0 hr 2 min 50 sec) 
Heartbeat CPU 0 instructions: 50000000 cycles: 12653639 heartbeat IPC: 3.96003 cumulative IPC: 3.95144 (Simulation time: 0 hr 3 min 32 sec) 
Warmup finished CPU 0 instructions: 50000000 cycles: 12653640 cumulative IPC: 3.95144 (Simulation time: 0 hr 3 min 32 sec) 

Warmup complete CPU 0 instructions: 50000000 cycles: 12653640 (Simulation time: 0 hr 3 min 32 sec) 

Heartbeat CPU 0 instructions: 60000003 cycles: 41702813 heartbeat IPC: 0.344244 cumulative IPC: 0.344244 (Simulation time: 0 hr 4 min 54 sec) 
Heartbeat CPU 0 instructions: 70000004 cycles: 72143844 heartbeat IPC: 0.328505 cumulative IPC: 0.33619 (Simulation time: 0 hr 6 min 20 sec) 
Heartbeat CPU 0 instructions: 80000002 cycles: 102253644 heartbeat IPC: 0.332118 cumulative IPC: 0.334822 (Simulation time: 0 hr 7 min 45 sec) 
Heartbeat CPU 0 instructions: 90000000 cycles: 131495706 heartbeat IPC: 0.341974 cumulative IPC: 0.336582 (Simulation time: 0 hr 9 min 9 sec) 
Heartbeat CPU 0 instructions: 100000001 cycles: 162521701 heartbeat IPC: 0.322311 cumulative IPC: 0.333627 (Simulation time: 0 hr 10 min 35 sec) 
Heartbeat CPU 0 instructions: 110000000 cycles: 192637293 heartbeat IPC: 0.332054 cumulative IPC: 0.333364 (Simulation time: 0 hr 11 min 59 sec) 
Heartbeat CPU 0 instructions: 120000000 cycles: 222386754 heartbeat IPC: 0.336141 cumulative IPC: 0.333758 (Simulation time: 0 hr 13 min 24 sec) 
Heartbeat CPU 0 instructions: 130000002 cycles: 252176397 heartbeat IPC: 0.335688 cumulative IPC: 0.333998 (Simulation time: 0 hr 14 min 49 sec) 
Heartbeat CPU 0 instructions: 140000002 cycles: 282657813 heartbeat IPC: 0.328069 cumulative IPC: 0.333329 (Simulation time: 0 hr 16 min 15 sec) 
Heartbeat CPU 0 instructions: 150000001 cycles: 312665420 heartbeat IPC: 0.333249 cumulative IPC: 0.333321 (Simulation time: 0 hr 17 min 42 sec) 
Simulation finished CPU 0 instructions: 100000001 cycles: 300011781 cumulative IPC: 0.333321 (Simulation time: 0 hr 17 min 42 sec) 

Simulation complete CPU 0 instructions: 100000001 cycles: 300011781 (Simulation time: 0 hr 17 min 42 sec) 


ChampSim completed all CPUs

Saving instructions large page distribution to /home/bsc/bsc018186/scratch/itp_asplos25_AE/dump/smt_srv540_ap_srv526_ap_1024i.pdst...
Saving data large page distribution to /home/bsc/bsc018186/scratch/itp_asplos25_AE/dump/smt_srv540_ap_srv526_ap_1024i.pdst...
=== Simulation ===
CPU 0 runs /gpfs/projects/bsc18/MN4/bsc18/romol/ChampSim/traces/qualcomm_srv/smt_srv540_ap_srv526_ap_1024i.champsimtrace.xz

Region of Interest Statistics

CPU 0 cumulative IPC: 0.333321 instructions: 100000001 cycles: 300011781
CPU 0 Branch Prediction Accuracy: 75.4686% MPKI: 44.1966 Average ROB Occupancy at Mispredict: 10.9556
Branch type MPKI
BRANCH_DIRECT_JUMP: 1.45597
BRANCH_INDIRECT: 22.808
BRANCH_CONDITIONAL: 12.6845
BRANCH_DIRECT_CALL: 2.66873
BRANCH_INDIRECT_CALL: 1.00036
BRANCH_RETURN: 3.57917

Instructions large pages: 0
Instructions small pages: 13358
Large page distribution for instructions: 0%

Data large pages: 0
Data small pages: 11962
Large page distribution for data: 0%

cpu0_L1I TOTAL       ACCESS:   39048059  HIT:   30371796  MISS:    8676263  iACCESS:   39048059  iHIT:   30371796  iMISS:    8676263  dACCESS:          0  dHIT:          0  dMISS:          0  itACCESS:          0  itHIT:          0  itMISS:          0  dtACCESS:          0  dtHIT:          0  dtMISS:          0
cpu0_L1I LOAD         ACCESS:   11667318  HIT:    9295594  MISS:    2371724  iACCESS:   11667318  iHIT:    9295594  iMISS:    2371724  dACCESS:          0  dHIT:          0  dMISS:          0  itACCESS:          0  itHIT:          0  itMISS:          0  dtACCESS:          0  dtHIT:          0  dtMISS:          0
cpu0_L1I RFO          ACCESS:          0  HIT:          0  MISS:          0  iACCESS:          0  iHIT:          0  iMISS:          0  dACCESS:          0  dHIT:          0  dMISS:          0  itACCESS:          0  itHIT:          0  itMISS:          0  dtACCESS:          0  dtHIT:          0  dtMISS:          0
cpu0_L1I PREFETCH     ACCESS:   27380741  HIT:   21076202  MISS:    6304539  iACCESS:   27380741  iHIT:   21076202  iMISS:    6304539  dACCESS:          0  dHIT:          0  dMISS:          0  itACCESS:          0  itHIT:          0  itMISS:          0  dtACCESS:          0  dtHIT:          0  dtMISS:          0
cpu0_L1I WRITE        ACCESS:          0  HIT:          0  MISS:          0  iACCESS:          0  iHIT:          0  iMISS:          0  dACCESS:          0  dHIT:          0  dMISS:          0  itACCESS:          0  itHIT:          0  itMISS:          0  dtACCESS:          0  dtHIT:          0  dtMISS:          0
cpu0_L1I TRANSLATION  ACCESS:          0  HIT:          0  MISS:          0  iACCESS:          0  iHIT:          0  iMISS:          0  dACCESS:          0  dHIT:          0  dMISS:          0  itACCESS:          0  itHIT:          0  itMISS:          0  dtACCESS:          0  dtHIT:          0  dtMISS:          0
cpu0_L1I PREFETCH  REQUESTED:   30196383  ISSUED:   30196376  CROSSED:          0  USEFUL:    2193383  USELESS:     763104
cpu0_L1I AVERAGE iMISS LATENCY: 24.3699 cycles
cpu0_L1I AVERAGE dMISS LATENCY: 0 cycles
cpu0_L1I AVERAGE itMISS LATENCY: 0 cycles
cpu0_L1I AVERAGE dtMISS LATENCY: 0 cycles
cpu0_L1I PAGE CROSSINGS (TLB HIT):         0 
cpu0_L1I PAGE CROSSINGS (TLB MISS):         0 
cpu0_L1I AVERAGE MISS LATENCY: 24.3699 cycles
cpu0_ITLB TOTAL       ACCESS:   33058777  HIT:   30803125  MISS:    2255652  iACCESS:   33058777  iHIT:   30803125  iMISS:    2255652  dACCESS:          0  dHIT:          0  dMISS:          0  itACCESS:          0  itHIT:          0  itMISS:          0  dtACCESS:          0  dtHIT:          0  dtMISS:          0
cpu0_ITLB LOAD         ACCESS:   33058777  HIT:   30803125  MISS:    2255652  iACCESS:   33058777  iHIT:   30803125  iMISS:    2255652  dACCESS:          0  dHIT:          0  dMISS:          0  itACCESS:          0  itHIT:          0  itMISS:          0  dtACCESS:          0  dtHIT:          0  dtMISS:          0
cpu0_ITLB RFO          ACCESS:          0  HIT:          0  MISS:          0  iACCESS:          0  iHIT:          0  iMISS:          0  dACCESS:          0  dHIT:          0  dMISS:          0  itACCESS:          0  itHIT:          0  itMISS:          0  dtACCESS:          0  dtHIT:          0  dtMISS:          0
cpu0_ITLB PREFETCH     ACCESS:          0  HIT:          0  MISS:          0  iACCESS:          0  iHIT:          0  iMISS:          0  dACCESS:          0  dHIT:          0  dMISS:          0  itACCESS:          0  itHIT:          0  itMISS:          0  dtACCESS:          0  dtHIT:          0  dtMISS:          0
cpu0_ITLB WRITE        ACCESS:          0  HIT:          0  MISS:          0  iACCESS:          0  iHIT:          0  iMISS:          0  dACCESS:          0  dHIT:          0  dMISS:          0  itACCESS:          0  itHIT:          0  itMISS:          0  dtACCESS:          0  dtHIT:          0  dtMISS:          0
cpu0_ITLB TRANSLATION  ACCESS:          0  HIT:          0  MISS:          0  iACCESS:          0  iHIT:          0  iMISS:          0  dACCESS:          0  dHIT:          0  dMISS:          0  itACCESS:          0  itHIT:          0  itMISS:          0  dtACCESS:          0  dtHIT:          0  dtMISS:          0
cpu0_ITLB PREFETCH  REQUESTED:          0  ISSUED:          0  CROSSED:          0  USEFUL:     393155  USELESS:      83474
cpu0_ITLB AVERAGE iMISS LATENCY: 11.0059 cycles
cpu0_ITLB AVERAGE dMISS LATENCY: 0 cycles
cpu0_ITLB AVERAGE itMISS LATENCY: 0 cycles
cpu0_ITLB AVERAGE dtMISS LATENCY: 0 cycles
cpu0_ITLB PAGE CROSSINGS (TLB HIT):         0 
cpu0_ITLB PAGE CROSSINGS (TLB MISS):         0 
cpu0_ITLB AVERAGE MISS LATENCY: 11.0059 cycles
cpu0_DTLB TOTAL       ACCESS:   28881700  HIT:   25229268  MISS:    3652432  iACCESS:          0  iHIT:          0  iMISS:          0  dACCESS:   28881700  dHIT:   25229268  dMISS:    3652432  itACCESS:          0  itHIT:          0  itMISS:          0  dtACCESS:          0  dtHIT:          0  dtMISS:          0
cpu0_DTLB LOAD         ACCESS:   28881700  HIT:   25229268  MISS:    3652432  iACCESS:          0  iHIT:          0  iMISS:          0  dACCESS:   28881700  dHIT:   25229268  dMISS:    3652432  itACCESS:          0  itHIT:          0  itMISS:          0  dtACCESS:          0  dtHIT:          0  dtMISS:          0
cpu0_DTLB RFO          ACCESS:          0  HIT:          0  MISS:          0  iACCESS:          0  iHIT:          0  iMISS:          0  dACCESS:          0  dHIT:          0  dMISS:          0  itACCESS:          0  itHIT:          0  itMISS:          0  dtACCESS:          0  dtHIT:          0  dtMISS:          0
cpu0_DTLB PREFETCH     ACCESS:          0  HIT:          0  MISS:          0  iACCESS:          0  iHIT:          0  iMISS:          0  dACCESS:          0  dHIT:          0  dMISS:          0  itACCESS:          0  itHIT:          0  itMISS:          0  dtACCESS:          0  dtHIT:          0  dtMISS:          0
cpu0_DTLB WRITE        ACCESS:          0  HIT:          0  MISS:          0  iACCESS:          0  iHIT:          0  iMISS:          0  dACCESS:          0  dHIT:          0  dMISS:          0  itACCESS:          0  itHIT:          0  itMISS:          0  dtACCESS:          0  dtHIT:          0  dtMISS:          0
cpu0_DTLB TRANSLATION  ACCESS:          0  HIT:          0  MISS:          0  iACCESS:          0  iHIT:          0  iMISS:          0  dACCESS:          0  dHIT:          0  dMISS:          0  itACCESS:          0  itHIT:          0  itMISS:          0  dtACCESS:          0  dtHIT:          0  dtMISS:          0
cpu0_DTLB PREFETCH  REQUESTED:          0  ISSUED:          0  CROSSED:          0  USEFUL:          0  USELESS:          0
cpu0_DTLB AVERAGE iMISS LATENCY: 0 cycles
cpu0_DTLB AVERAGE dMISS LATENCY: 24.7864 cycles
cpu0_DTLB AVERAGE itMISS LATENCY: 0 cycles
cpu0_DTLB AVERAGE dtMISS LATENCY: 0 cycles
cpu0_DTLB PAGE CROSSINGS (TLB HIT):         0 
cpu0_DTLB PAGE CROSSINGS (TLB MISS):         0 
cpu0_DTLB AVERAGE MISS LATENCY: 24.7864 cycles
cpu0_STLB TOTAL       ACCESS:    2588244  HIT:    2203595  MISS:     384649  iACCESS:     476629  iHIT:     354961  iMISS:     121668  dACCESS:    2111615  dHIT:    1848634  dMISS:     262981  itACCESS:          0  itHIT:          0  itMISS:          0  dtACCESS:          0  dtHIT:          0  dtMISS:          0
cpu0_STLB LOAD         ACCESS:    2588244  HIT:    2203595  MISS:     384649  iACCESS:     476629  iHIT:     354961  iMISS:     121668  dACCESS:    2111615  dHIT:    1848634  dMISS:     262981  itACCESS:          0  itHIT:          0  itMISS:          0  dtACCESS:          0  dtHIT:          0  dtMISS:          0
cpu0_STLB RFO          ACCESS:          0  HIT:          0  MISS:          0  iACCESS:          0  iHIT:          0  iMISS:          0  dACCESS:          0  dHIT:          0  dMISS:          0  itACCESS:          0  itHIT:          0  itMISS:          0  dtACCESS:          0  dtHIT:          0  dtMISS:          0
cpu0_STLB PREFETCH     ACCESS:          0  HIT:          0  MISS:          0  iACCESS:          0  iHIT:          0  iMISS:          0  dACCESS:          0  dHIT:          0  dMISS:          0  itACCESS:          0  itHIT:          0  itMISS:          0  dtACCESS:          0  dtHIT:          0  dtMISS:          0
cpu0_STLB WRITE        ACCESS:          0  HIT:          0  MISS:          0  iACCESS:          0  iHIT:          0  iMISS:          0  dACCESS:          0  dHIT:          0  dMISS:          0  itACCESS:          0  itHIT:          0  itMISS:          0  dtACCESS:          0  dtHIT:          0  dtMISS:          0
cpu0_STLB TRANSLATION  ACCESS:          0  HIT:          0  MISS:          0  iACCESS:          0  iHIT:          0  iMISS:          0  dACCESS:          0  dHIT:          0  dMISS:          0  itACCESS:          0  itHIT:          0  itMISS:          0  dtACCESS:          0  dtHIT:          0  dtMISS:          0
cpu0_STLB PREFETCH  REQUESTED:          0  ISSUED:          0  CROSSED:          0  USEFUL:          0  USELESS:          0
cpu0_STLB AVERAGE iMISS LATENCY: 54.6107 cycles
cpu0_STLB AVERAGE dMISS LATENCY: 191.168 cycles
cpu0_STLB AVERAGE itMISS LATENCY: 0 cycles
cpu0_STLB AVERAGE dtMISS LATENCY: 0 cycles
cpu0_STLB PAGE CROSSINGS (TLB HIT):         0 
cpu0_STLB PAGE CROSSINGS (TLB MISS):         0 
cpu0_STLB AVERAGE MISS LATENCY: 245.779 cycles
cpu0_L1D TOTAL       ACCESS:   44416122  HIT:   39127015  MISS:    5289107  iACCESS:          0  iHIT:          0  iMISS:          0  dACCESS:   43860712  dHIT:   39091124  dMISS:    4769588  itACCESS:     136274  itHIT:      14184  itMISS:     122090  dtACCESS:     419136  dtHIT:      21707  dtMISS:     397429
cpu0_L1D LOAD         ACCESS:   20005571  HIT:   17882825  MISS:    2122746  iACCESS:          0  iHIT:          0  iMISS:          0  dACCESS:   20005571  dHIT:   17882825  dMISS:    2122746  itACCESS:          0  itHIT:          0  itMISS:          0  dtACCESS:          0  dtHIT:          0  dtMISS:          0
cpu0_L1D RFO          ACCESS:          0  HIT:          0  MISS:          0  iACCESS:          0  iHIT:          0  iMISS:          0  dACCESS:          0  dHIT:          0  dMISS:          0  itACCESS:          0  itHIT:          0  itMISS:          0  dtACCESS:          0  dtHIT:          0  dtMISS:          0
cpu0_L1D PREFETCH     ACCESS:   13632565  HIT:   11564072  MISS:    2068493  iACCESS:          0  iHIT:          0  iMISS:          0  dACCESS:   13632565  dHIT:   11564072  dMISS:    2068493  itACCESS:          0  itHIT:          0  itMISS:          0  dtACCESS:          0  dtHIT:          0  dtMISS:          0
cpu0_L1D WRITE        ACCESS:   10222576  HIT:    9644227  MISS:     578349  iACCESS:          0  iHIT:          0  iMISS:          0  dACCESS:   10222576  dHIT:    9644227  dMISS:     578349  itACCESS:          0  itHIT:          0  itMISS:          0  dtACCESS:          0  dtHIT:          0  dtMISS:          0
cpu0_L1D TRANSLATION  ACCESS:     555410  HIT:      35891  MISS:     519519  iACCESS:          0  iHIT:          0  iMISS:          0  dACCESS:          0  dHIT:          0  dMISS:          0  itACCESS:     136274  itHIT:      14184  itMISS:     122090  dtACCESS:     419136  dtHIT:      21707  dtMISS:     397429
cpu0_L1D PREFETCH  REQUESTED:   20005571  ISSUED:   18363936  CROSSED:          0  USEFUL:     353690  USELESS:     933003
cpu0_L1D AVERAGE iMISS LATENCY: 0 cycles
cpu0_L1D AVERAGE dMISS LATENCY: 52.5323 cycles
cpu0_L1D AVERAGE itMISS LATENCY: 3.75984 cycles
cpu0_L1D AVERAGE dtMISS LATENCY: 12.8612 cycles
cpu0_L1D PAGE CROSSINGS (TLB HIT):         0 
cpu0_L1D PAGE CROSSINGS (TLB MISS):         0 
cpu0_L1D AVERAGE MISS LATENCY: 69.1533 cycles
cpu0_L2C TOTAL       ACCESS:    8563151  HIT:    4084724  MISS:    4478427  iACCESS:    3767362  iHIT:    2229603  iMISS:    1537759  dACCESS:    4299356  dHIT:    1796324  dMISS:    2503032  itACCESS:     121576  itHIT:      20496  itMISS:     101080  dtACCESS:     374857  dtHIT:      38301  dtMISS:     336556
cpu0_L2C LOAD         ACCESS:    2044085  HIT:     981905  MISS:    1062180  iACCESS:     847300  iHIT:     522503  iMISS:     324797  dACCESS:    1196785  dHIT:     459402  dMISS:     737383  itACCESS:          0  itHIT:          0  itMISS:          0  dtACCESS:          0  dtHIT:          0  dtMISS:          0
cpu0_L2C RFO          ACCESS:     223877  HIT:      85727  MISS:     138150  iACCESS:          0  iHIT:          0  iMISS:          0  dACCESS:     223877  dHIT:      85727  dMISS:     138150  itACCESS:          0  itHIT:          0  itMISS:          0  dtACCESS:          0  dtHIT:          0  dtMISS:          0
cpu0_L2C PREFETCH     ACCESS:    5450619  HIT:    2613513  MISS:    2837106  iACCESS:    2920062  iHIT:    1707100  iMISS:    1212962  dACCESS:    2530557  dHIT:     906413  dMISS:    1624144  itACCESS:          0  itHIT:          0  itMISS:          0  dtACCESS:          0  dtHIT:          0  dtMISS:          0
cpu0_L2C WRITE        ACCESS:     348137  HIT:     344782  MISS:       3355  iACCESS:          0  iHIT:          0  iMISS:          0  dACCESS:     348137  dHIT:     344782  dMISS:       3355  itACCESS:          0  itHIT:          0  itMISS:          0  dtACCESS:          0  dtHIT:          0  dtMISS:          0
cpu0_L2C TRANSLATION  ACCESS:     496433  HIT:      58797  MISS:     437636  iACCESS:          0  iHIT:          0  iMISS:          0  dACCESS:          0  dHIT:          0  dMISS:          0  itACCESS:     121576  itHIT:      20496  itMISS:     101080  dtACCESS:     374857  dtHIT:      38301  dtMISS:     336556
cpu0_L2C PREFETCH  REQUESTED:    1478866  ISSUED:    1478863  CROSSED:          0  USEFUL:     354352  USELESS:     324728
cpu0_L2C AVERAGE iMISS LATENCY: 40.1191 cycles
cpu0_L2C AVERAGE dMISS LATENCY: 76.9071 cycles
cpu0_L2C AVERAGE itMISS LATENCY: 4.17275 cycles
cpu0_L2C AVERAGE dtMISS LATENCY: 14.3561 cycles
cpu0_L2C PAGE CROSSINGS (TLB HIT):         0 
cpu0_L2C PAGE CROSSINGS (TLB MISS):         0 
cpu0_L2C AVERAGE MISS LATENCY: 135.555 cycles
LLC TOTAL       ACCESS:    4478161  HIT:    1413936  MISS:    3064225  iACCESS:    1447539  iHIT:     487506  iMISS:     960033  dACCESS:    2592986  dHIT:     883039  dMISS:    1709947  itACCESS:     101080  itHIT:       7486  itMISS:      93594  dtACCESS:     336556  dtHIT:      35905  dtMISS:     300651
LLC LOAD         ACCESS:    1056829  HIT:     353964  MISS:     702865  iACCESS:     323417  iHIT:     116516  iMISS:     206901  dACCESS:     733412  dHIT:     237448  dMISS:     495964  itACCESS:          0  itHIT:          0  itMISS:          0  dtACCESS:          0  dtHIT:          0  dtMISS:          0
LLC RFO          ACCESS:     138146  HIT:      41568  MISS:      96578  iACCESS:          0  iHIT:          0  iMISS:          0  dACCESS:     138146  dHIT:      41568  dMISS:      96578  itACCESS:          0  itHIT:          0  itMISS:          0  dtACCESS:          0  dtHIT:          0  dtMISS:          0
LLC PREFETCH     ACCESS:    2633175  HIT:     773165  MISS:    1860010  iACCESS:    1124122  iHIT:     370990  iMISS:     753132  dACCESS:    1509053  dHIT:     402175  dMISS:    1106878  itACCESS:          0  itHIT:          0  itMISS:          0  dtACCESS:          0  dtHIT:          0  dtMISS:          0
LLC WRITE        ACCESS:     212375  HIT:     201848  MISS:      10527  iACCESS:          0  iHIT:          0  iMISS:          0  dACCESS:     212375  dHIT:     201848  dMISS:      10527  itACCESS:          0  itHIT:          0  itMISS:          0  dtACCESS:          0  dtHIT:          0  dtMISS:          0
LLC TRANSLATION  ACCESS:     437636  HIT:      43391  MISS:     394245  iACCESS:          0  iHIT:          0  iMISS:          0  dACCESS:          0  dHIT:          0  dMISS:          0  itACCESS:     101080  itHIT:       7486  itMISS:      93594  dtACCESS:     336556  dtHIT:      35905  dtMISS:     300651
LLC PREFETCH  REQUESTED:          0  ISSUED:          0  CROSSED:          0  USEFUL:          0  USELESS:          0
LLC AVERAGE iMISS LATENCY: 49.334 cycles
LLC AVERAGE dMISS LATENCY: 97.7749 cycles
LLC AVERAGE itMISS LATENCY: 5.44419 cycles
LLC AVERAGE dtMISS LATENCY: 18.8107 cycles
LLC PAGE CROSSINGS (TLB HIT):         0 
LLC PAGE CROSSINGS (TLB MISS):         0 
LLC AVERAGE MISS LATENCY: 171.364 cycles

PageTableWalker TOTAL       ACCESS:     144234  
PageTableWalker AVERAGE LATENCY: 6.46811 cycles
PageTableWalker TOTAL LATENCY: 932920 cycles

DRAM Statistics
Channel 0
 RQ ROW_BUFFER_HIT:     648842
  ROW_BUFFER_MISS:    2393604
 AVG DBUS CONGESTED CYCLE:    3.64815
 WQ ROW_BUFFER_HIT:      65155
  ROW_BUFFER_MISS:      55845  FULL:          0

