last_page:0x200000000000000
VMEM_RES_CAP:0x100000
PAGE_SIZE:4096
LOG2_PAGE_SIZE:12
LOG2_PAGE_TABLE_SIZE:9
page_table_levels:5
WARNING: physical memory size is smaller than virtual memory size
FDiP enabled with aggresivity 16

*** ChampSim Multicore Out-of-Order Simulator ***

Warmup Instructions: 50000000
Simulation Instructions: 100000000
Number of CPUs: 1
Small page size: 4096
Large page size: 2097152

CPU 0 Bimodal branch predictor
Basic BTB sets: 1024 ways: 8 indirect buffer size: 4096 RAS size: 64
Instruction page size distrubution: 0
Loading instruction page size distribution from /home/bsc/bsc018186/scratch/itp_asplos25_AE/dump/smt_srv537_ap_srv495_ap_1024i.pdst
Data page size distrubution: 0
Loading data page size distribution from /home/bsc/bsc018186/scratch/itp_asplos25_AE/dump/smt_srv537_ap_srv495_ap_1024i.pdst
cpu0_L2C IP-based stride prefetcher
cpu0_L2C is using PTP replacement policy:
	TLB_STRESS_THRESHOLD:0
	PTE_EVICTION_RATIO:0
cpu0_L1D next line prefetcher
CHiRPing...
cpu0_L1I next line prefetcher
Off-chip DRAM Size: 4 GiB Channels: 1 Width: 64-bit Data Rate: 3200 MT/s
Heartbeat CPU 0 instructions: 10000002 cycles: 2500828 heartbeat IPC: 3.99868 cumulative IPC: 3.99868 (Simulation time: 0 hr 0 min 36 sec) 
Heartbeat CPU 0 instructions: 20000000 cycles: 5001102 heartbeat IPC: 3.99957 cumulative IPC: 3.99912 (Simulation time: 0 hr 1 min 14 sec) 
Heartbeat CPU 0 instructions: 30000003 cycles: 7501545 heartbeat IPC: 3.9993 cumulative IPC: 3.99918 (Simulation time: 0 hr 1 min 52 sec) 
Heartbeat CPU 0 instructions: 40000001 cycles: 10001765 heartbeat IPC: 3.99965 cumulative IPC: 3.9993 (Simulation time: 0 hr 2 min 31 sec) 
Heartbeat CPU 0 instructions: 50000002 cycles: 12501913 heartbeat IPC: 3.99977 cumulative IPC: 3.99939 (Simulation time: 0 hr 3 min 9 sec) 
Warmup finished CPU 0 instructions: 50000002 cycles: 12501914 cumulative IPC: 3.99939 (Simulation time: 0 hr 3 min 9 sec) 

Warmup complete CPU 0 instructions: 50000002 cycles: 12501914 (Simulation time: 0 hr 3 min 9 sec) 

Heartbeat CPU 0 instructions: 60000001 cycles: 42527738 heartbeat IPC: 0.333047 cumulative IPC: 0.333047 (Simulation time: 0 hr 4 min 31 sec) 
Heartbeat CPU 0 instructions: 70000003 cycles: 73780323 heartbeat IPC: 0.319974 cumulative IPC: 0.32638 (Simulation time: 0 hr 5 min 54 sec) 
Heartbeat CPU 0 instructions: 80000002 cycles: 104451296 heartbeat IPC: 0.326042 cumulative IPC: 0.326267 (Simulation time: 0 hr 7 min 17 sec) 
Heartbeat CPU 0 instructions: 90000000 cycles: 134056284 heartbeat IPC: 0.337781 cumulative IPC: 0.329071 (Simulation time: 0 hr 8 min 38 sec) 
Heartbeat CPU 0 instructions: 100000003 cycles: 163825987 heartbeat IPC: 0.335913 cumulative IPC: 0.330417 (Simulation time: 0 hr 9 min 59 sec) 
Heartbeat CPU 0 instructions: 110000000 cycles: 195163732 heartbeat IPC: 0.319104 cumulative IPC: 0.328476 (Simulation time: 0 hr 11 min 23 sec) 
Heartbeat CPU 0 instructions: 120000000 cycles: 224950261 heartbeat IPC: 0.335723 cumulative IPC: 0.329492 (Simulation time: 0 hr 12 min 45 sec) 
Heartbeat CPU 0 instructions: 130000001 cycles: 254494301 heartbeat IPC: 0.338478 cumulative IPC: 0.330589 (Simulation time: 0 hr 14 min 7 sec) 
Heartbeat CPU 0 instructions: 140000003 cycles: 284212488 heartbeat IPC: 0.336495 cumulative IPC: 0.331235 (Simulation time: 0 hr 15 min 29 sec) 
Heartbeat CPU 0 instructions: 150000001 cycles: 314136692 heartbeat IPC: 0.334178 cumulative IPC: 0.331527 (Simulation time: 0 hr 16 min 50 sec) 
Simulation finished CPU 0 instructions: 100000004 cycles: 301634780 cumulative IPC: 0.331527 (Simulation time: 0 hr 16 min 50 sec) 

Simulation complete CPU 0 instructions: 100000004 cycles: 301634780 (Simulation time: 0 hr 16 min 50 sec) 


ChampSim completed all CPUs

Saving instructions large page distribution to /home/bsc/bsc018186/scratch/itp_asplos25_AE/dump/smt_srv537_ap_srv495_ap_1024i.pdst...
Saving data large page distribution to /home/bsc/bsc018186/scratch/itp_asplos25_AE/dump/smt_srv537_ap_srv495_ap_1024i.pdst...
=== Simulation ===
CPU 0 runs /gpfs/projects/bsc18/MN4/bsc18/romol/ChampSim/traces/qualcomm_srv/smt_srv537_ap_srv495_ap_1024i.champsimtrace.xz

Region of Interest Statistics

CPU 0 cumulative IPC: 0.331527 instructions: 100000004 cycles: 301634780
CPU 0 Branch Prediction Accuracy: 74.9718% MPKI: 45.2034 Average ROB Occupancy at Mispredict: 10.5538
Branch type MPKI
BRANCH_DIRECT_JUMP: 1.41107
BRANCH_INDIRECT: 23.2807
BRANCH_CONDITIONAL: 13.2201
BRANCH_DIRECT_CALL: 2.71227
BRANCH_INDIRECT_CALL: 1.02679
BRANCH_RETURN: 3.5525

Instructions large pages: 0
Instructions small pages: 10264
Large page distribution for instructions: 0%

Data large pages: 0
Data small pages: 8859
Large page distribution for data: 0%

cpu0_L1I TOTAL       ACCESS:   39473204  HIT:   30625416  MISS:    8847788  iACCESS:   39473204  iHIT:   30625416  iMISS:    8847788  dACCESS:          0  dHIT:          0  dMISS:          0  itACCESS:          0  itHIT:          0  itMISS:          0  dtACCESS:          0  dtHIT:          0  dtMISS:          0
cpu0_L1I LOAD         ACCESS:   11830298  HIT:    9424586  MISS:    2405712  iACCESS:   11830298  iHIT:    9424586  iMISS:    2405712  dACCESS:          0  dHIT:          0  dMISS:          0  itACCESS:          0  itHIT:          0  itMISS:          0  dtACCESS:          0  dtHIT:          0  dtMISS:          0
cpu0_L1I RFO          ACCESS:          0  HIT:          0  MISS:          0  iACCESS:          0  iHIT:          0  iMISS:          0  dACCESS:          0  dHIT:          0  dMISS:          0  itACCESS:          0  itHIT:          0  itMISS:          0  dtACCESS:          0  dtHIT:          0  dtMISS:          0
cpu0_L1I PREFETCH     ACCESS:   27642906  HIT:   21200830  MISS:    6442076  iACCESS:   27642906  iHIT:   21200830  iMISS:    6442076  dACCESS:          0  dHIT:          0  dMISS:          0  itACCESS:          0  itHIT:          0  itMISS:          0  dtACCESS:          0  dtHIT:          0  dtMISS:          0
cpu0_L1I WRITE        ACCESS:          0  HIT:          0  MISS:          0  iACCESS:          0  iHIT:          0  iMISS:          0  dACCESS:          0  dHIT:          0  dMISS:          0  itACCESS:          0  itHIT:          0  itMISS:          0  dtACCESS:          0  dtHIT:          0  dtMISS:          0
cpu0_L1I TRANSLATION  ACCESS:          0  HIT:          0  MISS:          0  iACCESS:          0  iHIT:          0  iMISS:          0  dACCESS:          0  dHIT:          0  dMISS:          0  itACCESS:          0  itHIT:          0  itMISS:          0  dtACCESS:          0  dtHIT:          0  dtMISS:          0
cpu0_L1I PREFETCH  REQUESTED:   30482199  ISSUED:   30482077  CROSSED:          0  USEFUL:    2246783  USELESS:     780124
cpu0_L1I AVERAGE iMISS LATENCY: 24.3052 cycles
cpu0_L1I AVERAGE dMISS LATENCY: 0 cycles
cpu0_L1I AVERAGE itMISS LATENCY: 0 cycles
cpu0_L1I AVERAGE dtMISS LATENCY: 0 cycles
cpu0_L1I PAGE CROSSINGS (TLB HIT):         0 
cpu0_L1I PAGE CROSSINGS (TLB MISS):         0 
cpu0_L1I AVERAGE MISS LATENCY: 24.3052 cycles
cpu0_ITLB TOTAL       ACCESS:   33437136  HIT:   31161825  MISS:    2275311  iACCESS:   33437136  iHIT:   31161825  iMISS:    2275311  dACCESS:          0  dHIT:          0  dMISS:          0  itACCESS:          0  itHIT:          0  itMISS:          0  dtACCESS:          0  dtHIT:          0  dtMISS:          0
cpu0_ITLB LOAD         ACCESS:   33437136  HIT:   31161825  MISS:    2275311  iACCESS:   33437136  iHIT:   31161825  iMISS:    2275311  dACCESS:          0  dHIT:          0  dMISS:          0  itACCESS:          0  itHIT:          0  itMISS:          0  dtACCESS:          0  dtHIT:          0  dtMISS:          0
cpu0_ITLB RFO          ACCESS:          0  HIT:          0  MISS:          0  iACCESS:          0  iHIT:          0  iMISS:          0  dACCESS:          0  dHIT:          0  dMISS:          0  itACCESS:          0  itHIT:          0  itMISS:          0  dtACCESS:          0  dtHIT:          0  dtMISS:          0
cpu0_ITLB PREFETCH     ACCESS:          0  HIT:          0  MISS:          0  iACCESS:          0  iHIT:          0  iMISS:          0  dACCESS:          0  dHIT:          0  dMISS:          0  itACCESS:          0  itHIT:          0  itMISS:          0  dtACCESS:          0  dtHIT:          0  dtMISS:          0
cpu0_ITLB WRITE        ACCESS:          0  HIT:          0  MISS:          0  iACCESS:          0  iHIT:          0  iMISS:          0  dACCESS:          0  dHIT:          0  dMISS:          0  itACCESS:          0  itHIT:          0  itMISS:          0  dtACCESS:          0  dtHIT:          0  dtMISS:          0
cpu0_ITLB TRANSLATION  ACCESS:          0  HIT:          0  MISS:          0  iACCESS:          0  iHIT:          0  iMISS:          0  dACCESS:          0  dHIT:          0  dMISS:          0  itACCESS:          0  itHIT:          0  itMISS:          0  dtACCESS:          0  dtHIT:          0  dtMISS:          0
cpu0_ITLB PREFETCH  REQUESTED:          0  ISSUED:          0  CROSSED:          0  USEFUL:     396741  USELESS:      80899
cpu0_ITLB AVERAGE iMISS LATENCY: 10.1637 cycles
cpu0_ITLB AVERAGE dMISS LATENCY: 0 cycles
cpu0_ITLB AVERAGE itMISS LATENCY: 0 cycles
cpu0_ITLB AVERAGE dtMISS LATENCY: 0 cycles
cpu0_ITLB PAGE CROSSINGS (TLB HIT):         0 
cpu0_ITLB PAGE CROSSINGS (TLB MISS):         0 
cpu0_ITLB AVERAGE MISS LATENCY: 10.1637 cycles
cpu0_DTLB TOTAL       ACCESS:   28855989  HIT:   25479678  MISS:    3376311  iACCESS:          0  iHIT:          0  iMISS:          0  dACCESS:   28855989  dHIT:   25479678  dMISS:    3376311  itACCESS:          0  itHIT:          0  itMISS:          0  dtACCESS:          0  dtHIT:          0  dtMISS:          0
cpu0_DTLB LOAD         ACCESS:   28855989  HIT:   25479678  MISS:    3376311  iACCESS:          0  iHIT:          0  iMISS:          0  dACCESS:   28855989  dHIT:   25479678  dMISS:    3376311  itACCESS:          0  itHIT:          0  itMISS:          0  dtACCESS:          0  dtHIT:          0  dtMISS:          0
cpu0_DTLB RFO          ACCESS:          0  HIT:          0  MISS:          0  iACCESS:          0  iHIT:          0  iMISS:          0  dACCESS:          0  dHIT:          0  dMISS:          0  itACCESS:          0  itHIT:          0  itMISS:          0  dtACCESS:          0  dtHIT:          0  dtMISS:          0
cpu0_DTLB PREFETCH     ACCESS:          0  HIT:          0  MISS:          0  iACCESS:          0  iHIT:          0  iMISS:          0  dACCESS:          0  dHIT:          0  dMISS:          0  itACCESS:          0  itHIT:          0  itMISS:          0  dtACCESS:          0  dtHIT:          0  dtMISS:          0
cpu0_DTLB WRITE        ACCESS:          0  HIT:          0  MISS:          0  iACCESS:          0  iHIT:          0  iMISS:          0  dACCESS:          0  dHIT:          0  dMISS:          0  itACCESS:          0  itHIT:          0  itMISS:          0  dtACCESS:          0  dtHIT:          0  dtMISS:          0
cpu0_DTLB TRANSLATION  ACCESS:          0  HIT:          0  MISS:          0  iACCESS:          0  iHIT:          0  iMISS:          0  dACCESS:          0  dHIT:          0  dMISS:          0  itACCESS:          0  itHIT:          0  itMISS:          0  dtACCESS:          0  dtHIT:          0  dtMISS:          0
cpu0_DTLB PREFETCH  REQUESTED:          0  ISSUED:          0  CROSSED:          0  USEFUL:          0  USELESS:          0
cpu0_DTLB AVERAGE iMISS LATENCY: 0 cycles
cpu0_DTLB AVERAGE dMISS LATENCY: 25.728 cycles
cpu0_DTLB AVERAGE itMISS LATENCY: 0 cycles
cpu0_DTLB AVERAGE dtMISS LATENCY: 0 cycles
cpu0_DTLB PAGE CROSSINGS (TLB HIT):         0 
cpu0_DTLB PAGE CROSSINGS (TLB MISS):         0 
cpu0_DTLB AVERAGE MISS LATENCY: 25.728 cycles
cpu0_STLB TOTAL       ACCESS:    2422721  HIT:    2051571  MISS:     371150  iACCESS:     477645  iHIT:     359253  iMISS:     118392  dACCESS:    1945076  dHIT:    1692318  dMISS:     252758  itACCESS:          0  itHIT:          0  itMISS:          0  dtACCESS:          0  dtHIT:          0  dtMISS:          0
cpu0_STLB LOAD         ACCESS:    2422721  HIT:    2051571  MISS:     371150  iACCESS:     477645  iHIT:     359253  iMISS:     118392  dACCESS:    1945076  dHIT:    1692318  dMISS:     252758  itACCESS:          0  itHIT:          0  itMISS:          0  dtACCESS:          0  dtHIT:          0  dtMISS:          0
cpu0_STLB RFO          ACCESS:          0  HIT:          0  MISS:          0  iACCESS:          0  iHIT:          0  iMISS:          0  dACCESS:          0  dHIT:          0  dMISS:          0  itACCESS:          0  itHIT:          0  itMISS:          0  dtACCESS:          0  dtHIT:          0  dtMISS:          0
cpu0_STLB PREFETCH     ACCESS:          0  HIT:          0  MISS:          0  iACCESS:          0  iHIT:          0  iMISS:          0  dACCESS:          0  dHIT:          0  dMISS:          0  itACCESS:          0  itHIT:          0  itMISS:          0  dtACCESS:          0  dtHIT:          0  dtMISS:          0
cpu0_STLB WRITE        ACCESS:          0  HIT:          0  MISS:          0  iACCESS:          0  iHIT:          0  iMISS:          0  dACCESS:          0  dHIT:          0  dMISS:          0  itACCESS:          0  itHIT:          0  itMISS:          0  dtACCESS:          0  dtHIT:          0  dtMISS:          0
cpu0_STLB TRANSLATION  ACCESS:          0  HIT:          0  MISS:          0  iACCESS:          0  iHIT:          0  iMISS:          0  dACCESS:          0  dHIT:          0  dMISS:          0  itACCESS:          0  itHIT:          0  itMISS:          0  dtACCESS:          0  dtHIT:          0  dtMISS:          0
cpu0_STLB PREFETCH  REQUESTED:          0  ISSUED:          0  CROSSED:          0  USEFUL:          0  USELESS:          0
cpu0_STLB AVERAGE iMISS LATENCY: 52.0066 cycles
cpu0_STLB AVERAGE dMISS LATENCY: 191.901 cycles
cpu0_STLB AVERAGE itMISS LATENCY: 0 cycles
cpu0_STLB AVERAGE dtMISS LATENCY: 0 cycles
cpu0_STLB PAGE CROSSINGS (TLB HIT):         0 
cpu0_STLB PAGE CROSSINGS (TLB MISS):         0 
cpu0_STLB AVERAGE MISS LATENCY: 243.908 cycles
cpu0_L1D TOTAL       ACCESS:   44979839  HIT:   39292920  MISS:    5686919  iACCESS:          0  iHIT:          0  iMISS:          0  dACCESS:   44437933  dHIT:   39259710  dMISS:    5178223  itACCESS:     131282  itHIT:      15992  itMISS:     115290  dtACCESS:     410624  dtHIT:      17218  dtMISS:     393406
cpu0_L1D LOAD         ACCESS:   20256923  HIT:   17929066  MISS:    2327857  iACCESS:          0  iHIT:          0  iMISS:          0  dACCESS:   20256923  dHIT:   17929066  dMISS:    2327857  itACCESS:          0  itHIT:          0  itMISS:          0  dtACCESS:          0  dtHIT:          0  dtMISS:          0
cpu0_L1D RFO          ACCESS:          0  HIT:          0  MISS:          0  iACCESS:          0  iHIT:          0  iMISS:          0  dACCESS:          0  dHIT:          0  dMISS:          0  itACCESS:          0  itHIT:          0  itMISS:          0  dtACCESS:          0  dtHIT:          0  dtMISS:          0
cpu0_L1D PREFETCH     ACCESS:   14006008  HIT:   11712530  MISS:    2293478  iACCESS:          0  iHIT:          0  iMISS:          0  dACCESS:   14006008  dHIT:   11712530  dMISS:    2293478  itACCESS:          0  itHIT:          0  itMISS:          0  dtACCESS:          0  dtHIT:          0  dtMISS:          0
cpu0_L1D WRITE        ACCESS:   10175002  HIT:    9618114  MISS:     556888  iACCESS:          0  iHIT:          0  iMISS:          0  dACCESS:   10175002  dHIT:    9618114  dMISS:     556888  itACCESS:          0  itHIT:          0  itMISS:          0  dtACCESS:          0  dtHIT:          0  dtMISS:          0
cpu0_L1D TRANSLATION  ACCESS:     541906  HIT:      33210  MISS:     508696  iACCESS:          0  iHIT:          0  iMISS:          0  dACCESS:          0  dHIT:          0  dMISS:          0  itACCESS:     131282  itHIT:      15992  itMISS:     115290  dtACCESS:     410624  dtHIT:      17218  dtMISS:     393406
cpu0_L1D PREFETCH  REQUESTED:   20256923  ISSUED:   18436684  CROSSED:          0  USEFUL:     372926  USELESS:     912511
cpu0_L1D AVERAGE iMISS LATENCY: 0 cycles
cpu0_L1D AVERAGE dMISS LATENCY: 49.7254 cycles
cpu0_L1D AVERAGE itMISS LATENCY: 3.19778 cycles
cpu0_L1D AVERAGE dtMISS LATENCY: 11.7209 cycles
cpu0_L1D PAGE CROSSINGS (TLB HIT):         0 
cpu0_L1D PAGE CROSSINGS (TLB MISS):         0 
cpu0_L1D AVERAGE MISS LATENCY: 64.6441 cycles
cpu0_L2C TOTAL       ACCESS:    8693702  HIT:    4124752  MISS:    4568950  iACCESS:    3850582  iHIT:    2278723  iMISS:    1571859  dACCESS:    4366529  dHIT:    1785753  dMISS:    2580776  itACCESS:     114764  itHIT:      20225  itMISS:      94539  dtACCESS:     361827  dtHIT:      40051  dtMISS:     321776
cpu0_L2C LOAD         ACCESS:    2067743  HIT:     986218  MISS:    1081525  iACCESS:     861755  iHIT:     530797  iMISS:     330958  dACCESS:    1205988  dHIT:     455421  dMISS:     750567  itACCESS:          0  itHIT:          0  itMISS:          0  dtACCESS:          0  dtHIT:          0  dtMISS:          0
cpu0_L2C RFO          ACCESS:     213570  HIT:      78910  MISS:     134660  iACCESS:          0  iHIT:          0  iMISS:          0  dACCESS:     213570  dHIT:      78910  dMISS:     134660  itACCESS:          0  itHIT:          0  itMISS:          0  dtACCESS:          0  dtHIT:          0  dtMISS:          0
cpu0_L2C PREFETCH     ACCESS:    5591019  HIT:    2666425  MISS:    2924594  iACCESS:    2988827  iHIT:    1747926  iMISS:    1240901  dACCESS:    2602192  dHIT:     918499  dMISS:    1683693  itACCESS:          0  itHIT:          0  itMISS:          0  dtACCESS:          0  dtHIT:          0  dtMISS:          0
cpu0_L2C WRITE        ACCESS:     344779  HIT:     332923  MISS:      11856  iACCESS:          0  iHIT:          0  iMISS:          0  dACCESS:     344779  dHIT:     332923  dMISS:      11856  itACCESS:          0  itHIT:          0  itMISS:          0  dtACCESS:          0  dtHIT:          0  dtMISS:          0
cpu0_L2C TRANSLATION  ACCESS:     476591  HIT:      60276  MISS:     416315  iACCESS:          0  iHIT:          0  iMISS:          0  dACCESS:          0  dHIT:          0  dMISS:          0  itACCESS:     114764  itHIT:      20225  itMISS:      94539  dtACCESS:     361827  dtHIT:      40051  dtMISS:     321776
cpu0_L2C PREFETCH  REQUESTED:    1562906  ISSUED:    1562898  CROSSED:          0  USEFUL:     367810  USELESS:     336711
cpu0_L2C AVERAGE iMISS LATENCY: 39.9737 cycles
cpu0_L2C AVERAGE dMISS LATENCY: 77.462 cycles
cpu0_L2C AVERAGE itMISS LATENCY: 3.73275 cycles
cpu0_L2C AVERAGE dtMISS LATENCY: 13.8014 cycles
cpu0_L2C PAGE CROSSINGS (TLB HIT):         0 
cpu0_L2C PAGE CROSSINGS (TLB MISS):         0 
cpu0_L2C AVERAGE MISS LATENCY: 134.97 cycles
LLC TOTAL       ACCESS:    4546056  HIT:    1429324  MISS:    3116732  iACCESS:    1478071  iHIT:     501589  iMISS:     976482  dACCESS:    2651670  dHIT:     888839  dMISS:    1762831  itACCESS:      94539  itHIT:       9588  itMISS:      84951  dtACCESS:     321776  dtHIT:      29308  dtMISS:     292468
LLC LOAD         ACCESS:    1074363  HIT:     359873  MISS:     714490  iACCESS:     329747  iHIT:     121054  iMISS:     208693  dACCESS:     744616  dHIT:     238819  dMISS:     505797  itACCESS:          0  itHIT:          0  itMISS:          0  dtACCESS:          0  dtHIT:          0  dtMISS:          0
LLC RFO          ACCESS:     134653  HIT:      41727  MISS:      92926  iACCESS:          0  iHIT:          0  iMISS:          0  dACCESS:     134653  dHIT:      41727  dMISS:      92926  itACCESS:          0  itHIT:          0  itMISS:          0  dtACCESS:          0  dtHIT:          0  dtMISS:          0
LLC PREFETCH     ACCESS:    2704763  HIT:     783804  MISS:    1920959  iACCESS:    1148324  iHIT:     380535  iMISS:     767789  dACCESS:    1556439  dHIT:     403269  dMISS:    1153170  itACCESS:          0  itHIT:          0  itMISS:          0  dtACCESS:          0  dtHIT:          0  dtMISS:          0
LLC WRITE        ACCESS:     215962  HIT:     205024  MISS:      10938  iACCESS:          0  iHIT:          0  iMISS:          0  dACCESS:     215962  dHIT:     205024  dMISS:      10938  itACCESS:          0  itHIT:          0  itMISS:          0  dtACCESS:          0  dtHIT:          0  dtMISS:          0
LLC TRANSLATION  ACCESS:     416315  HIT:      38896  MISS:     377419  iACCESS:          0  iHIT:          0  iMISS:          0  dACCESS:          0  dHIT:          0  dMISS:          0  itACCESS:      94539  itHIT:       9588  itMISS:      84951  dtACCESS:     321776  dtHIT:      29308  dtMISS:     292468
LLC PREFETCH  REQUESTED:          0  ISSUED:          0  CROSSED:          0  USEFUL:          0  USELESS:          0
LLC AVERAGE iMISS LATENCY: 49.2671 cycles
LLC AVERAGE dMISS LATENCY: 99 cycles
LLC AVERAGE itMISS LATENCY: 4.87104 cycles
LLC AVERAGE dtMISS LATENCY: 18.1899 cycles
LLC PAGE CROSSINGS (TLB HIT):         0 
LLC PAGE CROSSINGS (TLB MISS):         0 
LLC AVERAGE MISS LATENCY: 171.328 cycles

PageTableWalker TOTAL       ACCESS:     181656  
PageTableWalker AVERAGE LATENCY: 6.33975 cycles
PageTableWalker TOTAL LATENCY: 1151653 cycles

DRAM Statistics
Channel 0
 RQ ROW_BUFFER_HIT:     663411
  ROW_BUFFER_MISS:    2423220
 AVG DBUS CONGESTED CYCLE:     3.6483
 WQ ROW_BUFFER_HIT:      66018
  ROW_BUFFER_MISS:      55446  FULL:          0

