last_page:0x200000000000000
VMEM_RES_CAP:0x100000
PAGE_SIZE:4096
LOG2_PAGE_SIZE:12
LOG2_PAGE_TABLE_SIZE:9
page_table_levels:5
WARNING: physical memory size is smaller than virtual memory size
FDiP enabled with aggresivity 16

*** ChampSim Multicore Out-of-Order Simulator ***

Warmup Instructions: 50000000
Simulation Instructions: 100000000
Number of CPUs: 1
Small page size: 4096
Large page size: 2097152

CPU 0 Bimodal branch predictor
Basic BTB sets: 1024 ways: 8 indirect buffer size: 4096 RAS size: 64
Instruction page size distrubution: 0
Loading instruction page size distribution from /home/bsc/bsc018186/scratch/itp_asplos25_AE/dump/smt_srv85_ap_srv346_ap_1024i.pdst
Data page size distrubution: 0
Loading data page size distribution from /home/bsc/bsc018186/scratch/itp_asplos25_AE/dump/smt_srv85_ap_srv346_ap_1024i.pdst
cpu0_L2C IP-based stride prefetcher
cpu0_L1D next line prefetcher
cpu0_L1I next line prefetcher
Off-chip DRAM Size: 4 GiB Channels: 1 Width: 64-bit Data Rate: 3200 MT/s
Heartbeat CPU 0 instructions: 10000000 cycles: 2500470 heartbeat IPC: 3.99925 cumulative IPC: 3.99925 (Simulation time: 0 hr 0 min 46 sec) 
Heartbeat CPU 0 instructions: 20000001 cycles: 5000897 heartbeat IPC: 3.99932 cumulative IPC: 3.99929 (Simulation time: 0 hr 1 min 34 sec) 
Heartbeat CPU 0 instructions: 30000002 cycles: 7501245 heartbeat IPC: 3.99945 cumulative IPC: 3.99934 (Simulation time: 0 hr 2 min 18 sec) 
Heartbeat CPU 0 instructions: 40000000 cycles: 10001524 heartbeat IPC: 3.99956 cumulative IPC: 3.9994 (Simulation time: 0 hr 3 min 7 sec) 
Heartbeat CPU 0 instructions: 50000003 cycles: 12501773 heartbeat IPC: 3.99961 cumulative IPC: 3.99944 (Simulation time: 0 hr 3 min 55 sec) 
Warmup finished CPU 0 instructions: 50000003 cycles: 12501774 cumulative IPC: 3.99944 (Simulation time: 0 hr 3 min 55 sec) 

Warmup complete CPU 0 instructions: 50000003 cycles: 12501774 (Simulation time: 0 hr 3 min 55 sec) 

Heartbeat CPU 0 instructions: 60000000 cycles: 42122115 heartbeat IPC: 0.337606 cumulative IPC: 0.337606 (Simulation time: 0 hr 5 min 35 sec) 
Heartbeat CPU 0 instructions: 70000003 cycles: 71416202 heartbeat IPC: 0.341366 cumulative IPC: 0.339476 (Simulation time: 0 hr 7 min 11 sec) 
Heartbeat CPU 0 instructions: 80000002 cycles: 100929271 heartbeat IPC: 0.338833 cumulative IPC: 0.339261 (Simulation time: 0 hr 8 min 51 sec) 
Heartbeat CPU 0 instructions: 90000002 cycles: 129131508 heartbeat IPC: 0.354582 cumulative IPC: 0.342966 (Simulation time: 0 hr 10 min 29 sec) 
Heartbeat CPU 0 instructions: 100000000 cycles: 158635553 heartbeat IPC: 0.338937 cumulative IPC: 0.342153 (Simulation time: 0 hr 12 min 5 sec) 
Heartbeat CPU 0 instructions: 110000002 cycles: 188219677 heartbeat IPC: 0.33802 cumulative IPC: 0.341457 (Simulation time: 0 hr 13 min 44 sec) 
Heartbeat CPU 0 instructions: 120000000 cycles: 217200289 heartbeat IPC: 0.345059 cumulative IPC: 0.341967 (Simulation time: 0 hr 15 min 16 sec) 
Heartbeat CPU 0 instructions: 130000002 cycles: 246053956 heartbeat IPC: 0.346577 cumulative IPC: 0.342536 (Simulation time: 0 hr 16 min 48 sec) 
Heartbeat CPU 0 instructions: 140000004 cycles: 275302934 heartbeat IPC: 0.341893 cumulative IPC: 0.342465 (Simulation time: 0 hr 18 min 22 sec) 
Heartbeat CPU 0 instructions: 150000000 cycles: 305071683 heartbeat IPC: 0.335923 cumulative IPC: 0.341799 (Simulation time: 0 hr 19 min 51 sec) 
Simulation finished CPU 0 instructions: 100000002 cycles: 292569911 cumulative IPC: 0.341799 (Simulation time: 0 hr 19 min 51 sec) 

Simulation complete CPU 0 instructions: 100000002 cycles: 292569911 (Simulation time: 0 hr 19 min 51 sec) 


ChampSim completed all CPUs

Saving instructions large page distribution to /home/bsc/bsc018186/scratch/itp_asplos25_AE/dump/smt_srv85_ap_srv346_ap_1024i.pdst...
Saving data large page distribution to /home/bsc/bsc018186/scratch/itp_asplos25_AE/dump/smt_srv85_ap_srv346_ap_1024i.pdst...
=== Simulation ===
CPU 0 runs /gpfs/projects/bsc18/MN4/bsc18/romol/ChampSim/traces/qualcomm_srv/smt_srv85_ap_srv346_ap_1024i.champsimtrace.xz

Region of Interest Statistics

CPU 0 cumulative IPC: 0.341799 instructions: 100000002 cycles: 292569911
CPU 0 Branch Prediction Accuracy: 75.947% MPKI: 43.2219 Average ROB Occupancy at Mispredict: 11.4665
Branch type MPKI
BRANCH_DIRECT_JUMP: 1.29361
BRANCH_INDIRECT: 22.5598
BRANCH_CONDITIONAL: 12.5539
BRANCH_DIRECT_CALL: 2.47788
BRANCH_INDIRECT_CALL: 0.91463
BRANCH_RETURN: 3.42202

Instructions large pages: 0
Instructions small pages: 13169
Large page distribution for instructions: 0%

Data large pages: 0
Data small pages: 11885
Large page distribution for data: 0%

cpu0_L1I TOTAL       ACCESS:   38848770  HIT:   30176272  MISS:    8672498  iACCESS:   38848770  iHIT:   30176272  iMISS:    8672498  dACCESS:          0  dHIT:          0  dMISS:          0  itACCESS:          0  itHIT:          0  itMISS:          0  dtACCESS:          0  dtHIT:          0  dtMISS:          0
cpu0_L1I LOAD         ACCESS:   11647808  HIT:    9277790  MISS:    2370018  iACCESS:   11647808  iHIT:    9277790  iMISS:    2370018  dACCESS:          0  dHIT:          0  dMISS:          0  itACCESS:          0  itHIT:          0  itMISS:          0  dtACCESS:          0  dtHIT:          0  dtMISS:          0
cpu0_L1I RFO          ACCESS:          0  HIT:          0  MISS:          0  iACCESS:          0  iHIT:          0  iMISS:          0  dACCESS:          0  dHIT:          0  dMISS:          0  itACCESS:          0  itHIT:          0  itMISS:          0  dtACCESS:          0  dtHIT:          0  dtMISS:          0
cpu0_L1I PREFETCH     ACCESS:   27200962  HIT:   20898482  MISS:    6302480  iACCESS:   27200962  iHIT:   20898482  iMISS:    6302480  dACCESS:          0  dHIT:          0  dMISS:          0  itACCESS:          0  itHIT:          0  itMISS:          0  dtACCESS:          0  dtHIT:          0  dtMISS:          0
cpu0_L1I WRITE        ACCESS:          0  HIT:          0  MISS:          0  iACCESS:          0  iHIT:          0  iMISS:          0  dACCESS:          0  dHIT:          0  dMISS:          0  itACCESS:          0  itHIT:          0  itMISS:          0  dtACCESS:          0  dtHIT:          0  dtMISS:          0
cpu0_L1I TRANSLATION  ACCESS:          0  HIT:          0  MISS:          0  iACCESS:          0  iHIT:          0  iMISS:          0  dACCESS:          0  dHIT:          0  dMISS:          0  itACCESS:          0  itHIT:          0  itMISS:          0  dtACCESS:          0  dtHIT:          0  dtMISS:          0
cpu0_L1I PREFETCH  REQUESTED:   30026714  ISSUED:   30026270  CROSSED:          0  USEFUL:    2189766  USELESS:     753309
cpu0_L1I AVERAGE iMISS LATENCY: 23.4671 cycles
cpu0_L1I AVERAGE dMISS LATENCY: 0 cycles
cpu0_L1I AVERAGE itMISS LATENCY: 0 cycles
cpu0_L1I AVERAGE dtMISS LATENCY: 0 cycles
cpu0_L1I PAGE CROSSINGS (TLB HIT):         0 
cpu0_L1I PAGE CROSSINGS (TLB MISS):         0 
cpu0_L1I AVERAGE MISS LATENCY: 23.4671 cycles
cpu0_ITLB TOTAL       ACCESS:   32814561  HIT:   30607012  MISS:    2207549  iACCESS:   32814561  iHIT:   30607012  iMISS:    2207549  dACCESS:          0  dHIT:          0  dMISS:          0  itACCESS:          0  itHIT:          0  itMISS:          0  dtACCESS:          0  dtHIT:          0  dtMISS:          0
cpu0_ITLB LOAD         ACCESS:   32814561  HIT:   30607012  MISS:    2207549  iACCESS:   32814561  iHIT:   30607012  iMISS:    2207549  dACCESS:          0  dHIT:          0  dMISS:          0  itACCESS:          0  itHIT:          0  itMISS:          0  dtACCESS:          0  dtHIT:          0  dtMISS:          0
cpu0_ITLB RFO          ACCESS:          0  HIT:          0  MISS:          0  iACCESS:          0  iHIT:          0  iMISS:          0  dACCESS:          0  dHIT:          0  dMISS:          0  itACCESS:          0  itHIT:          0  itMISS:          0  dtACCESS:          0  dtHIT:          0  dtMISS:          0
cpu0_ITLB PREFETCH     ACCESS:          0  HIT:          0  MISS:          0  iACCESS:          0  iHIT:          0  iMISS:          0  dACCESS:          0  dHIT:          0  dMISS:          0  itACCESS:          0  itHIT:          0  itMISS:          0  dtACCESS:          0  dtHIT:          0  dtMISS:          0
cpu0_ITLB WRITE        ACCESS:          0  HIT:          0  MISS:          0  iACCESS:          0  iHIT:          0  iMISS:          0  dACCESS:          0  dHIT:          0  dMISS:          0  itACCESS:          0  itHIT:          0  itMISS:          0  dtACCESS:          0  dtHIT:          0  dtMISS:          0
cpu0_ITLB TRANSLATION  ACCESS:          0  HIT:          0  MISS:          0  iACCESS:          0  iHIT:          0  iMISS:          0  dACCESS:          0  dHIT:          0  dMISS:          0  itACCESS:          0  itHIT:          0  itMISS:          0  dtACCESS:          0  dtHIT:          0  dtMISS:          0
cpu0_ITLB PREFETCH  REQUESTED:          0  ISSUED:          0  CROSSED:          0  USEFUL:     383239  USELESS:      77530
cpu0_ITLB AVERAGE iMISS LATENCY: 9.82318 cycles
cpu0_ITLB AVERAGE dMISS LATENCY: 0 cycles
cpu0_ITLB AVERAGE itMISS LATENCY: 0 cycles
cpu0_ITLB AVERAGE dtMISS LATENCY: 0 cycles
cpu0_ITLB PAGE CROSSINGS (TLB HIT):         0 
cpu0_ITLB PAGE CROSSINGS (TLB MISS):         0 
cpu0_ITLB AVERAGE MISS LATENCY: 9.82318 cycles
cpu0_DTLB TOTAL       ACCESS:   28757331  HIT:   25078330  MISS:    3679001  iACCESS:          0  iHIT:          0  iMISS:          0  dACCESS:   28757331  dHIT:   25078330  dMISS:    3679001  itACCESS:          0  itHIT:          0  itMISS:          0  dtACCESS:          0  dtHIT:          0  dtMISS:          0
cpu0_DTLB LOAD         ACCESS:   28757331  HIT:   25078330  MISS:    3679001  iACCESS:          0  iHIT:          0  iMISS:          0  dACCESS:   28757331  dHIT:   25078330  dMISS:    3679001  itACCESS:          0  itHIT:          0  itMISS:          0  dtACCESS:          0  dtHIT:          0  dtMISS:          0
cpu0_DTLB RFO          ACCESS:          0  HIT:          0  MISS:          0  iACCESS:          0  iHIT:          0  iMISS:          0  dACCESS:          0  dHIT:          0  dMISS:          0  itACCESS:          0  itHIT:          0  itMISS:          0  dtACCESS:          0  dtHIT:          0  dtMISS:          0
cpu0_DTLB PREFETCH     ACCESS:          0  HIT:          0  MISS:          0  iACCESS:          0  iHIT:          0  iMISS:          0  dACCESS:          0  dHIT:          0  dMISS:          0  itACCESS:          0  itHIT:          0  itMISS:          0  dtACCESS:          0  dtHIT:          0  dtMISS:          0
cpu0_DTLB WRITE        ACCESS:          0  HIT:          0  MISS:          0  iACCESS:          0  iHIT:          0  iMISS:          0  dACCESS:          0  dHIT:          0  dMISS:          0  itACCESS:          0  itHIT:          0  itMISS:          0  dtACCESS:          0  dtHIT:          0  dtMISS:          0
cpu0_DTLB TRANSLATION  ACCESS:          0  HIT:          0  MISS:          0  iACCESS:          0  iHIT:          0  iMISS:          0  dACCESS:          0  dHIT:          0  dMISS:          0  itACCESS:          0  itHIT:          0  itMISS:          0  dtACCESS:          0  dtHIT:          0  dtMISS:          0
cpu0_DTLB PREFETCH  REQUESTED:          0  ISSUED:          0  CROSSED:          0  USEFUL:          0  USELESS:          0
cpu0_DTLB AVERAGE iMISS LATENCY: 0 cycles
cpu0_DTLB AVERAGE dMISS LATENCY: 24.7725 cycles
cpu0_DTLB AVERAGE itMISS LATENCY: 0 cycles
cpu0_DTLB AVERAGE dtMISS LATENCY: 0 cycles
cpu0_DTLB PAGE CROSSINGS (TLB HIT):         0 
cpu0_DTLB PAGE CROSSINGS (TLB MISS):         0 
cpu0_DTLB AVERAGE MISS LATENCY: 24.7725 cycles
cpu0_STLB TOTAL       ACCESS:    2596208  HIT:    2226723  MISS:     369485  iACCESS:     460776  iHIT:     353260  iMISS:     107516  dACCESS:    2135432  dHIT:    1873463  dMISS:     261969  itACCESS:          0  itHIT:          0  itMISS:          0  dtACCESS:          0  dtHIT:          0  dtMISS:          0
cpu0_STLB LOAD         ACCESS:    2596208  HIT:    2226723  MISS:     369485  iACCESS:     460776  iHIT:     353260  iMISS:     107516  dACCESS:    2135432  dHIT:    1873463  dMISS:     261969  itACCESS:          0  itHIT:          0  itMISS:          0  dtACCESS:          0  dtHIT:          0  dtMISS:          0
cpu0_STLB RFO          ACCESS:          0  HIT:          0  MISS:          0  iACCESS:          0  iHIT:          0  iMISS:          0  dACCESS:          0  dHIT:          0  dMISS:          0  itACCESS:          0  itHIT:          0  itMISS:          0  dtACCESS:          0  dtHIT:          0  dtMISS:          0
cpu0_STLB PREFETCH     ACCESS:          0  HIT:          0  MISS:          0  iACCESS:          0  iHIT:          0  iMISS:          0  dACCESS:          0  dHIT:          0  dMISS:          0  itACCESS:          0  itHIT:          0  itMISS:          0  dtACCESS:          0  dtHIT:          0  dtMISS:          0
cpu0_STLB WRITE        ACCESS:          0  HIT:          0  MISS:          0  iACCESS:          0  iHIT:          0  iMISS:          0  dACCESS:          0  dHIT:          0  dMISS:          0  itACCESS:          0  itHIT:          0  itMISS:          0  dtACCESS:          0  dtHIT:          0  dtMISS:          0
cpu0_STLB TRANSLATION  ACCESS:          0  HIT:          0  MISS:          0  iACCESS:          0  iHIT:          0  iMISS:          0  dACCESS:          0  dHIT:          0  dMISS:          0  itACCESS:          0  itHIT:          0  itMISS:          0  dtACCESS:          0  dtHIT:          0  dtMISS:          0
cpu0_STLB PREFETCH  REQUESTED:          0  ISSUED:          0  CROSSED:          0  USEFUL:          0  USELESS:          0
cpu0_STLB AVERAGE iMISS LATENCY: 48.7317 cycles
cpu0_STLB AVERAGE dMISS LATENCY: 200.148 cycles
cpu0_STLB AVERAGE itMISS LATENCY: 0 cycles
cpu0_STLB AVERAGE dtMISS LATENCY: 0 cycles
cpu0_STLB PAGE CROSSINGS (TLB HIT):         0 
cpu0_STLB PAGE CROSSINGS (TLB MISS):         0 
cpu0_STLB AVERAGE MISS LATENCY: 248.88 cycles
cpu0_L1D TOTAL       ACCESS:   44543416  HIT:   39062129  MISS:    5481287  iACCESS:          0  iHIT:          0  iMISS:          0  dACCESS:   43998781  dHIT:   39027200  dMISS:    4971581  itACCESS:     121098  itHIT:      14753  itMISS:     106345  dtACCESS:     423537  dtHIT:      20176  dtMISS:     403361
cpu0_L1D LOAD         ACCESS:   20074550  HIT:   17852518  MISS:    2222032  iACCESS:          0  iHIT:          0  iMISS:          0  dACCESS:   20074550  dHIT:   17852518  dMISS:    2222032  itACCESS:          0  itHIT:          0  itMISS:          0  dtACCESS:          0  dtHIT:          0  dtMISS:          0
cpu0_L1D RFO          ACCESS:          0  HIT:          0  MISS:          0  iACCESS:          0  iHIT:          0  iMISS:          0  dACCESS:          0  dHIT:          0  dMISS:          0  itACCESS:          0  itHIT:          0  itMISS:          0  dtACCESS:          0  dtHIT:          0  dtMISS:          0
cpu0_L1D PREFETCH     ACCESS:   13787378  HIT:   11593429  MISS:    2193949  iACCESS:          0  iHIT:          0  iMISS:          0  dACCESS:   13787378  dHIT:   11593429  dMISS:    2193949  itACCESS:          0  itHIT:          0  itMISS:          0  dtACCESS:          0  dtHIT:          0  dtMISS:          0
cpu0_L1D WRITE        ACCESS:   10136853  HIT:    9581253  MISS:     555600  iACCESS:          0  iHIT:          0  iMISS:          0  dACCESS:   10136853  dHIT:    9581253  dMISS:     555600  itACCESS:          0  itHIT:          0  itMISS:          0  dtACCESS:          0  dtHIT:          0  dtMISS:          0
cpu0_L1D TRANSLATION  ACCESS:     544635  HIT:      34929  MISS:     509706  iACCESS:          0  iHIT:          0  iMISS:          0  dACCESS:          0  dHIT:          0  dMISS:          0  itACCESS:     121098  itHIT:      14753  itMISS:     106345  dtACCESS:     423537  dtHIT:      20176  dtMISS:     403361
cpu0_L1D PREFETCH  REQUESTED:   20074550  ISSUED:   18337073  CROSSED:          0  USEFUL:     356806  USELESS:     933810
cpu0_L1D AVERAGE iMISS LATENCY: 0 cycles
cpu0_L1D AVERAGE dMISS LATENCY: 50.3198 cycles
cpu0_L1D AVERAGE itMISS LATENCY: 3.10218 cycles
cpu0_L1D AVERAGE dtMISS LATENCY: 12.5052 cycles
cpu0_L1D PAGE CROSSINGS (TLB HIT):         0 
cpu0_L1D PAGE CROSSINGS (TLB MISS):         0 
cpu0_L1D AVERAGE MISS LATENCY: 65.9271 cycles
cpu0_L2C TOTAL       ACCESS:    8540535  HIT:    4221907  MISS:    4318628  iACCESS:    3749030  iHIT:    2317692  iMISS:    1431338  dACCESS:    4309701  dHIT:    1845252  dMISS:    2464449  itACCESS:     105769  itHIT:      19393  itMISS:      86376  dtACCESS:     376035  dtHIT:      39570  dtMISS:     336465
cpu0_L2C LOAD         ACCESS:    2053077  HIT:    1026289  MISS:    1026788  iACCESS:     844751  iHIT:     547655  iMISS:     297096  dACCESS:    1208326  dHIT:     478634  dMISS:     729692  itACCESS:          0  itHIT:          0  itMISS:          0  dtACCESS:          0  dtHIT:          0  dtMISS:          0
cpu0_L2C RFO          ACCESS:     209959  HIT:      84020  MISS:     125939  iACCESS:          0  iHIT:          0  iMISS:          0  dACCESS:     209959  dHIT:      84020  dMISS:     125939  itACCESS:          0  itHIT:          0  itMISS:          0  dtACCESS:          0  dtHIT:          0  dtMISS:          0
cpu0_L2C PREFETCH     ACCESS:    5449645  HIT:    2710140  MISS:    2739505  iACCESS:    2904279  iHIT:    1770037  iMISS:    1134242  dACCESS:    2545366  dHIT:     940103  dMISS:    1605263  itACCESS:          0  itHIT:          0  itMISS:          0  dtACCESS:          0  dtHIT:          0  dtMISS:          0
cpu0_L2C WRITE        ACCESS:     346050  HIT:     342495  MISS:       3555  iACCESS:          0  iHIT:          0  iMISS:          0  dACCESS:     346050  dHIT:     342495  dMISS:       3555  itACCESS:          0  itHIT:          0  itMISS:          0  dtACCESS:          0  dtHIT:          0  dtMISS:          0
cpu0_L2C TRANSLATION  ACCESS:     481804  HIT:      58963  MISS:     422841  iACCESS:          0  iHIT:          0  iMISS:          0  dACCESS:          0  dHIT:          0  dMISS:          0  itACCESS:     105769  itHIT:      19393  itMISS:      86376  dtACCESS:     376035  dtHIT:      39570  dtMISS:     336465
cpu0_L2C PREFETCH  REQUESTED:    1497872  ISSUED:    1497871  CROSSED:          0  USEFUL:     352691  USELESS:     316670
cpu0_L2C AVERAGE iMISS LATENCY: 39.7164 cycles
cpu0_L2C AVERAGE dMISS LATENCY: 79.2279 cycles
cpu0_L2C AVERAGE itMISS LATENCY: 3.69625 cycles
cpu0_L2C AVERAGE dtMISS LATENCY: 15.0051 cycles
cpu0_L2C PAGE CROSSINGS (TLB HIT):         0 
cpu0_L2C PAGE CROSSINGS (TLB MISS):         0 
cpu0_L2C AVERAGE MISS LATENCY: 137.646 cycles
LLC TOTAL       ACCESS:    4318962  HIT:    1335516  MISS:    2983446  iACCESS:    1340071  iHIT:     422237  iMISS:     917834  dACCESS:    2556050  dHIT:     870798  dMISS:    1685252  itACCESS:      86376  itHIT:       6635  itMISS:      79741  dtACCESS:     336465  dtHIT:      35846  dtMISS:     300619
LLC LOAD         ACCESS:    1021361  HIT:     336768  MISS:     684593  iACCESS:     295795  iHIT:     101135  iMISS:     194660  dACCESS:     725566  dHIT:     235633  dMISS:     489933  itACCESS:          0  itHIT:          0  itMISS:          0  dtACCESS:          0  dtHIT:          0  dtMISS:          0
LLC RFO          ACCESS:     125926  HIT:      39061  MISS:      86865  iACCESS:          0  iHIT:          0  iMISS:          0  dACCESS:     125926  dHIT:      39061  dMISS:      86865  itACCESS:          0  itHIT:          0  itMISS:          0  dtACCESS:          0  dtHIT:          0  dtMISS:          0
LLC PREFETCH     ACCESS:    2536044  HIT:     715371  MISS:    1820673  iACCESS:    1044276  iHIT:     321102  iMISS:     723174  dACCESS:    1491768  dHIT:     394269  dMISS:    1097499  itACCESS:          0  itHIT:          0  itMISS:          0  dtACCESS:          0  dtHIT:          0  dtMISS:          0
LLC WRITE        ACCESS:     212790  HIT:     201835  MISS:      10955  iACCESS:          0  iHIT:          0  iMISS:          0  dACCESS:     212790  dHIT:     201835  dMISS:      10955  itACCESS:          0  itHIT:          0  itMISS:          0  dtACCESS:          0  dtHIT:          0  dtMISS:          0
LLC TRANSLATION  ACCESS:     422841  HIT:      42481  MISS:     380360  iACCESS:          0  iHIT:          0  iMISS:          0  dACCESS:          0  dHIT:          0  dMISS:          0  itACCESS:      86376  itHIT:       6635  itMISS:      79741  dtACCESS:     336465  dtHIT:      35846  dtMISS:     300619
LLC PREFETCH  REQUESTED:          0  ISSUED:          0  CROSSED:          0  USEFUL:          0  USELESS:          0
LLC AVERAGE iMISS LATENCY: 48.6362 cycles
LLC AVERAGE dMISS LATENCY: 99.9817 cycles
LLC AVERAGE itMISS LATENCY: 4.77627 cycles
LLC AVERAGE dtMISS LATENCY: 19.4906 cycles
LLC PAGE CROSSINGS (TLB HIT):         0 
LLC PAGE CROSSINGS (TLB MISS):         0 
LLC AVERAGE MISS LATENCY: 172.885 cycles

PageTableWalker TOTAL       ACCESS:     185563  
PageTableWalker AVERAGE LATENCY: 6.60273 cycles
PageTableWalker TOTAL LATENCY: 1225221 cycles

DRAM Statistics
Channel 0
 RQ ROW_BUFFER_HIT:     626508
  ROW_BUFFER_MISS:    2334427
 AVG DBUS CONGESTED CYCLE:    3.64718
 WQ ROW_BUFFER_HIT:      64927
  ROW_BUFFER_MISS:      55712  FULL:          0

