last_page:0x200000000000000
VMEM_RES_CAP:0x100000
PAGE_SIZE:4096
LOG2_PAGE_SIZE:12
LOG2_PAGE_TABLE_SIZE:9
page_table_levels:5
WARNING: physical memory size is smaller than virtual memory size
FDiP enabled with aggresivity 16

*** ChampSim Multicore Out-of-Order Simulator ***

Warmup Instructions: 50000000
Simulation Instructions: 100000000
Number of CPUs: 1
Small page size: 4096
Large page size: 2097152

CPU 0 Bimodal branch predictor
Basic BTB sets: 1024 ways: 8 indirect buffer size: 4096 RAS size: 64
Instruction page size distrubution: 0
Loading instruction page size distribution from /home/bsc/bsc018186/scratch/itp_asplos25_AE/dump/smt_srv540_ap_srv727_ap_1024i.pdst
Data page size distrubution: 0
Loading data page size distribution from /home/bsc/bsc018186/scratch/itp_asplos25_AE/dump/smt_srv540_ap_srv727_ap_1024i.pdst
cpu0_L2C IP-based stride prefetcher
cpu0_L1D next line prefetcher
CHiRPing...
cpu0_L1I next line prefetcher
Off-chip DRAM Size: 4 GiB Channels: 1 Width: 64-bit Data Rate: 3200 MT/s
Heartbeat CPU 0 instructions: 10000000 cycles: 2500690 heartbeat IPC: 3.9989 cumulative IPC: 3.9989 (Simulation time: 0 hr 0 min 42 sec) 
Heartbeat CPU 0 instructions: 20000002 cycles: 5001105 heartbeat IPC: 3.99934 cumulative IPC: 3.99912 (Simulation time: 0 hr 1 min 25 sec) 
Heartbeat CPU 0 instructions: 30000001 cycles: 7501408 heartbeat IPC: 3.99952 cumulative IPC: 3.99925 (Simulation time: 0 hr 2 min 9 sec) 
Heartbeat CPU 0 instructions: 40000001 cycles: 10001570 heartbeat IPC: 3.99975 cumulative IPC: 3.99938 (Simulation time: 0 hr 2 min 53 sec) 
Heartbeat CPU 0 instructions: 50000003 cycles: 12501920 heartbeat IPC: 3.99945 cumulative IPC: 3.99939 (Simulation time: 0 hr 3 min 37 sec) 
Warmup finished CPU 0 instructions: 50000003 cycles: 12501921 cumulative IPC: 3.99939 (Simulation time: 0 hr 3 min 37 sec) 

Warmup complete CPU 0 instructions: 50000003 cycles: 12501921 (Simulation time: 0 hr 3 min 37 sec) 

Heartbeat CPU 0 instructions: 60000004 cycles: 41687026 heartbeat IPC: 0.342641 cumulative IPC: 0.342641 (Simulation time: 0 hr 5 min 6 sec) 
Heartbeat CPU 0 instructions: 70000000 cycles: 71351341 heartbeat IPC: 0.337106 cumulative IPC: 0.339851 (Simulation time: 0 hr 6 min 37 sec) 
Heartbeat CPU 0 instructions: 80000002 cycles: 101843335 heartbeat IPC: 0.327956 cumulative IPC: 0.335791 (Simulation time: 0 hr 8 min 8 sec) 
Heartbeat CPU 0 instructions: 90000000 cycles: 131404936 heartbeat IPC: 0.338277 cumulative IPC: 0.336409 (Simulation time: 0 hr 9 min 40 sec) 
Heartbeat CPU 0 instructions: 100000001 cycles: 162858604 heartbeat IPC: 0.317928 cumulative IPC: 0.332543 (Simulation time: 0 hr 11 min 13 sec) 
Heartbeat CPU 0 instructions: 110000000 cycles: 193394319 heartbeat IPC: 0.327486 cumulative IPC: 0.331689 (Simulation time: 0 hr 12 min 45 sec) 
Heartbeat CPU 0 instructions: 120000001 cycles: 224082658 heartbeat IPC: 0.325857 cumulative IPC: 0.330843 (Simulation time: 0 hr 14 min 17 sec) 
Heartbeat CPU 0 instructions: 130000001 cycles: 254095478 heartbeat IPC: 0.333191 cumulative IPC: 0.331135 (Simulation time: 0 hr 15 min 49 sec) 
Heartbeat CPU 0 instructions: 140000002 cycles: 284449203 heartbeat IPC: 0.329449 cumulative IPC: 0.330947 (Simulation time: 0 hr 17 min 20 sec) 
Heartbeat CPU 0 instructions: 150000001 cycles: 314266274 heartbeat IPC: 0.335379 cumulative IPC: 0.331385 (Simulation time: 0 hr 18 min 51 sec) 
Simulation finished CPU 0 instructions: 100000003 cycles: 301764355 cumulative IPC: 0.331385 (Simulation time: 0 hr 18 min 51 sec) 

Simulation complete CPU 0 instructions: 100000003 cycles: 301764355 (Simulation time: 0 hr 18 min 51 sec) 


ChampSim completed all CPUs

Saving instructions large page distribution to /home/bsc/bsc018186/scratch/itp_asplos25_AE/dump/smt_srv540_ap_srv727_ap_1024i.pdst...
Saving data large page distribution to /home/bsc/bsc018186/scratch/itp_asplos25_AE/dump/smt_srv540_ap_srv727_ap_1024i.pdst...
=== Simulation ===
CPU 0 runs /gpfs/projects/bsc18/MN4/bsc18/romol/ChampSim/traces/qualcomm_srv/smt_srv540_ap_srv727_ap_1024i.champsimtrace.xz

Region of Interest Statistics

CPU 0 cumulative IPC: 0.331385 instructions: 100000003 cycles: 301764355
CPU 0 Branch Prediction Accuracy: 75.1897% MPKI: 44.6915 Average ROB Occupancy at Mispredict: 10.8742
Branch type MPKI
BRANCH_DIRECT_JUMP: 1.37466
BRANCH_INDIRECT: 23.1064
BRANCH_CONDITIONAL: 13.0098
BRANCH_DIRECT_CALL: 2.66243
BRANCH_INDIRECT_CALL: 1.00783
BRANCH_RETURN: 3.53038

Instructions large pages: 0
Instructions small pages: 9524
Large page distribution for instructions: 0%

Data large pages: 0
Data small pages: 8152
Large page distribution for data: 0%

cpu0_L1I TOTAL       ACCESS:   39039276  HIT:   30392181  MISS:    8647095  iACCESS:   39039276  iHIT:   30392181  iMISS:    8647095  dACCESS:          0  dHIT:          0  dMISS:          0  itACCESS:          0  itHIT:          0  itMISS:          0  dtACCESS:          0  dtHIT:          0  dtMISS:          0
cpu0_L1I LOAD         ACCESS:   11656520  HIT:    9305710  MISS:    2350810  iACCESS:   11656520  iHIT:    9305710  iMISS:    2350810  dACCESS:          0  dHIT:          0  dMISS:          0  itACCESS:          0  itHIT:          0  itMISS:          0  dtACCESS:          0  dtHIT:          0  dtMISS:          0
cpu0_L1I RFO          ACCESS:          0  HIT:          0  MISS:          0  iACCESS:          0  iHIT:          0  iMISS:          0  dACCESS:          0  dHIT:          0  dMISS:          0  itACCESS:          0  itHIT:          0  itMISS:          0  dtACCESS:          0  dtHIT:          0  dtMISS:          0
cpu0_L1I PREFETCH     ACCESS:   27382756  HIT:   21086471  MISS:    6296285  iACCESS:   27382756  iHIT:   21086471  iMISS:    6296285  dACCESS:          0  dHIT:          0  dMISS:          0  itACCESS:          0  itHIT:          0  itMISS:          0  dtACCESS:          0  dtHIT:          0  dtMISS:          0
cpu0_L1I WRITE        ACCESS:          0  HIT:          0  MISS:          0  iACCESS:          0  iHIT:          0  iMISS:          0  dACCESS:          0  dHIT:          0  dMISS:          0  itACCESS:          0  itHIT:          0  itMISS:          0  dtACCESS:          0  dtHIT:          0  dtMISS:          0
cpu0_L1I TRANSLATION  ACCESS:          0  HIT:          0  MISS:          0  iACCESS:          0  iHIT:          0  iMISS:          0  dACCESS:          0  dHIT:          0  dMISS:          0  itACCESS:          0  itHIT:          0  itMISS:          0  dtACCESS:          0  dtHIT:          0  dtMISS:          0
cpu0_L1I PREFETCH  REQUESTED:   30170754  ISSUED:   30170511  CROSSED:          0  USEFUL:    2199795  USELESS:     761608
cpu0_L1I AVERAGE iMISS LATENCY: 24.6148 cycles
cpu0_L1I AVERAGE dMISS LATENCY: 0 cycles
cpu0_L1I AVERAGE itMISS LATENCY: 0 cycles
cpu0_L1I AVERAGE dtMISS LATENCY: 0 cycles
cpu0_L1I PAGE CROSSINGS (TLB HIT):         0 
cpu0_L1I PAGE CROSSINGS (TLB MISS):         0 
cpu0_L1I AVERAGE MISS LATENCY: 24.6148 cycles
cpu0_ITLB TOTAL       ACCESS:   33071568  HIT:   30846057  MISS:    2225511  iACCESS:   33071568  iHIT:   30846057  iMISS:    2225511  dACCESS:          0  dHIT:          0  dMISS:          0  itACCESS:          0  itHIT:          0  itMISS:          0  dtACCESS:          0  dtHIT:          0  dtMISS:          0
cpu0_ITLB LOAD         ACCESS:   33071568  HIT:   30846057  MISS:    2225511  iACCESS:   33071568  iHIT:   30846057  iMISS:    2225511  dACCESS:          0  dHIT:          0  dMISS:          0  itACCESS:          0  itHIT:          0  itMISS:          0  dtACCESS:          0  dtHIT:          0  dtMISS:          0
cpu0_ITLB RFO          ACCESS:          0  HIT:          0  MISS:          0  iACCESS:          0  iHIT:          0  iMISS:          0  dACCESS:          0  dHIT:          0  dMISS:          0  itACCESS:          0  itHIT:          0  itMISS:          0  dtACCESS:          0  dtHIT:          0  dtMISS:          0
cpu0_ITLB PREFETCH     ACCESS:          0  HIT:          0  MISS:          0  iACCESS:          0  iHIT:          0  iMISS:          0  dACCESS:          0  dHIT:          0  dMISS:          0  itACCESS:          0  itHIT:          0  itMISS:          0  dtACCESS:          0  dtHIT:          0  dtMISS:          0
cpu0_ITLB WRITE        ACCESS:          0  HIT:          0  MISS:          0  iACCESS:          0  iHIT:          0  iMISS:          0  dACCESS:          0  dHIT:          0  dMISS:          0  itACCESS:          0  itHIT:          0  itMISS:          0  dtACCESS:          0  dtHIT:          0  dtMISS:          0
cpu0_ITLB TRANSLATION  ACCESS:          0  HIT:          0  MISS:          0  iACCESS:          0  iHIT:          0  iMISS:          0  dACCESS:          0  dHIT:          0  dMISS:          0  itACCESS:          0  itHIT:          0  itMISS:          0  dtACCESS:          0  dtHIT:          0  dtMISS:          0
cpu0_ITLB PREFETCH  REQUESTED:          0  ISSUED:          0  CROSSED:          0  USEFUL:     387634  USELESS:      79062
cpu0_ITLB AVERAGE iMISS LATENCY: 10.458 cycles
cpu0_ITLB AVERAGE dMISS LATENCY: 0 cycles
cpu0_ITLB AVERAGE itMISS LATENCY: 0 cycles
cpu0_ITLB AVERAGE dtMISS LATENCY: 0 cycles
cpu0_ITLB PAGE CROSSINGS (TLB HIT):         0 
cpu0_ITLB PAGE CROSSINGS (TLB MISS):         0 
cpu0_ITLB AVERAGE MISS LATENCY: 10.458 cycles
cpu0_DTLB TOTAL       ACCESS:   28839676  HIT:   25240050  MISS:    3599626  iACCESS:          0  iHIT:          0  iMISS:          0  dACCESS:   28839676  dHIT:   25240050  dMISS:    3599626  itACCESS:          0  itHIT:          0  itMISS:          0  dtACCESS:          0  dtHIT:          0  dtMISS:          0
cpu0_DTLB LOAD         ACCESS:   28839676  HIT:   25240050  MISS:    3599626  iACCESS:          0  iHIT:          0  iMISS:          0  dACCESS:   28839676  dHIT:   25240050  dMISS:    3599626  itACCESS:          0  itHIT:          0  itMISS:          0  dtACCESS:          0  dtHIT:          0  dtMISS:          0
cpu0_DTLB RFO          ACCESS:          0  HIT:          0  MISS:          0  iACCESS:          0  iHIT:          0  iMISS:          0  dACCESS:          0  dHIT:          0  dMISS:          0  itACCESS:          0  itHIT:          0  itMISS:          0  dtACCESS:          0  dtHIT:          0  dtMISS:          0
cpu0_DTLB PREFETCH     ACCESS:          0  HIT:          0  MISS:          0  iACCESS:          0  iHIT:          0  iMISS:          0  dACCESS:          0  dHIT:          0  dMISS:          0  itACCESS:          0  itHIT:          0  itMISS:          0  dtACCESS:          0  dtHIT:          0  dtMISS:          0
cpu0_DTLB WRITE        ACCESS:          0  HIT:          0  MISS:          0  iACCESS:          0  iHIT:          0  iMISS:          0  dACCESS:          0  dHIT:          0  dMISS:          0  itACCESS:          0  itHIT:          0  itMISS:          0  dtACCESS:          0  dtHIT:          0  dtMISS:          0
cpu0_DTLB TRANSLATION  ACCESS:          0  HIT:          0  MISS:          0  iACCESS:          0  iHIT:          0  iMISS:          0  dACCESS:          0  dHIT:          0  dMISS:          0  itACCESS:          0  itHIT:          0  itMISS:          0  dtACCESS:          0  dtHIT:          0  dtMISS:          0
cpu0_DTLB PREFETCH  REQUESTED:          0  ISSUED:          0  CROSSED:          0  USEFUL:          0  USELESS:          0
cpu0_DTLB AVERAGE iMISS LATENCY: 0 cycles
cpu0_DTLB AVERAGE dMISS LATENCY: 25.1569 cycles
cpu0_DTLB AVERAGE itMISS LATENCY: 0 cycles
cpu0_DTLB AVERAGE dtMISS LATENCY: 0 cycles
cpu0_DTLB PAGE CROSSINGS (TLB HIT):         0 
cpu0_DTLB PAGE CROSSINGS (TLB MISS):         0 
cpu0_DTLB AVERAGE MISS LATENCY: 25.1569 cycles
cpu0_STLB TOTAL       ACCESS:    2572931  HIT:    2191366  MISS:     381565  iACCESS:     466696  iHIT:     349408  iMISS:     117288  dACCESS:    2106235  dHIT:    1841958  dMISS:     264277  itACCESS:          0  itHIT:          0  itMISS:          0  dtACCESS:          0  dtHIT:          0  dtMISS:          0
cpu0_STLB LOAD         ACCESS:    2572931  HIT:    2191366  MISS:     381565  iACCESS:     466696  iHIT:     349408  iMISS:     117288  dACCESS:    2106235  dHIT:    1841958  dMISS:     264277  itACCESS:          0  itHIT:          0  itMISS:          0  dtACCESS:          0  dtHIT:          0  dtMISS:          0
cpu0_STLB RFO          ACCESS:          0  HIT:          0  MISS:          0  iACCESS:          0  iHIT:          0  iMISS:          0  dACCESS:          0  dHIT:          0  dMISS:          0  itACCESS:          0  itHIT:          0  itMISS:          0  dtACCESS:          0  dtHIT:          0  dtMISS:          0
cpu0_STLB PREFETCH     ACCESS:          0  HIT:          0  MISS:          0  iACCESS:          0  iHIT:          0  iMISS:          0  dACCESS:          0  dHIT:          0  dMISS:          0  itACCESS:          0  itHIT:          0  itMISS:          0  dtACCESS:          0  dtHIT:          0  dtMISS:          0
cpu0_STLB WRITE        ACCESS:          0  HIT:          0  MISS:          0  iACCESS:          0  iHIT:          0  iMISS:          0  dACCESS:          0  dHIT:          0  dMISS:          0  itACCESS:          0  itHIT:          0  itMISS:          0  dtACCESS:          0  dtHIT:          0  dtMISS:          0
cpu0_STLB TRANSLATION  ACCESS:          0  HIT:          0  MISS:          0  iACCESS:          0  iHIT:          0  iMISS:          0  dACCESS:          0  dHIT:          0  dMISS:          0  itACCESS:          0  itHIT:          0  itMISS:          0  dtACCESS:          0  dtHIT:          0  dtMISS:          0
cpu0_STLB PREFETCH  REQUESTED:          0  ISSUED:          0  CROSSED:          0  USEFUL:          0  USELESS:          0
cpu0_STLB AVERAGE iMISS LATENCY: 51.2017 cycles
cpu0_STLB AVERAGE dMISS LATENCY: 192.874 cycles
cpu0_STLB AVERAGE itMISS LATENCY: 0 cycles
cpu0_STLB AVERAGE dtMISS LATENCY: 0 cycles
cpu0_STLB PAGE CROSSINGS (TLB HIT):         0 
cpu0_STLB PAGE CROSSINGS (TLB MISS):         0 
cpu0_STLB AVERAGE MISS LATENCY: 244.075 cycles
cpu0_L1D TOTAL       ACCESS:   44754516  HIT:   39095722  MISS:    5658794  iACCESS:          0  iHIT:          0  iMISS:          0  dACCESS:   44200216  dHIT:   39062005  dMISS:    5138211  itACCESS:     131243  itHIT:      14428  itMISS:     116815  dtACCESS:     423057  dtHIT:      19289  dtMISS:     403768
cpu0_L1D LOAD         ACCESS:   20211659  HIT:   17913952  MISS:    2297707  iACCESS:          0  iHIT:          0  iMISS:          0  dACCESS:   20211659  dHIT:   17913952  dMISS:    2297707  itACCESS:          0  itHIT:          0  itMISS:          0  dtACCESS:          0  dtHIT:          0  dtMISS:          0
cpu0_L1D RFO          ACCESS:          0  HIT:          0  MISS:          0  iACCESS:          0  iHIT:          0  iMISS:          0  dACCESS:          0  dHIT:          0  dMISS:          0  itACCESS:          0  itHIT:          0  itMISS:          0  dtACCESS:          0  dtHIT:          0  dtMISS:          0
cpu0_L1D PREFETCH     ACCESS:   13844455  HIT:   11583930  MISS:    2260525  iACCESS:          0  iHIT:          0  iMISS:          0  dACCESS:   13844455  dHIT:   11583930  dMISS:    2260525  itACCESS:          0  itHIT:          0  itMISS:          0  dtACCESS:          0  dtHIT:          0  dtMISS:          0
cpu0_L1D WRITE        ACCESS:   10144102  HIT:    9564123  MISS:     579979  iACCESS:          0  iHIT:          0  iMISS:          0  dACCESS:   10144102  dHIT:    9564123  dMISS:     579979  itACCESS:          0  itHIT:          0  itMISS:          0  dtACCESS:          0  dtHIT:          0  dtMISS:          0
cpu0_L1D TRANSLATION  ACCESS:     554300  HIT:      33717  MISS:     520583  iACCESS:          0  iHIT:          0  iMISS:          0  dACCESS:          0  dHIT:          0  dMISS:          0  itACCESS:     131243  itHIT:      14428  itMISS:     116815  dtACCESS:     423057  dtHIT:      19289  dtMISS:     403768
cpu0_L1D PREFETCH  REQUESTED:   20211659  ISSUED:   18408205  CROSSED:          0  USEFUL:     360492  USELESS:     926672
cpu0_L1D AVERAGE iMISS LATENCY: 0 cycles
cpu0_L1D AVERAGE dMISS LATENCY: 50.657 cycles
cpu0_L1D AVERAGE itMISS LATENCY: 3.26093 cycles
cpu0_L1D AVERAGE dtMISS LATENCY: 12.214 cycles
cpu0_L1D PAGE CROSSINGS (TLB HIT):         0 
cpu0_L1D PAGE CROSSINGS (TLB MISS):         0 
cpu0_L1D AVERAGE MISS LATENCY: 66.1319 cycles
cpu0_L2C TOTAL       ACCESS:    8610348  HIT:    4181337  MISS:    4429011  iACCESS:    3766395  iHIT:    2288542  iMISS:    1477853  dACCESS:    4352904  dHIT:    1831487  dMISS:    2521417  itACCESS:     116101  itHIT:      22276  itMISS:      93825  dtACCESS:     374948  dtHIT:      39032  dtMISS:     335916
cpu0_L2C LOAD         ACCESS:    2041792  HIT:     996524  MISS:    1045268  iACCESS:     843271  iHIT:     533231  iMISS:     310040  dACCESS:    1198521  dHIT:     463293  dMISS:     735228  itACCESS:          0  itHIT:          0  itMISS:          0  dtACCESS:          0  dtHIT:          0  dtMISS:          0
cpu0_L2C RFO          ACCESS:     219510  HIT:      84552  MISS:     134958  iACCESS:          0  iHIT:          0  iMISS:          0  dACCESS:     219510  dHIT:      84552  dMISS:     134958  itACCESS:          0  itHIT:          0  itMISS:          0  dtACCESS:          0  dtHIT:          0  dtMISS:          0
cpu0_L2C PREFETCH     ACCESS:    5511175  HIT:    2695799  MISS:    2815376  iACCESS:    2923124  iHIT:    1755311  iMISS:    1167813  dACCESS:    2588051  dHIT:     940488  dMISS:    1647563  itACCESS:          0  itHIT:          0  itMISS:          0  dtACCESS:          0  dtHIT:          0  dtMISS:          0
cpu0_L2C WRITE        ACCESS:     346822  HIT:     343154  MISS:       3668  iACCESS:          0  iHIT:          0  iMISS:          0  dACCESS:     346822  dHIT:     343154  dMISS:       3668  itACCESS:          0  itHIT:          0  itMISS:          0  dtACCESS:          0  dtHIT:          0  dtMISS:          0
cpu0_L2C TRANSLATION  ACCESS:     491049  HIT:      61308  MISS:     429741  iACCESS:          0  iHIT:          0  iMISS:          0  dACCESS:          0  dHIT:          0  dMISS:          0  itACCESS:     116101  itHIT:      22276  itMISS:      93825  dtACCESS:     374948  dtHIT:      39032  dtMISS:     335916
cpu0_L2C PREFETCH  REQUESTED:    1542299  ISSUED:    1542286  CROSSED:          0  USEFUL:     359592  USELESS:     324384
cpu0_L2C AVERAGE iMISS LATENCY: 40.9429 cycles
cpu0_L2C AVERAGE dMISS LATENCY: 80.7761 cycles
cpu0_L2C AVERAGE itMISS LATENCY: 3.90853 cycles
cpu0_L2C AVERAGE dtMISS LATENCY: 14.7628 cycles
cpu0_L2C PAGE CROSSINGS (TLB HIT):         0 
cpu0_L2C PAGE CROSSINGS (TLB MISS):         0 
cpu0_L2C AVERAGE MISS LATENCY: 140.391 cycles
LLC TOTAL       ACCESS:    4413340  HIT:    1279266  MISS:    3134074  iACCESS:    1385705  iHIT:     413328  iMISS:     972377  dACCESS:    2597894  dHIT:     825468  dMISS:    1772426  itACCESS:      93825  itHIT:       7592  itMISS:      86233  dtACCESS:     335916  dtHIT:      32878  dtMISS:     303038
LLC LOAD         ACCESS:    1038610  HIT:     316138  MISS:     722472  iACCESS:     308809  iHIT:      97921  iMISS:     210888  dACCESS:     729801  dHIT:     218217  dMISS:     511584  itACCESS:          0  itHIT:          0  itMISS:          0  dtACCESS:          0  dtHIT:          0  dtMISS:          0
LLC RFO          ACCESS:     134949  HIT:      39994  MISS:      94955  iACCESS:          0  iHIT:          0  iMISS:          0  dACCESS:     134949  dHIT:      39994  dMISS:      94955  itACCESS:          0  itHIT:          0  itMISS:          0  dtACCESS:          0  dtHIT:          0  dtMISS:          0
LLC PREFETCH     ACCESS:    2597882  HIT:     680878  MISS:    1917004  iACCESS:    1076896  iHIT:     315407  iMISS:     761489  dACCESS:    1520986  dHIT:     365471  dMISS:    1155515  itACCESS:          0  itHIT:          0  itMISS:          0  dtACCESS:          0  dtHIT:          0  dtMISS:          0
LLC WRITE        ACCESS:     212158  HIT:     201786  MISS:      10372  iACCESS:          0  iHIT:          0  iMISS:          0  dACCESS:     212158  dHIT:     201786  dMISS:      10372  itACCESS:          0  itHIT:          0  itMISS:          0  dtACCESS:          0  dtHIT:          0  dtMISS:          0
LLC TRANSLATION  ACCESS:     429741  HIT:      40470  MISS:     389271  iACCESS:          0  iHIT:          0  iMISS:          0  dACCESS:          0  dHIT:          0  dMISS:          0  itACCESS:      93825  itHIT:       7592  itMISS:      86233  dtACCESS:     335916  dtHIT:      32878  dtMISS:     303038
LLC PREFETCH  REQUESTED:          0  ISSUED:          0  CROSSED:          0  USEFUL:          0  USELESS:          0
LLC AVERAGE iMISS LATENCY: 49.1427 cycles
LLC AVERAGE dMISS LATENCY: 100.113 cycles
LLC AVERAGE itMISS LATENCY: 4.92984 cycles
LLC AVERAGE dtMISS LATENCY: 18.7431 cycles
LLC PAGE CROSSINGS (TLB HIT):         0 
LLC PAGE CROSSINGS (TLB MISS):         0 
LLC AVERAGE MISS LATENCY: 172.928 cycles

PageTableWalker TOTAL       ACCESS:     195697  
PageTableWalker AVERAGE LATENCY: 6.45717 cycles
PageTableWalker TOTAL LATENCY: 1263648 cycles

DRAM Statistics
Channel 0
 RQ ROW_BUFFER_HIT:     652490
  ROW_BUFFER_MISS:    2452010
 AVG DBUS CONGESTED CYCLE:     3.6529
 WQ ROW_BUFFER_HIT:      66388
  ROW_BUFFER_MISS:      57667  FULL:          0

