last_page:0x200000000000000
VMEM_RES_CAP:0x100000
PAGE_SIZE:4096
LOG2_PAGE_SIZE:12
LOG2_PAGE_TABLE_SIZE:9
page_table_levels:5
WARNING: physical memory size is smaller than virtual memory size
FDiP enabled with aggresivity 16

*** ChampSim Multicore Out-of-Order Simulator ***

Warmup Instructions: 50000000
Simulation Instructions: 100000000
Number of CPUs: 1
Small page size: 4096
Large page size: 2097152

CPU 0 Bimodal branch predictor
Basic BTB sets: 1024 ways: 8 indirect buffer size: 4096 RAS size: 64
Instruction page size distrubution: 0
Loading instruction page size distribution from /home/bsc/bsc018186/scratch/itp_asplos25_AE/dump/smt_srv537_ap_srv224_ap_1024i.pdst
Data page size distrubution: 0
Loading data page size distribution from /home/bsc/bsc018186/scratch/itp_asplos25_AE/dump/smt_srv537_ap_srv224_ap_1024i.pdst
cpu0_L2C IP-based stride prefetcher
cpu0_L1D next line prefetcher
CHiRPing...
cpu0_L1I next line prefetcher
Off-chip DRAM Size: 4 GiB Channels: 1 Width: 64-bit Data Rate: 3200 MT/s
Heartbeat CPU 0 instructions: 10000002 cycles: 2500686 heartbeat IPC: 3.99891 cumulative IPC: 3.99891 (Simulation time: 0 hr 0 min 46 sec) 
Heartbeat CPU 0 instructions: 20000002 cycles: 5001114 heartbeat IPC: 3.99932 cumulative IPC: 3.99911 (Simulation time: 0 hr 1 min 34 sec) 
Heartbeat CPU 0 instructions: 30000002 cycles: 7501460 heartbeat IPC: 3.99945 cumulative IPC: 3.99923 (Simulation time: 0 hr 2 min 22 sec) 
Heartbeat CPU 0 instructions: 40000003 cycles: 10049138 heartbeat IPC: 3.92515 cumulative IPC: 3.98045 (Simulation time: 0 hr 3 min 11 sec) 
Heartbeat CPU 0 instructions: 50000002 cycles: 12612157 heartbeat IPC: 3.90165 cumulative IPC: 3.96443 (Simulation time: 0 hr 4 min 2 sec) 
Warmup finished CPU 0 instructions: 50000002 cycles: 12612158 cumulative IPC: 3.96443 (Simulation time: 0 hr 4 min 2 sec) 

Warmup complete CPU 0 instructions: 50000002 cycles: 12612158 (Simulation time: 0 hr 4 min 2 sec) 

Heartbeat CPU 0 instructions: 60000002 cycles: 29698942 heartbeat IPC: 0.585248 cumulative IPC: 0.585248 (Simulation time: 0 hr 5 min 25 sec) 
Heartbeat CPU 0 instructions: 70000003 cycles: 58548108 heartbeat IPC: 0.346631 cumulative IPC: 0.435389 (Simulation time: 0 hr 7 min 4 sec) 
Heartbeat CPU 0 instructions: 80000003 cycles: 86708001 heartbeat IPC: 0.355115 cumulative IPC: 0.404882 (Simulation time: 0 hr 8 min 43 sec) 
Heartbeat CPU 0 instructions: 90000000 cycles: 115832519 heartbeat IPC: 0.343354 cumulative IPC: 0.387521 (Simulation time: 0 hr 10 min 23 sec) 
Heartbeat CPU 0 instructions: 100000003 cycles: 144255139 heartbeat IPC: 0.351833 cumulative IPC: 0.379816 (Simulation time: 0 hr 12 min 1 sec) 
Heartbeat CPU 0 instructions: 110000002 cycles: 173621906 heartbeat IPC: 0.340521 cumulative IPC: 0.372649 (Simulation time: 0 hr 13 min 42 sec) 
Heartbeat CPU 0 instructions: 120000004 cycles: 201590232 heartbeat IPC: 0.357548 cumulative IPC: 0.370414 (Simulation time: 0 hr 15 min 19 sec) 
Heartbeat CPU 0 instructions: 130000000 cycles: 229676169 heartbeat IPC: 0.35605 cumulative IPC: 0.368555 (Simulation time: 0 hr 16 min 46 sec) 
Heartbeat CPU 0 instructions: 140000003 cycles: 258676830 heartbeat IPC: 0.34482 cumulative IPC: 0.365758 (Simulation time: 0 hr 18 min 13 sec) 
Heartbeat CPU 0 instructions: 150000002 cycles: 287404110 heartbeat IPC: 0.348102 cumulative IPC: 0.363912 (Simulation time: 0 hr 19 min 40 sec) 
Simulation finished CPU 0 instructions: 100000000 cycles: 274791953 cumulative IPC: 0.363912 (Simulation time: 0 hr 19 min 40 sec) 

Simulation complete CPU 0 instructions: 100000000 cycles: 274791953 (Simulation time: 0 hr 19 min 40 sec) 


ChampSim completed all CPUs

Saving instructions large page distribution to /home/bsc/bsc018186/scratch/itp_asplos25_AE/dump/smt_srv537_ap_srv224_ap_1024i.pdst...
Saving data large page distribution to /home/bsc/bsc018186/scratch/itp_asplos25_AE/dump/smt_srv537_ap_srv224_ap_1024i.pdst...
=== Simulation ===
CPU 0 runs /gpfs/projects/bsc18/MN4/bsc18/romol/ChampSim/traces/qualcomm_srv/smt_srv537_ap_srv224_ap_1024i.champsimtrace.xz

Region of Interest Statistics

CPU 0 cumulative IPC: 0.363912 instructions: 100000000 cycles: 274791953
CPU 0 Branch Prediction Accuracy: 77.0391% MPKI: 42.6818 Average ROB Occupancy at Mispredict: 11.3984
Branch type MPKI
BRANCH_DIRECT_JUMP: 1.24267
BRANCH_INDIRECT: 22.3948
BRANCH_CONDITIONAL: 12.3744
BRANCH_DIRECT_CALL: 2.36183
BRANCH_INDIRECT_CALL: 1.00878
BRANCH_RETURN: 3.29945

Instructions large pages: 0
Instructions small pages: 13855
Large page distribution for instructions: 0%

Data large pages: 0
Data small pages: 12484
Large page distribution for data: 0%

cpu0_L1I TOTAL       ACCESS:   39537548  HIT:   31388585  MISS:    8148963  iACCESS:   39537548  iHIT:   31388585  iMISS:    8148963  dACCESS:          0  dHIT:          0  dMISS:          0  itACCESS:          0  itHIT:          0  itMISS:          0  dtACCESS:          0  dtHIT:          0  dtMISS:          0
cpu0_L1I LOAD         ACCESS:   11649944  HIT:    9425530  MISS:    2224414  iACCESS:   11649944  iHIT:    9425530  iMISS:    2224414  dACCESS:          0  dHIT:          0  dMISS:          0  itACCESS:          0  itHIT:          0  itMISS:          0  dtACCESS:          0  dtHIT:          0  dtMISS:          0
cpu0_L1I RFO          ACCESS:          0  HIT:          0  MISS:          0  iACCESS:          0  iHIT:          0  iMISS:          0  dACCESS:          0  dHIT:          0  dMISS:          0  itACCESS:          0  itHIT:          0  itMISS:          0  dtACCESS:          0  dtHIT:          0  dtMISS:          0
cpu0_L1I PREFETCH     ACCESS:   27887604  HIT:   21963055  MISS:    5924549  iACCESS:   27887604  iHIT:   21963055  iMISS:    5924549  dACCESS:          0  dHIT:          0  dMISS:          0  itACCESS:          0  itHIT:          0  itMISS:          0  dtACCESS:          0  dtHIT:          0  dtMISS:          0
cpu0_L1I WRITE        ACCESS:          0  HIT:          0  MISS:          0  iACCESS:          0  iHIT:          0  iMISS:          0  dACCESS:          0  dHIT:          0  dMISS:          0  itACCESS:          0  itHIT:          0  itMISS:          0  dtACCESS:          0  dtHIT:          0  dtMISS:          0
cpu0_L1I TRANSLATION  ACCESS:          0  HIT:          0  MISS:          0  iACCESS:          0  iHIT:          0  iMISS:          0  dACCESS:          0  dHIT:          0  dMISS:          0  itACCESS:          0  itHIT:          0  itMISS:          0  dtACCESS:          0  dtHIT:          0  dtMISS:          0
cpu0_L1I PREFETCH  REQUESTED:   30710702  ISSUED:   30710697  CROSSED:          0  USEFUL:    2073144  USELESS:     709211
cpu0_L1I AVERAGE iMISS LATENCY: 22.8974 cycles
cpu0_L1I AVERAGE dMISS LATENCY: 0 cycles
cpu0_L1I AVERAGE itMISS LATENCY: 0 cycles
cpu0_L1I AVERAGE dtMISS LATENCY: 0 cycles
cpu0_L1I PAGE CROSSINGS (TLB HIT):         0 
cpu0_L1I PAGE CROSSINGS (TLB MISS):         0 
cpu0_L1I AVERAGE MISS LATENCY: 22.8974 cycles
cpu0_ITLB TOTAL       ACCESS:   33279888  HIT:   31194867  MISS:    2085021  iACCESS:   33279888  iHIT:   31194867  iMISS:    2085021  dACCESS:          0  dHIT:          0  dMISS:          0  itACCESS:          0  itHIT:          0  itMISS:          0  dtACCESS:          0  dtHIT:          0  dtMISS:          0
cpu0_ITLB LOAD         ACCESS:   33279888  HIT:   31194867  MISS:    2085021  iACCESS:   33279888  iHIT:   31194867  iMISS:    2085021  dACCESS:          0  dHIT:          0  dMISS:          0  itACCESS:          0  itHIT:          0  itMISS:          0  dtACCESS:          0  dtHIT:          0  dtMISS:          0
cpu0_ITLB RFO          ACCESS:          0  HIT:          0  MISS:          0  iACCESS:          0  iHIT:          0  iMISS:          0  dACCESS:          0  dHIT:          0  dMISS:          0  itACCESS:          0  itHIT:          0  itMISS:          0  dtACCESS:          0  dtHIT:          0  dtMISS:          0
cpu0_ITLB PREFETCH     ACCESS:          0  HIT:          0  MISS:          0  iACCESS:          0  iHIT:          0  iMISS:          0  dACCESS:          0  dHIT:          0  dMISS:          0  itACCESS:          0  itHIT:          0  itMISS:          0  dtACCESS:          0  dtHIT:          0  dtMISS:          0
cpu0_ITLB WRITE        ACCESS:          0  HIT:          0  MISS:          0  iACCESS:          0  iHIT:          0  iMISS:          0  dACCESS:          0  dHIT:          0  dMISS:          0  itACCESS:          0  itHIT:          0  itMISS:          0  dtACCESS:          0  dtHIT:          0  dtMISS:          0
cpu0_ITLB TRANSLATION  ACCESS:          0  HIT:          0  MISS:          0  iACCESS:          0  iHIT:          0  iMISS:          0  dACCESS:          0  dHIT:          0  dMISS:          0  itACCESS:          0  itHIT:          0  itMISS:          0  dtACCESS:          0  dtHIT:          0  dtMISS:          0
cpu0_ITLB PREFETCH  REQUESTED:          0  ISSUED:          0  CROSSED:          0  USEFUL:     361100  USELESS:      75097
cpu0_ITLB AVERAGE iMISS LATENCY: 9.5814 cycles
cpu0_ITLB AVERAGE dMISS LATENCY: 0 cycles
cpu0_ITLB AVERAGE itMISS LATENCY: 0 cycles
cpu0_ITLB AVERAGE dtMISS LATENCY: 0 cycles
cpu0_ITLB PAGE CROSSINGS (TLB HIT):         0 
cpu0_ITLB PAGE CROSSINGS (TLB MISS):         0 
cpu0_ITLB AVERAGE MISS LATENCY: 9.5814 cycles
cpu0_DTLB TOTAL       ACCESS:   29635437  HIT:   25085567  MISS:    4549870  iACCESS:          0  iHIT:          0  iMISS:          0  dACCESS:   29635437  dHIT:   25085567  dMISS:    4549870  itACCESS:          0  itHIT:          0  itMISS:          0  dtACCESS:          0  dtHIT:          0  dtMISS:          0
cpu0_DTLB LOAD         ACCESS:   29635437  HIT:   25085567  MISS:    4549870  iACCESS:          0  iHIT:          0  iMISS:          0  dACCESS:   29635437  dHIT:   25085567  dMISS:    4549870  itACCESS:          0  itHIT:          0  itMISS:          0  dtACCESS:          0  dtHIT:          0  dtMISS:          0
cpu0_DTLB RFO          ACCESS:          0  HIT:          0  MISS:          0  iACCESS:          0  iHIT:          0  iMISS:          0  dACCESS:          0  dHIT:          0  dMISS:          0  itACCESS:          0  itHIT:          0  itMISS:          0  dtACCESS:          0  dtHIT:          0  dtMISS:          0
cpu0_DTLB PREFETCH     ACCESS:          0  HIT:          0  MISS:          0  iACCESS:          0  iHIT:          0  iMISS:          0  dACCESS:          0  dHIT:          0  dMISS:          0  itACCESS:          0  itHIT:          0  itMISS:          0  dtACCESS:          0  dtHIT:          0  dtMISS:          0
cpu0_DTLB WRITE        ACCESS:          0  HIT:          0  MISS:          0  iACCESS:          0  iHIT:          0  iMISS:          0  dACCESS:          0  dHIT:          0  dMISS:          0  itACCESS:          0  itHIT:          0  itMISS:          0  dtACCESS:          0  dtHIT:          0  dtMISS:          0
cpu0_DTLB TRANSLATION  ACCESS:          0  HIT:          0  MISS:          0  iACCESS:          0  iHIT:          0  iMISS:          0  dACCESS:          0  dHIT:          0  dMISS:          0  itACCESS:          0  itHIT:          0  itMISS:          0  dtACCESS:          0  dtHIT:          0  dtMISS:          0
cpu0_DTLB PREFETCH  REQUESTED:          0  ISSUED:          0  CROSSED:          0  USEFUL:          0  USELESS:          0
cpu0_DTLB AVERAGE iMISS LATENCY: 0 cycles
cpu0_DTLB AVERAGE dMISS LATENCY: 18.5868 cycles
cpu0_DTLB AVERAGE itMISS LATENCY: 0 cycles
cpu0_DTLB AVERAGE dtMISS LATENCY: 0 cycles
cpu0_DTLB PAGE CROSSINGS (TLB HIT):         0 
cpu0_DTLB PAGE CROSSINGS (TLB MISS):         0 
cpu0_DTLB AVERAGE MISS LATENCY: 18.5868 cycles
cpu0_STLB TOTAL       ACCESS:    2892881  HIT:    2563651  MISS:     329230  iACCESS:     436206  iHIT:     334320  iMISS:     101886  dACCESS:    2456675  dHIT:    2229331  dMISS:     227344  itACCESS:          0  itHIT:          0  itMISS:          0  dtACCESS:          0  dtHIT:          0  dtMISS:          0
cpu0_STLB LOAD         ACCESS:    2892881  HIT:    2563651  MISS:     329230  iACCESS:     436206  iHIT:     334320  iMISS:     101886  dACCESS:    2456675  dHIT:    2229331  dMISS:     227344  itACCESS:          0  itHIT:          0  itMISS:          0  dtACCESS:          0  dtHIT:          0  dtMISS:          0
cpu0_STLB RFO          ACCESS:          0  HIT:          0  MISS:          0  iACCESS:          0  iHIT:          0  iMISS:          0  dACCESS:          0  dHIT:          0  dMISS:          0  itACCESS:          0  itHIT:          0  itMISS:          0  dtACCESS:          0  dtHIT:          0  dtMISS:          0
cpu0_STLB PREFETCH     ACCESS:          0  HIT:          0  MISS:          0  iACCESS:          0  iHIT:          0  iMISS:          0  dACCESS:          0  dHIT:          0  dMISS:          0  itACCESS:          0  itHIT:          0  itMISS:          0  dtACCESS:          0  dtHIT:          0  dtMISS:          0
cpu0_STLB WRITE        ACCESS:          0  HIT:          0  MISS:          0  iACCESS:          0  iHIT:          0  iMISS:          0  dACCESS:          0  dHIT:          0  dMISS:          0  itACCESS:          0  itHIT:          0  itMISS:          0  dtACCESS:          0  dtHIT:          0  dtMISS:          0
cpu0_STLB TRANSLATION  ACCESS:          0  HIT:          0  MISS:          0  iACCESS:          0  iHIT:          0  iMISS:          0  dACCESS:          0  dHIT:          0  dMISS:          0  itACCESS:          0  itHIT:          0  itMISS:          0  dtACCESS:          0  dtHIT:          0  dtMISS:          0
cpu0_STLB PREFETCH  REQUESTED:          0  ISSUED:          0  CROSSED:          0  USEFUL:          0  USELESS:          0
cpu0_STLB AVERAGE iMISS LATENCY: 50.0936 cycles
cpu0_STLB AVERAGE dMISS LATENCY: 196.684 cycles
cpu0_STLB AVERAGE itMISS LATENCY: 0 cycles
cpu0_STLB AVERAGE dtMISS LATENCY: 0 cycles
cpu0_STLB PAGE CROSSINGS (TLB HIT):         0 
cpu0_STLB PAGE CROSSINGS (TLB MISS):         0 
cpu0_STLB AVERAGE MISS LATENCY: 246.778 cycles
cpu0_L1D TOTAL       ACCESS:   45758128  HIT:   39450162  MISS:    6307966  iACCESS:          0  iHIT:          0  iMISS:          0  dACCESS:   45270809  dHIT:   39420316  dMISS:    5850493  itACCESS:     113307  itHIT:      13606  itMISS:      99701  dtACCESS:     374012  dtHIT:      16240  dtMISS:     357772
cpu0_L1D LOAD         ACCESS:   21132585  HIT:   18142701  MISS:    2989884  iACCESS:          0  iHIT:          0  iMISS:          0  dACCESS:   21132585  dHIT:   18142701  dMISS:    2989884  itACCESS:          0  itHIT:          0  itMISS:          0  dtACCESS:          0  dtHIT:          0  dtMISS:          0
cpu0_L1D RFO          ACCESS:          0  HIT:          0  MISS:          0  iACCESS:          0  iHIT:          0  iMISS:          0  dACCESS:          0  dHIT:          0  dMISS:          0  itACCESS:          0  itHIT:          0  itMISS:          0  dtACCESS:          0  dtHIT:          0  dtMISS:          0
cpu0_L1D PREFETCH     ACCESS:   14087813  HIT:   11758878  MISS:    2328935  iACCESS:          0  iHIT:          0  iMISS:          0  dACCESS:   14087813  dHIT:   11758878  dMISS:    2328935  itACCESS:          0  itHIT:          0  itMISS:          0  dtACCESS:          0  dtHIT:          0  dtMISS:          0
cpu0_L1D WRITE        ACCESS:   10050411  HIT:    9518737  MISS:     531674  iACCESS:          0  iHIT:          0  iMISS:          0  dACCESS:   10050411  dHIT:    9518737  dMISS:     531674  itACCESS:          0  itHIT:          0  itMISS:          0  dtACCESS:          0  dtHIT:          0  dtMISS:          0
cpu0_L1D TRANSLATION  ACCESS:     487319  HIT:      29846  MISS:     457473  iACCESS:          0  iHIT:          0  iMISS:          0  dACCESS:          0  dHIT:          0  dMISS:          0  itACCESS:     113307  itHIT:      13606  itMISS:      99701  dtACCESS:     374012  dtHIT:      16240  dtMISS:     357772
cpu0_L1D PREFETCH  REQUESTED:   21132585  ISSUED:   18543242  CROSSED:          0  USEFUL:     351977  USELESS:     994445
cpu0_L1D AVERAGE iMISS LATENCY: 0 cycles
cpu0_L1D AVERAGE dMISS LATENCY: 41.3784 cycles
cpu0_L1D AVERAGE itMISS LATENCY: 2.46011 cycles
cpu0_L1D AVERAGE dtMISS LATENCY: 9.47208 cycles
cpu0_L1D PAGE CROSSINGS (TLB HIT):         0 
cpu0_L1D PAGE CROSSINGS (TLB MISS):         0 
cpu0_L1D AVERAGE MISS LATENCY: 53.3106 cycles
cpu0_L2C TOTAL       ACCESS:    8975476  HIT:    4977559  MISS:    3997917  iACCESS:    3538572  iHIT:    2213996  iMISS:    1324576  dACCESS:    5008412  dHIT:    2709639  dMISS:    2298773  itACCESS:      99531  itHIT:      18959  itMISS:      80572  dtACCESS:     328961  dtHIT:      34965  dtMISS:     293996
cpu0_L2C LOAD         ACCESS:    2690266  HIT:    1744059  MISS:     946207  iACCESS:     792329  iHIT:     517580  iMISS:     274749  dACCESS:    1897937  dHIT:    1226479  dMISS:     671458  itACCESS:          0  itHIT:          0  itMISS:          0  dtACCESS:          0  dtHIT:          0  dtMISS:          0
cpu0_L2C RFO          ACCESS:     213702  HIT:      93982  MISS:     119720  iACCESS:          0  iHIT:          0  iMISS:          0  dACCESS:     213702  dHIT:      93982  dMISS:     119720  itACCESS:          0  itHIT:          0  itMISS:          0  dtACCESS:          0  dtHIT:          0  dtMISS:          0
cpu0_L2C PREFETCH     ACCESS:    5307784  HIT:    2754129  MISS:    2553655  iACCESS:    2746243  iHIT:    1696416  iMISS:    1049827  dACCESS:    2561541  dHIT:    1057713  dMISS:    1503828  itACCESS:          0  itHIT:          0  itMISS:          0  dtACCESS:          0  dtHIT:          0  dtMISS:          0
cpu0_L2C WRITE        ACCESS:     335232  HIT:     331465  MISS:       3767  iACCESS:          0  iHIT:          0  iMISS:          0  dACCESS:     335232  dHIT:     331465  dMISS:       3767  itACCESS:          0  itHIT:          0  itMISS:          0  dtACCESS:          0  dtHIT:          0  dtMISS:          0
cpu0_L2C TRANSLATION  ACCESS:     428492  HIT:      53924  MISS:     374568  iACCESS:          0  iHIT:          0  iMISS:          0  dACCESS:          0  dHIT:          0  dMISS:          0  itACCESS:      99531  itHIT:      18959  itMISS:      80572  dtACCESS:     328961  dtHIT:      34965  dtMISS:     293996
cpu0_L2C PREFETCH  REQUESTED:    1439114  ISSUED:    1439078  CROSSED:          0  USEFUL:     336905  USELESS:     294949
cpu0_L2C AVERAGE iMISS LATENCY: 39.1599 cycles
cpu0_L2C AVERAGE dMISS LATENCY: 77.6583 cycles
cpu0_L2C AVERAGE itMISS LATENCY: 3.63671 cycles
cpu0_L2C AVERAGE dtMISS LATENCY: 14.1263 cycles
cpu0_L2C PAGE CROSSINGS (TLB HIT):         0 
cpu0_L2C PAGE CROSSINGS (TLB MISS):         0 
cpu0_L2C AVERAGE MISS LATENCY: 134.582 cycles
LLC TOTAL       ACCESS:    3990544  HIT:    1249609  MISS:    2740935  iACCESS:    1238659  iHIT:     389554  iMISS:     849105  dACCESS:    2377317  dHIT:     823218  dMISS:    1554099  itACCESS:      80572  itHIT:       6917  itMISS:      73655  dtACCESS:     293996  dtHIT:      29920  dtMISS:     264076
LLC LOAD         ACCESS:     940954  HIT:     312261  MISS:     628693  iACCESS:     273471  iHIT:      91876  iMISS:     181595  dACCESS:     667483  dHIT:     220385  dMISS:     447098  itACCESS:          0  itHIT:          0  itMISS:          0  dtACCESS:          0  dtHIT:          0  dtMISS:          0
LLC RFO          ACCESS:     119715  HIT:      39574  MISS:      80141  iACCESS:          0  iHIT:          0  iMISS:          0  dACCESS:     119715  dHIT:      39574  dMISS:      80141  itACCESS:          0  itHIT:          0  itMISS:          0  dtACCESS:          0  dtHIT:          0  dtMISS:          0
LLC PREFETCH     ACCESS:    2357838  HIT:     673409  MISS:    1684429  iACCESS:     965188  iHIT:     297678  iMISS:     667510  dACCESS:    1392650  dHIT:     375731  dMISS:    1016919  itACCESS:          0  itHIT:          0  itMISS:          0  dtACCESS:          0  dtHIT:          0  dtMISS:          0
LLC WRITE        ACCESS:     197469  HIT:     187528  MISS:       9941  iACCESS:          0  iHIT:          0  iMISS:          0  dACCESS:     197469  dHIT:     187528  dMISS:       9941  itACCESS:          0  itHIT:          0  itMISS:          0  dtACCESS:          0  dtHIT:          0  dtMISS:          0
LLC TRANSLATION  ACCESS:     374568  HIT:      36837  MISS:     337731  iACCESS:          0  iHIT:          0  iMISS:          0  dACCESS:          0  dHIT:          0  dMISS:          0  itACCESS:      80572  itHIT:       6917  itMISS:      73655  dtACCESS:     293996  dtHIT:      29920  dtMISS:     264076
LLC PREFETCH  REQUESTED:          0  ISSUED:          0  CROSSED:          0  USEFUL:          0  USELESS:          0
LLC AVERAGE iMISS LATENCY: 48.2086 cycles
LLC AVERAGE dMISS LATENCY: 98.2325 cycles
LLC AVERAGE itMISS LATENCY: 4.72164 cycles
LLC AVERAGE dtMISS LATENCY: 18.4838 cycles
LLC PAGE CROSSINGS (TLB HIT):         0 
LLC PAGE CROSSINGS (TLB MISS):         0 
LLC AVERAGE MISS LATENCY: 169.647 cycles

PageTableWalker TOTAL       ACCESS:     154583  
PageTableWalker AVERAGE LATENCY: 6.56245 cycles
PageTableWalker TOTAL LATENCY: 1014443 cycles

DRAM Statistics
Channel 0
 RQ ROW_BUFFER_HIT:     612879
  ROW_BUFFER_MISS:    2108271
 AVG DBUS CONGESTED CYCLE:    3.64953
 WQ ROW_BUFFER_HIT:      58081
  ROW_BUFFER_MISS:      49904  FULL:          0

