last_page:0x200000000000000
VMEM_RES_CAP:0x100000
PAGE_SIZE:4096
LOG2_PAGE_SIZE:12
LOG2_PAGE_TABLE_SIZE:9
page_table_levels:5
WARNING: physical memory size is smaller than virtual memory size
FDiP enabled with aggresivity 16

*** ChampSim Multicore Out-of-Order Simulator ***

Warmup Instructions: 50000000
Simulation Instructions: 100000000
Number of CPUs: 1
Small page size: 4096
Large page size: 2097152

CPU 0 Bimodal branch predictor
Basic BTB sets: 1024 ways: 8 indirect buffer size: 4096 RAS size: 64
Instruction page size distrubution: 0
Loading instruction page size distribution from /home/bsc/bsc018186/scratch/itp_asplos25_AE/dump/smt_srv537_ap_srv180_ap_1024i.pdst
Data page size distrubution: 0
Loading data page size distribution from /home/bsc/bsc018186/scratch/itp_asplos25_AE/dump/smt_srv537_ap_srv180_ap_1024i.pdst
cpu0_L2C IP-based stride prefetcher
cpu0_L1D next line prefetcher
CHiRPing...
cpu0_L1I next line prefetcher
Off-chip DRAM Size: 4 GiB Channels: 1 Width: 64-bit Data Rate: 3200 MT/s
Heartbeat CPU 0 instructions: 10000000 cycles: 2500606 heartbeat IPC: 3.99904 cumulative IPC: 3.99904 (Simulation time: 0 hr 0 min 40 sec) 
Heartbeat CPU 0 instructions: 20000000 cycles: 5000730 heartbeat IPC: 3.99981 cumulative IPC: 3.99942 (Simulation time: 0 hr 1 min 22 sec) 
Heartbeat CPU 0 instructions: 30000001 cycles: 7500905 heartbeat IPC: 3.99973 cumulative IPC: 3.99952 (Simulation time: 0 hr 2 min 5 sec) 
Heartbeat CPU 0 instructions: 40000001 cycles: 10001171 heartbeat IPC: 3.99958 cumulative IPC: 3.99954 (Simulation time: 0 hr 2 min 49 sec) 
Heartbeat CPU 0 instructions: 50000003 cycles: 12501310 heartbeat IPC: 3.99978 cumulative IPC: 3.99959 (Simulation time: 0 hr 3 min 33 sec) 
Warmup finished CPU 0 instructions: 50000003 cycles: 12501311 cumulative IPC: 3.99959 (Simulation time: 0 hr 3 min 33 sec) 

Warmup complete CPU 0 instructions: 50000003 cycles: 12501311 (Simulation time: 0 hr 3 min 33 sec) 

Heartbeat CPU 0 instructions: 60000001 cycles: 39390254 heartbeat IPC: 0.3719 cumulative IPC: 0.371901 (Simulation time: 0 hr 4 min 57 sec) 
Heartbeat CPU 0 instructions: 70000003 cycles: 65212163 heartbeat IPC: 0.387269 cumulative IPC: 0.379429 (Simulation time: 0 hr 6 min 21 sec) 
Heartbeat CPU 0 instructions: 80000003 cycles: 91692355 heartbeat IPC: 0.377641 cumulative IPC: 0.378831 (Simulation time: 0 hr 7 min 46 sec) 
Heartbeat CPU 0 instructions: 90000000 cycles: 117460319 heartbeat IPC: 0.388079 cumulative IPC: 0.381102 (Simulation time: 0 hr 9 min 8 sec) 
Heartbeat CPU 0 instructions: 100000003 cycles: 143507061 heartbeat IPC: 0.383926 cumulative IPC: 0.381663 (Simulation time: 0 hr 10 min 32 sec) 
Heartbeat CPU 0 instructions: 110000000 cycles: 170706330 heartbeat IPC: 0.367657 cumulative IPC: 0.379255 (Simulation time: 0 hr 11 min 57 sec) 
Heartbeat CPU 0 instructions: 120000000 cycles: 196547937 heartbeat IPC: 0.386973 cumulative IPC: 0.380339 (Simulation time: 0 hr 13 min 20 sec) 
Heartbeat CPU 0 instructions: 130000000 cycles: 221419008 heartbeat IPC: 0.402074 cumulative IPC: 0.382926 (Simulation time: 0 hr 14 min 42 sec) 
Heartbeat CPU 0 instructions: 140000002 cycles: 247946290 heartbeat IPC: 0.376971 cumulative IPC: 0.382255 (Simulation time: 0 hr 16 min 6 sec) 
Heartbeat CPU 0 instructions: 150000002 cycles: 273715322 heartbeat IPC: 0.388063 cumulative IPC: 0.382828 (Simulation time: 0 hr 17 min 29 sec) 
Simulation finished CPU 0 instructions: 100000004 cycles: 261214013 cumulative IPC: 0.382828 (Simulation time: 0 hr 17 min 29 sec) 

Simulation complete CPU 0 instructions: 100000004 cycles: 261214013 (Simulation time: 0 hr 17 min 29 sec) 


ChampSim completed all CPUs

Saving instructions large page distribution to /home/bsc/bsc018186/scratch/itp_asplos25_AE/dump/smt_srv537_ap_srv180_ap_1024i.pdst...
Saving data large page distribution to /home/bsc/bsc018186/scratch/itp_asplos25_AE/dump/smt_srv537_ap_srv180_ap_1024i.pdst...
=== Simulation ===
CPU 0 runs /gpfs/projects/bsc18/MN4/bsc18/romol/ChampSim/traces/qualcomm_srv/smt_srv537_ap_srv180_ap_1024i.champsimtrace.xz

Region of Interest Statistics

CPU 0 cumulative IPC: 0.382828 instructions: 100000004 cycles: 261214013
CPU 0 Branch Prediction Accuracy: 76.1345% MPKI: 42.9765 Average ROB Occupancy at Mispredict: 11.1036
Branch type MPKI
BRANCH_DIRECT_JUMP: 1.28044
BRANCH_INDIRECT: 22.3442
BRANCH_CONDITIONAL: 12.5476
BRANCH_DIRECT_CALL: 2.47422
BRANCH_INDIRECT_CALL: 0.92457
BRANCH_RETURN: 3.40554

Instructions large pages: 0
Instructions small pages: 13692
Large page distribution for instructions: 0%

Data large pages: 0
Data small pages: 12405
Large page distribution for data: 0%

cpu0_L1I TOTAL       ACCESS:   39451025  HIT:   30239289  MISS:    9211736  iACCESS:   39451025  iHIT:   30239289  iMISS:    9211736  dACCESS:          0  dHIT:          0  dMISS:          0  itACCESS:          0  itHIT:          0  itMISS:          0  dtACCESS:          0  dtHIT:          0  dtMISS:          0
cpu0_L1I LOAD         ACCESS:   11845719  HIT:    9337196  MISS:    2508523  iACCESS:   11845719  iHIT:    9337196  iMISS:    2508523  dACCESS:          0  dHIT:          0  dMISS:          0  itACCESS:          0  itHIT:          0  itMISS:          0  dtACCESS:          0  dtHIT:          0  dtMISS:          0
cpu0_L1I RFO          ACCESS:          0  HIT:          0  MISS:          0  iACCESS:          0  iHIT:          0  iMISS:          0  dACCESS:          0  dHIT:          0  dMISS:          0  itACCESS:          0  itHIT:          0  itMISS:          0  dtACCESS:          0  dtHIT:          0  dtMISS:          0
cpu0_L1I PREFETCH     ACCESS:   27605306  HIT:   20902093  MISS:    6703213  iACCESS:   27605306  iHIT:   20902093  iMISS:    6703213  dACCESS:          0  dHIT:          0  dMISS:          0  itACCESS:          0  itHIT:          0  itMISS:          0  dtACCESS:          0  dtHIT:          0  dtMISS:          0
cpu0_L1I WRITE        ACCESS:          0  HIT:          0  MISS:          0  iACCESS:          0  iHIT:          0  iMISS:          0  dACCESS:          0  dHIT:          0  dMISS:          0  itACCESS:          0  itHIT:          0  itMISS:          0  dtACCESS:          0  dtHIT:          0  dtMISS:          0
cpu0_L1I TRANSLATION  ACCESS:          0  HIT:          0  MISS:          0  iACCESS:          0  iHIT:          0  iMISS:          0  dACCESS:          0  dHIT:          0  dMISS:          0  itACCESS:          0  itHIT:          0  itMISS:          0  dtACCESS:          0  dtHIT:          0  dtMISS:          0
cpu0_L1I PREFETCH  REQUESTED:   30276594  ISSUED:   30275338  CROSSED:          0  USEFUL:    2201431  USELESS:     749841
cpu0_L1I AVERAGE iMISS LATENCY: 22.5769 cycles
cpu0_L1I AVERAGE dMISS LATENCY: 0 cycles
cpu0_L1I AVERAGE itMISS LATENCY: 0 cycles
cpu0_L1I AVERAGE dtMISS LATENCY: 0 cycles
cpu0_L1I PAGE CROSSINGS (TLB HIT):         0 
cpu0_L1I PAGE CROSSINGS (TLB MISS):         0 
cpu0_L1I AVERAGE MISS LATENCY: 22.5769 cycles
cpu0_ITLB TOTAL       ACCESS:   33049662  HIT:   30851458  MISS:    2198204  iACCESS:   33049662  iHIT:   30851458  iMISS:    2198204  dACCESS:          0  dHIT:          0  dMISS:          0  itACCESS:          0  itHIT:          0  itMISS:          0  dtACCESS:          0  dtHIT:          0  dtMISS:          0
cpu0_ITLB LOAD         ACCESS:   33049662  HIT:   30851458  MISS:    2198204  iACCESS:   33049662  iHIT:   30851458  iMISS:    2198204  dACCESS:          0  dHIT:          0  dMISS:          0  itACCESS:          0  itHIT:          0  itMISS:          0  dtACCESS:          0  dtHIT:          0  dtMISS:          0
cpu0_ITLB RFO          ACCESS:          0  HIT:          0  MISS:          0  iACCESS:          0  iHIT:          0  iMISS:          0  dACCESS:          0  dHIT:          0  dMISS:          0  itACCESS:          0  itHIT:          0  itMISS:          0  dtACCESS:          0  dtHIT:          0  dtMISS:          0
cpu0_ITLB PREFETCH     ACCESS:          0  HIT:          0  MISS:          0  iACCESS:          0  iHIT:          0  iMISS:          0  dACCESS:          0  dHIT:          0  dMISS:          0  itACCESS:          0  itHIT:          0  itMISS:          0  dtACCESS:          0  dtHIT:          0  dtMISS:          0
cpu0_ITLB WRITE        ACCESS:          0  HIT:          0  MISS:          0  iACCESS:          0  iHIT:          0  iMISS:          0  dACCESS:          0  dHIT:          0  dMISS:          0  itACCESS:          0  itHIT:          0  itMISS:          0  dtACCESS:          0  dtHIT:          0  dtMISS:          0
cpu0_ITLB TRANSLATION  ACCESS:          0  HIT:          0  MISS:          0  iACCESS:          0  iHIT:          0  iMISS:          0  dACCESS:          0  dHIT:          0  dMISS:          0  itACCESS:          0  itHIT:          0  itMISS:          0  dtACCESS:          0  dtHIT:          0  dtMISS:          0
cpu0_ITLB PREFETCH  REQUESTED:          0  ISSUED:          0  CROSSED:          0  USEFUL:     383591  USELESS:      77350
cpu0_ITLB AVERAGE iMISS LATENCY: 7.11049 cycles
cpu0_ITLB AVERAGE dMISS LATENCY: 0 cycles
cpu0_ITLB AVERAGE itMISS LATENCY: 0 cycles
cpu0_ITLB AVERAGE dtMISS LATENCY: 0 cycles
cpu0_ITLB PAGE CROSSINGS (TLB HIT):         0 
cpu0_ITLB PAGE CROSSINGS (TLB MISS):         0 
cpu0_ITLB AVERAGE MISS LATENCY: 7.11049 cycles
cpu0_DTLB TOTAL       ACCESS:   28754818  HIT:   25328453  MISS:    3426365  iACCESS:          0  iHIT:          0  iMISS:          0  dACCESS:   28754818  dHIT:   25328453  dMISS:    3426365  itACCESS:          0  itHIT:          0  itMISS:          0  dtACCESS:          0  dtHIT:          0  dtMISS:          0
cpu0_DTLB LOAD         ACCESS:   28754818  HIT:   25328453  MISS:    3426365  iACCESS:          0  iHIT:          0  iMISS:          0  dACCESS:   28754818  dHIT:   25328453  dMISS:    3426365  itACCESS:          0  itHIT:          0  itMISS:          0  dtACCESS:          0  dtHIT:          0  dtMISS:          0
cpu0_DTLB RFO          ACCESS:          0  HIT:          0  MISS:          0  iACCESS:          0  iHIT:          0  iMISS:          0  dACCESS:          0  dHIT:          0  dMISS:          0  itACCESS:          0  itHIT:          0  itMISS:          0  dtACCESS:          0  dtHIT:          0  dtMISS:          0
cpu0_DTLB PREFETCH     ACCESS:          0  HIT:          0  MISS:          0  iACCESS:          0  iHIT:          0  iMISS:          0  dACCESS:          0  dHIT:          0  dMISS:          0  itACCESS:          0  itHIT:          0  itMISS:          0  dtACCESS:          0  dtHIT:          0  dtMISS:          0
cpu0_DTLB WRITE        ACCESS:          0  HIT:          0  MISS:          0  iACCESS:          0  iHIT:          0  iMISS:          0  dACCESS:          0  dHIT:          0  dMISS:          0  itACCESS:          0  itHIT:          0  itMISS:          0  dtACCESS:          0  dtHIT:          0  dtMISS:          0
cpu0_DTLB TRANSLATION  ACCESS:          0  HIT:          0  MISS:          0  iACCESS:          0  iHIT:          0  iMISS:          0  dACCESS:          0  dHIT:          0  dMISS:          0  itACCESS:          0  itHIT:          0  itMISS:          0  dtACCESS:          0  dtHIT:          0  dtMISS:          0
cpu0_DTLB PREFETCH  REQUESTED:          0  ISSUED:          0  CROSSED:          0  USEFUL:          0  USELESS:          0
cpu0_DTLB AVERAGE iMISS LATENCY: 0 cycles
cpu0_DTLB AVERAGE dMISS LATENCY: 16.702 cycles
cpu0_DTLB AVERAGE itMISS LATENCY: 0 cycles
cpu0_DTLB AVERAGE dtMISS LATENCY: 0 cycles
cpu0_DTLB PAGE CROSSINGS (TLB HIT):         0 
cpu0_DTLB PAGE CROSSINGS (TLB MISS):         0 
cpu0_DTLB AVERAGE MISS LATENCY: 16.702 cycles
cpu0_STLB TOTAL       ACCESS:    2425986  HIT:    2078435  MISS:     347551  iACCESS:     460951  iHIT:     354817  iMISS:     106134  dACCESS:    1965035  dHIT:    1723618  dMISS:     241417  itACCESS:          0  itHIT:          0  itMISS:          0  dtACCESS:          0  dtHIT:          0  dtMISS:          0
cpu0_STLB LOAD         ACCESS:    2425986  HIT:    2078435  MISS:     347551  iACCESS:     460951  iHIT:     354817  iMISS:     106134  dACCESS:    1965035  dHIT:    1723618  dMISS:     241417  itACCESS:          0  itHIT:          0  itMISS:          0  dtACCESS:          0  dtHIT:          0  dtMISS:          0
cpu0_STLB RFO          ACCESS:          0  HIT:          0  MISS:          0  iACCESS:          0  iHIT:          0  iMISS:          0  dACCESS:          0  dHIT:          0  dMISS:          0  itACCESS:          0  itHIT:          0  itMISS:          0  dtACCESS:          0  dtHIT:          0  dtMISS:          0
cpu0_STLB PREFETCH     ACCESS:          0  HIT:          0  MISS:          0  iACCESS:          0  iHIT:          0  iMISS:          0  dACCESS:          0  dHIT:          0  dMISS:          0  itACCESS:          0  itHIT:          0  itMISS:          0  dtACCESS:          0  dtHIT:          0  dtMISS:          0
cpu0_STLB WRITE        ACCESS:          0  HIT:          0  MISS:          0  iACCESS:          0  iHIT:          0  iMISS:          0  dACCESS:          0  dHIT:          0  dMISS:          0  itACCESS:          0  itHIT:          0  itMISS:          0  dtACCESS:          0  dtHIT:          0  dtMISS:          0
cpu0_STLB TRANSLATION  ACCESS:          0  HIT:          0  MISS:          0  iACCESS:          0  iHIT:          0  iMISS:          0  dACCESS:          0  dHIT:          0  dMISS:          0  itACCESS:          0  itHIT:          0  itMISS:          0  dtACCESS:          0  dtHIT:          0  dtMISS:          0
cpu0_STLB PREFETCH  REQUESTED:          0  ISSUED:          0  CROSSED:          0  USEFUL:          0  USELESS:          0
cpu0_STLB AVERAGE iMISS LATENCY: 34.3968 cycles
cpu0_STLB AVERAGE dMISS LATENCY: 119.292 cycles
cpu0_STLB AVERAGE itMISS LATENCY: 0 cycles
cpu0_STLB AVERAGE dtMISS LATENCY: 0 cycles
cpu0_STLB PAGE CROSSINGS (TLB HIT):         0 
cpu0_STLB PAGE CROSSINGS (TLB MISS):         0 
cpu0_STLB AVERAGE MISS LATENCY: 153.689 cycles
cpu0_L1D TOTAL       ACCESS:   44353205  HIT:   39083176  MISS:    5270029  iACCESS:          0  iHIT:          0  iMISS:          0  dACCESS:   43837461  dHIT:   39049220  dMISS:    4788241  itACCESS:     118466  itHIT:      15541  itMISS:     102925  dtACCESS:     397278  dtHIT:      18415  dtMISS:     378863
cpu0_L1D LOAD         ACCESS:   19997066  HIT:   17856332  MISS:    2140734  iACCESS:          0  iHIT:          0  iMISS:          0  dACCESS:   19997066  dHIT:   17856332  dMISS:    2140734  itACCESS:          0  itHIT:          0  itMISS:          0  dtACCESS:          0  dtHIT:          0  dtMISS:          0
cpu0_L1D RFO          ACCESS:          0  HIT:          0  MISS:          0  iACCESS:          0  iHIT:          0  iMISS:          0  dACCESS:          0  dHIT:          0  dMISS:          0  itACCESS:          0  itHIT:          0  itMISS:          0  dtACCESS:          0  dtHIT:          0  dtMISS:          0
cpu0_L1D PREFETCH     ACCESS:   13677739  HIT:   11573661  MISS:    2104078  iACCESS:          0  iHIT:          0  iMISS:          0  dACCESS:   13677739  dHIT:   11573661  dMISS:    2104078  itACCESS:          0  itHIT:          0  itMISS:          0  dtACCESS:          0  dtHIT:          0  dtMISS:          0
cpu0_L1D WRITE        ACCESS:   10162656  HIT:    9619227  MISS:     543429  iACCESS:          0  iHIT:          0  iMISS:          0  dACCESS:   10162656  dHIT:    9619227  dMISS:     543429  itACCESS:          0  itHIT:          0  itMISS:          0  dtACCESS:          0  dtHIT:          0  dtMISS:          0
cpu0_L1D TRANSLATION  ACCESS:     515744  HIT:      33956  MISS:     481788  iACCESS:          0  iHIT:          0  iMISS:          0  dACCESS:          0  dHIT:          0  dMISS:          0  itACCESS:     118466  itHIT:      15541  itMISS:     102925  dtACCESS:     397278  dtHIT:      18415  dtMISS:     378863
cpu0_L1D PREFETCH  REQUESTED:   19997066  ISSUED:   18254391  CROSSED:          0  USEFUL:     371933  USELESS:     905005
cpu0_L1D AVERAGE iMISS LATENCY: 0 cycles
cpu0_L1D AVERAGE dMISS LATENCY: 51.0067 cycles
cpu0_L1D AVERAGE itMISS LATENCY: 2.07958 cycles
cpu0_L1D AVERAGE dtMISS LATENCY: 6.88328 cycles
cpu0_L1D PAGE CROSSINGS (TLB HIT):         0 
cpu0_L1D PAGE CROSSINGS (TLB MISS):         0 
cpu0_L1D AVERAGE MISS LATENCY: 59.9695 cycles
cpu0_L2C TOTAL       ACCESS:    8488287  HIT:    1542031  MISS:    6946256  iACCESS:    3752349  iHIT:     807959  iMISS:    2944390  dACCESS:    4283678  dHIT:     547863  dMISS:    3735815  itACCESS:     102581  itHIT:      37819  itMISS:      64762  dtACCESS:     349679  dtHIT:     148390  dtMISS:     201289
cpu0_L2C LOAD         ACCESS:    2030211  HIT:     215278  MISS:    1814933  iACCESS:     838927  iHIT:     119916  iMISS:     719011  dACCESS:    1191284  dHIT:      95362  dMISS:    1095922  itACCESS:          0  itHIT:          0  itMISS:          0  dtACCESS:          0  dtHIT:          0  dtMISS:          0
cpu0_L2C RFO          ACCESS:     208055  HIT:      29964  MISS:     178091  iACCESS:          0  iHIT:          0  iMISS:          0  dACCESS:     208055  dHIT:      29964  dMISS:     178091  itACCESS:          0  itHIT:          0  itMISS:          0  dtACCESS:          0  dtHIT:          0  dtMISS:          0
cpu0_L2C PREFETCH     ACCESS:    5451523  HIT:    1004483  MISS:    4447040  iACCESS:    2913422  iHIT:     688043  iMISS:    2225379  dACCESS:    2538101  dHIT:     316440  dMISS:    2221661  itACCESS:          0  itHIT:          0  itMISS:          0  dtACCESS:          0  dtHIT:          0  dtMISS:          0
cpu0_L2C WRITE        ACCESS:     346238  HIT:     106097  MISS:     240141  iACCESS:          0  iHIT:          0  iMISS:          0  dACCESS:     346238  dHIT:     106097  dMISS:     240141  itACCESS:          0  itHIT:          0  itMISS:          0  dtACCESS:          0  dtHIT:          0  dtMISS:          0
cpu0_L2C TRANSLATION  ACCESS:     452260  HIT:     186209  MISS:     266051  iACCESS:          0  iHIT:          0  iMISS:          0  dACCESS:          0  dHIT:          0  dMISS:          0  itACCESS:     102581  itHIT:      37819  itMISS:      64762  dtACCESS:     349679  dtHIT:     148390  dtMISS:     201289
cpu0_L2C PREFETCH  REQUESTED:    1507982  ISSUED:    1507980  CROSSED:          0  USEFUL:     415623  USELESS:     478150
cpu0_L2C AVERAGE iMISS LATENCY: 25.2025 cycles
cpu0_L2C AVERAGE dMISS LATENCY: 47.6212 cycles
cpu0_L2C AVERAGE itMISS LATENCY: 1.43515 cycles
cpu0_L2C AVERAGE dtMISS LATENCY: 4.73803 cycles
cpu0_L2C PAGE CROSSINGS (TLB HIT):         0 
cpu0_L2C PAGE CROSSINGS (TLB MISS):         0 
cpu0_L2C AVERAGE MISS LATENCY: 78.9968 cycles
LLC TOTAL       ACCESS:    6762873  HIT:    4263805  MISS:    2499068  iACCESS:    2851620  iHIT:    2081231  iMISS:     770389  dACCESS:    3645202  dHIT:    2118175  dMISS:    1527027  itACCESS:      64762  itHIT:      16077  itMISS:      48685  dtACCESS:     201289  dtHIT:      48322  dtMISS:     152967
LLC LOAD         ACCESS:    1809640  HIT:    1210343  MISS:     599297  iACCESS:     717645  iHIT:     556757  iMISS:     160888  dACCESS:    1091995  dHIT:     653586  dMISS:     438409  itACCESS:          0  itHIT:          0  itMISS:          0  dtACCESS:          0  dtHIT:          0  dtMISS:          0
LLC RFO          ACCESS:     178085  HIT:      93547  MISS:      84538  iACCESS:          0  iHIT:          0  iMISS:          0  dACCESS:     178085  dHIT:      93547  dMISS:      84538  itACCESS:          0  itHIT:          0  itMISS:          0  dtACCESS:          0  dtHIT:          0  dtMISS:          0
LLC PREFETCH     ACCESS:    4237976  HIT:    2632224  MISS:    1605752  iACCESS:    2133975  iHIT:    1524474  iMISS:     609501  dACCESS:    2104001  dHIT:    1107750  dMISS:     996251  itACCESS:          0  itHIT:          0  itMISS:          0  dtACCESS:          0  dtHIT:          0  dtMISS:          0
LLC WRITE        ACCESS:     271121  HIT:     263292  MISS:       7829  iACCESS:          0  iHIT:          0  iMISS:          0  dACCESS:     271121  dHIT:     263292  dMISS:       7829  itACCESS:          0  itHIT:          0  itMISS:          0  dtACCESS:          0  dtHIT:          0  dtMISS:          0
LLC TRANSLATION  ACCESS:     266051  HIT:      64399  MISS:     201652  iACCESS:          0  iHIT:          0  iMISS:          0  dACCESS:          0  dHIT:          0  dMISS:          0  itACCESS:      64762  itHIT:      16077  itMISS:      48685  dtACCESS:     201289  dtHIT:      48322  dtMISS:     152967
LLC PREFETCH  REQUESTED:          0  ISSUED:          0  CROSSED:          0  USEFUL:          0  USELESS:          0
LLC AVERAGE iMISS LATENCY: 47.9081 cycles
LLC AVERAGE dMISS LATENCY: 106.709 cycles
LLC AVERAGE itMISS LATENCY: 3.47897 cycles
LLC AVERAGE dtMISS LATENCY: 11.5837 cycles
LLC PAGE CROSSINGS (TLB HIT):         0 
LLC PAGE CROSSINGS (TLB MISS):         0 
LLC AVERAGE MISS LATENCY: 169.68 cycles

PageTableWalker TOTAL       ACCESS:     170315  
PageTableWalker AVERAGE LATENCY: 5.89866 cycles
PageTableWalker TOTAL LATENCY: 1004629 cycles

DRAM Statistics
Channel 0
 RQ ROW_BUFFER_HIT:     573780
  ROW_BUFFER_MISS:    1907981
 AVG DBUS CONGESTED CYCLE:     3.6492
 WQ ROW_BUFFER_HIT:      62958
  ROW_BUFFER_MISS:      59273  FULL:          0

