last_page:0x200000000000000
VMEM_RES_CAP:0x100000
PAGE_SIZE:4096
LOG2_PAGE_SIZE:12
LOG2_PAGE_TABLE_SIZE:9
page_table_levels:5
WARNING: physical memory size is smaller than virtual memory size
FDiP enabled with aggresivity 16

*** ChampSim Multicore Out-of-Order Simulator ***

Warmup Instructions: 50000000
Simulation Instructions: 100000000
Number of CPUs: 1
Small page size: 4096
Large page size: 2097152

CPU 0 Bimodal branch predictor
Basic BTB sets: 1024 ways: 8 indirect buffer size: 4096 RAS size: 64
Instruction page size distrubution: 0
Loading instruction page size distribution from /home/bsc/bsc018186/scratch/itp_asplos25_AE/dump/smt_srv540_ap_srv582_ap_1024i.pdst
Data page size distrubution: 0
Loading data page size distribution from /home/bsc/bsc018186/scratch/itp_asplos25_AE/dump/smt_srv540_ap_srv582_ap_1024i.pdst
cpu0_L2C IP-based stride prefetcher
cpu0_L2C is using PTP replacement policy:
	TLB_STRESS_THRESHOLD:0
	PTE_EVICTION_RATIO:0
cpu0_L1D next line prefetcher
CHiRPing...
cpu0_L1I next line prefetcher
Off-chip DRAM Size: 4 GiB Channels: 1 Width: 64-bit Data Rate: 3200 MT/s
Heartbeat CPU 0 instructions: 10000001 cycles: 2500395 heartbeat IPC: 3.99937 cumulative IPC: 3.99937 (Simulation time: 0 hr 0 min 38 sec) 
Heartbeat CPU 0 instructions: 20000003 cycles: 5000564 heartbeat IPC: 3.99974 cumulative IPC: 3.99955 (Simulation time: 0 hr 1 min 18 sec) 
Heartbeat CPU 0 instructions: 30000000 cycles: 7500765 heartbeat IPC: 3.99968 cumulative IPC: 3.9996 (Simulation time: 0 hr 1 min 58 sec) 
Heartbeat CPU 0 instructions: 40000003 cycles: 10000927 heartbeat IPC: 3.99975 cumulative IPC: 3.99963 (Simulation time: 0 hr 2 min 39 sec) 
Heartbeat CPU 0 instructions: 50000003 cycles: 12501321 heartbeat IPC: 3.99937 cumulative IPC: 3.99958 (Simulation time: 0 hr 3 min 20 sec) 
Warmup finished CPU 0 instructions: 50000003 cycles: 12501322 cumulative IPC: 3.99958 (Simulation time: 0 hr 3 min 20 sec) 

Warmup complete CPU 0 instructions: 50000003 cycles: 12501322 (Simulation time: 0 hr 3 min 20 sec) 

Heartbeat CPU 0 instructions: 60000002 cycles: 42416826 heartbeat IPC: 0.334275 cumulative IPC: 0.334275 (Simulation time: 0 hr 4 min 44 sec) 
Heartbeat CPU 0 instructions: 70000000 cycles: 72779597 heartbeat IPC: 0.329351 cumulative IPC: 0.331795 (Simulation time: 0 hr 6 min 10 sec) 
Heartbeat CPU 0 instructions: 80000002 cycles: 102324504 heartbeat IPC: 0.338468 cumulative IPC: 0.33399 (Simulation time: 0 hr 7 min 34 sec) 
Heartbeat CPU 0 instructions: 90000000 cycles: 132489746 heartbeat IPC: 0.331508 cumulative IPC: 0.333366 (Simulation time: 0 hr 8 min 59 sec) 
Heartbeat CPU 0 instructions: 100000004 cycles: 163867759 heartbeat IPC: 0.318695 cumulative IPC: 0.330325 (Simulation time: 0 hr 10 min 25 sec) 
Heartbeat CPU 0 instructions: 110000004 cycles: 193997207 heartbeat IPC: 0.331902 cumulative IPC: 0.330587 (Simulation time: 0 hr 11 min 50 sec) 
Heartbeat CPU 0 instructions: 120000004 cycles: 224578238 heartbeat IPC: 0.327001 cumulative IPC: 0.330069 (Simulation time: 0 hr 13 min 16 sec) 
Heartbeat CPU 0 instructions: 130000000 cycles: 254380758 heartbeat IPC: 0.335542 cumulative IPC: 0.330744 (Simulation time: 0 hr 14 min 41 sec) 
Heartbeat CPU 0 instructions: 140000002 cycles: 284307203 heartbeat IPC: 0.334153 cumulative IPC: 0.331119 (Simulation time: 0 hr 16 min 5 sec) 
Heartbeat CPU 0 instructions: 150000001 cycles: 312839674 heartbeat IPC: 0.350478 cumulative IPC: 0.332958 (Simulation time: 0 hr 17 min 28 sec) 
Simulation finished CPU 0 instructions: 100000003 cycles: 300338354 cumulative IPC: 0.332958 (Simulation time: 0 hr 17 min 28 sec) 

Simulation complete CPU 0 instructions: 100000003 cycles: 300338354 (Simulation time: 0 hr 17 min 28 sec) 


ChampSim completed all CPUs

Saving instructions large page distribution to /home/bsc/bsc018186/scratch/itp_asplos25_AE/dump/smt_srv540_ap_srv582_ap_1024i.pdst...
Saving data large page distribution to /home/bsc/bsc018186/scratch/itp_asplos25_AE/dump/smt_srv540_ap_srv582_ap_1024i.pdst...
=== Simulation ===
CPU 0 runs /gpfs/projects/bsc18/MN4/bsc18/romol/ChampSim/traces/qualcomm_srv/smt_srv540_ap_srv582_ap_1024i.champsimtrace.xz

Region of Interest Statistics

CPU 0 cumulative IPC: 0.332958 instructions: 100000003 cycles: 300338354
CPU 0 Branch Prediction Accuracy: 75.1418% MPKI: 44.8327 Average ROB Occupancy at Mispredict: 10.7876
Branch type MPKI
BRANCH_DIRECT_JUMP: 1.39703
BRANCH_INDIRECT: 23.1452
BRANCH_CONDITIONAL: 13.0321
BRANCH_DIRECT_CALL: 2.68798
BRANCH_INDIRECT_CALL: 1.02458
BRANCH_RETURN: 3.54574

Instructions large pages: 0
Instructions small pages: 9622
Large page distribution for instructions: 0%

Data large pages: 0
Data small pages: 8277
Large page distribution for data: 0%

cpu0_L1I TOTAL       ACCESS:   39264936  HIT:   30570019  MISS:    8694917  iACCESS:   39264936  iHIT:   30570019  iMISS:    8694917  dACCESS:          0  dHIT:          0  dMISS:          0  itACCESS:          0  itHIT:          0  itMISS:          0  dtACCESS:          0  dtHIT:          0  dtMISS:          0
cpu0_L1I LOAD         ACCESS:   11754722  HIT:    9389293  MISS:    2365429  iACCESS:   11754722  iHIT:    9389293  iMISS:    2365429  dACCESS:          0  dHIT:          0  dMISS:          0  itACCESS:          0  itHIT:          0  itMISS:          0  dtACCESS:          0  dtHIT:          0  dtMISS:          0
cpu0_L1I RFO          ACCESS:          0  HIT:          0  MISS:          0  iACCESS:          0  iHIT:          0  iMISS:          0  dACCESS:          0  dHIT:          0  dMISS:          0  itACCESS:          0  itHIT:          0  itMISS:          0  dtACCESS:          0  dtHIT:          0  dtMISS:          0
cpu0_L1I PREFETCH     ACCESS:   27510214  HIT:   21180726  MISS:    6329488  iACCESS:   27510214  iHIT:   21180726  iMISS:    6329488  dACCESS:          0  dHIT:          0  dMISS:          0  itACCESS:          0  itHIT:          0  itMISS:          0  dtACCESS:          0  dtHIT:          0  dtMISS:          0
cpu0_L1I WRITE        ACCESS:          0  HIT:          0  MISS:          0  iACCESS:          0  iHIT:          0  iMISS:          0  dACCESS:          0  dHIT:          0  dMISS:          0  itACCESS:          0  itHIT:          0  itMISS:          0  dtACCESS:          0  dtHIT:          0  dtMISS:          0
cpu0_L1I TRANSLATION  ACCESS:          0  HIT:          0  MISS:          0  iACCESS:          0  iHIT:          0  iMISS:          0  dACCESS:          0  dHIT:          0  dMISS:          0  itACCESS:          0  itHIT:          0  itMISS:          0  dtACCESS:          0  dtHIT:          0  dtMISS:          0
cpu0_L1I PREFETCH  REQUESTED:   30338529  ISSUED:   30338519  CROSSED:          0  USEFUL:    2206878  USELESS:     766267
cpu0_L1I AVERAGE iMISS LATENCY: 24.5007 cycles
cpu0_L1I AVERAGE dMISS LATENCY: 0 cycles
cpu0_L1I AVERAGE itMISS LATENCY: 0 cycles
cpu0_L1I AVERAGE dtMISS LATENCY: 0 cycles
cpu0_L1I PAGE CROSSINGS (TLB HIT):         0 
cpu0_L1I PAGE CROSSINGS (TLB MISS):         0 
cpu0_L1I AVERAGE MISS LATENCY: 24.5007 cycles
cpu0_ITLB TOTAL       ACCESS:   33235176  HIT:   31008349  MISS:    2226827  iACCESS:   33235176  iHIT:   31008349  iMISS:    2226827  dACCESS:          0  dHIT:          0  dMISS:          0  itACCESS:          0  itHIT:          0  itMISS:          0  dtACCESS:          0  dtHIT:          0  dtMISS:          0
cpu0_ITLB LOAD         ACCESS:   33235176  HIT:   31008349  MISS:    2226827  iACCESS:   33235176  iHIT:   31008349  iMISS:    2226827  dACCESS:          0  dHIT:          0  dMISS:          0  itACCESS:          0  itHIT:          0  itMISS:          0  dtACCESS:          0  dtHIT:          0  dtMISS:          0
cpu0_ITLB RFO          ACCESS:          0  HIT:          0  MISS:          0  iACCESS:          0  iHIT:          0  iMISS:          0  dACCESS:          0  dHIT:          0  dMISS:          0  itACCESS:          0  itHIT:          0  itMISS:          0  dtACCESS:          0  dtHIT:          0  dtMISS:          0
cpu0_ITLB PREFETCH     ACCESS:          0  HIT:          0  MISS:          0  iACCESS:          0  iHIT:          0  iMISS:          0  dACCESS:          0  dHIT:          0  dMISS:          0  itACCESS:          0  itHIT:          0  itMISS:          0  dtACCESS:          0  dtHIT:          0  dtMISS:          0
cpu0_ITLB WRITE        ACCESS:          0  HIT:          0  MISS:          0  iACCESS:          0  iHIT:          0  iMISS:          0  dACCESS:          0  dHIT:          0  dMISS:          0  itACCESS:          0  itHIT:          0  itMISS:          0  dtACCESS:          0  dtHIT:          0  dtMISS:          0
cpu0_ITLB TRANSLATION  ACCESS:          0  HIT:          0  MISS:          0  iACCESS:          0  iHIT:          0  iMISS:          0  dACCESS:          0  dHIT:          0  dMISS:          0  itACCESS:          0  itHIT:          0  itMISS:          0  dtACCESS:          0  dtHIT:          0  dtMISS:          0
cpu0_ITLB PREFETCH  REQUESTED:          0  ISSUED:          0  CROSSED:          0  USEFUL:     389258  USELESS:      79200
cpu0_ITLB AVERAGE iMISS LATENCY: 10.4396 cycles
cpu0_ITLB AVERAGE dMISS LATENCY: 0 cycles
cpu0_ITLB AVERAGE itMISS LATENCY: 0 cycles
cpu0_ITLB AVERAGE dtMISS LATENCY: 0 cycles
cpu0_ITLB PAGE CROSSINGS (TLB HIT):         0 
cpu0_ITLB PAGE CROSSINGS (TLB MISS):         0 
cpu0_ITLB AVERAGE MISS LATENCY: 10.4396 cycles
cpu0_DTLB TOTAL       ACCESS:   28842479  HIT:   25229385  MISS:    3613094  iACCESS:          0  iHIT:          0  iMISS:          0  dACCESS:   28842479  dHIT:   25229385  dMISS:    3613094  itACCESS:          0  itHIT:          0  itMISS:          0  dtACCESS:          0  dtHIT:          0  dtMISS:          0
cpu0_DTLB LOAD         ACCESS:   28842479  HIT:   25229385  MISS:    3613094  iACCESS:          0  iHIT:          0  iMISS:          0  dACCESS:   28842479  dHIT:   25229385  dMISS:    3613094  itACCESS:          0  itHIT:          0  itMISS:          0  dtACCESS:          0  dtHIT:          0  dtMISS:          0
cpu0_DTLB RFO          ACCESS:          0  HIT:          0  MISS:          0  iACCESS:          0  iHIT:          0  iMISS:          0  dACCESS:          0  dHIT:          0  dMISS:          0  itACCESS:          0  itHIT:          0  itMISS:          0  dtACCESS:          0  dtHIT:          0  dtMISS:          0
cpu0_DTLB PREFETCH     ACCESS:          0  HIT:          0  MISS:          0  iACCESS:          0  iHIT:          0  iMISS:          0  dACCESS:          0  dHIT:          0  dMISS:          0  itACCESS:          0  itHIT:          0  itMISS:          0  dtACCESS:          0  dtHIT:          0  dtMISS:          0
cpu0_DTLB WRITE        ACCESS:          0  HIT:          0  MISS:          0  iACCESS:          0  iHIT:          0  iMISS:          0  dACCESS:          0  dHIT:          0  dMISS:          0  itACCESS:          0  itHIT:          0  itMISS:          0  dtACCESS:          0  dtHIT:          0  dtMISS:          0
cpu0_DTLB TRANSLATION  ACCESS:          0  HIT:          0  MISS:          0  iACCESS:          0  iHIT:          0  iMISS:          0  dACCESS:          0  dHIT:          0  dMISS:          0  itACCESS:          0  itHIT:          0  itMISS:          0  dtACCESS:          0  dtHIT:          0  dtMISS:          0
cpu0_DTLB PREFETCH  REQUESTED:          0  ISSUED:          0  CROSSED:          0  USEFUL:          0  USELESS:          0
cpu0_DTLB AVERAGE iMISS LATENCY: 0 cycles
cpu0_DTLB AVERAGE dMISS LATENCY: 24.5268 cycles
cpu0_DTLB AVERAGE itMISS LATENCY: 0 cycles
cpu0_DTLB AVERAGE dtMISS LATENCY: 0 cycles
cpu0_DTLB PAGE CROSSINGS (TLB HIT):         0 
cpu0_DTLB PAGE CROSSINGS (TLB MISS):         0 
cpu0_DTLB AVERAGE MISS LATENCY: 24.5268 cycles
cpu0_STLB TOTAL       ACCESS:    2573930  HIT:    2191626  MISS:     382304  iACCESS:     468457  iHIT:     349899  iMISS:     118558  dACCESS:    2105473  dHIT:    1841727  dMISS:     263746  itACCESS:          0  itHIT:          0  itMISS:          0  dtACCESS:          0  dtHIT:          0  dtMISS:          0
cpu0_STLB LOAD         ACCESS:    2573930  HIT:    2191626  MISS:     382304  iACCESS:     468457  iHIT:     349899  iMISS:     118558  dACCESS:    2105473  dHIT:    1841727  dMISS:     263746  itACCESS:          0  itHIT:          0  itMISS:          0  dtACCESS:          0  dtHIT:          0  dtMISS:          0
cpu0_STLB RFO          ACCESS:          0  HIT:          0  MISS:          0  iACCESS:          0  iHIT:          0  iMISS:          0  dACCESS:          0  dHIT:          0  dMISS:          0  itACCESS:          0  itHIT:          0  itMISS:          0  dtACCESS:          0  dtHIT:          0  dtMISS:          0
cpu0_STLB PREFETCH     ACCESS:          0  HIT:          0  MISS:          0  iACCESS:          0  iHIT:          0  iMISS:          0  dACCESS:          0  dHIT:          0  dMISS:          0  itACCESS:          0  itHIT:          0  itMISS:          0  dtACCESS:          0  dtHIT:          0  dtMISS:          0
cpu0_STLB WRITE        ACCESS:          0  HIT:          0  MISS:          0  iACCESS:          0  iHIT:          0  iMISS:          0  dACCESS:          0  dHIT:          0  dMISS:          0  itACCESS:          0  itHIT:          0  itMISS:          0  dtACCESS:          0  dtHIT:          0  dtMISS:          0
cpu0_STLB TRANSLATION  ACCESS:          0  HIT:          0  MISS:          0  iACCESS:          0  iHIT:          0  iMISS:          0  dACCESS:          0  dHIT:          0  dMISS:          0  itACCESS:          0  itHIT:          0  itMISS:          0  dtACCESS:          0  dtHIT:          0  dtMISS:          0
cpu0_STLB PREFETCH  REQUESTED:          0  ISSUED:          0  CROSSED:          0  USEFUL:          0  USELESS:          0
cpu0_STLB AVERAGE iMISS LATENCY: 50.9952 cycles
cpu0_STLB AVERAGE dMISS LATENCY: 187.459 cycles
cpu0_STLB AVERAGE itMISS LATENCY: 0 cycles
cpu0_STLB AVERAGE dtMISS LATENCY: 0 cycles
cpu0_STLB PAGE CROSSINGS (TLB HIT):         0 
cpu0_STLB PAGE CROSSINGS (TLB MISS):         0 
cpu0_STLB AVERAGE MISS LATENCY: 238.454 cycles
cpu0_L1D TOTAL       ACCESS:   44822511  HIT:   39091424  MISS:    5731087  iACCESS:          0  iHIT:          0  iMISS:          0  dACCESS:   44270421  dHIT:   39057441  dMISS:    5212980  itACCESS:     132601  itHIT:      14475  itMISS:     118126  dtACCESS:     419489  dtHIT:      19508  dtMISS:     399981
cpu0_L1D LOAD         ACCESS:   20221304  HIT:   17887510  MISS:    2333794  iACCESS:          0  iHIT:          0  iMISS:          0  dACCESS:   20221304  dHIT:   17887510  dMISS:    2333794  itACCESS:          0  itHIT:          0  itMISS:          0  dtACCESS:          0  dtHIT:          0  dtMISS:          0
cpu0_L1D RFO          ACCESS:          0  HIT:          0  MISS:          0  iACCESS:          0  iHIT:          0  iMISS:          0  dACCESS:          0  dHIT:          0  dMISS:          0  itACCESS:          0  itHIT:          0  itMISS:          0  dtACCESS:          0  dtHIT:          0  dtMISS:          0
cpu0_L1D PREFETCH     ACCESS:   13899976  HIT:   11591753  MISS:    2308223  iACCESS:          0  iHIT:          0  iMISS:          0  dACCESS:   13899976  dHIT:   11591753  dMISS:    2308223  itACCESS:          0  itHIT:          0  itMISS:          0  dtACCESS:          0  dtHIT:          0  dtMISS:          0
cpu0_L1D WRITE        ACCESS:   10149141  HIT:    9578178  MISS:     570963  iACCESS:          0  iHIT:          0  iMISS:          0  dACCESS:   10149141  dHIT:    9578178  dMISS:     570963  itACCESS:          0  itHIT:          0  itMISS:          0  dtACCESS:          0  dtHIT:          0  dtMISS:          0
cpu0_L1D TRANSLATION  ACCESS:     552090  HIT:      33983  MISS:     518107  iACCESS:          0  iHIT:          0  iMISS:          0  dACCESS:          0  dHIT:          0  dMISS:          0  itACCESS:     132601  itHIT:      14475  itMISS:     118126  dtACCESS:     419489  dtHIT:      19508  dtMISS:     399981
cpu0_L1D PREFETCH  REQUESTED:   20221304  ISSUED:   18406930  CROSSED:          0  USEFUL:     359522  USELESS:     926727
cpu0_L1D AVERAGE iMISS LATENCY: 0 cycles
cpu0_L1D AVERAGE dMISS LATENCY: 49.9407 cycles
cpu0_L1D AVERAGE itMISS LATENCY: 3.21244 cycles
cpu0_L1D AVERAGE dtMISS LATENCY: 11.7167 cycles
cpu0_L1D PAGE CROSSINGS (TLB HIT):         0 
cpu0_L1D PAGE CROSSINGS (TLB MISS):         0 
cpu0_L1D AVERAGE MISS LATENCY: 64.8699 cycles
cpu0_L2C TOTAL       ACCESS:    8622428  HIT:    4042042  MISS:    4580386  iACCESS:    3779914  iHIT:    2225375  iMISS:    1554539  dACCESS:    4352287  dHIT:    1748713  dMISS:    2603574  itACCESS:     117402  itHIT:      23085  itMISS:      94317  dtACCESS:     372825  dtHIT:      44869  dtMISS:     327956
cpu0_L2C LOAD         ACCESS:    2040742  HIT:     956548  MISS:    1084194  iACCESS:     844411  iHIT:     517764  iMISS:     326647  dACCESS:    1196331  dHIT:     438784  dMISS:     757547  itACCESS:          0  itHIT:          0  itMISS:          0  dtACCESS:          0  dtHIT:          0  dtMISS:          0
cpu0_L2C RFO          ACCESS:     219482  HIT:      79657  MISS:     139825  iACCESS:          0  iHIT:          0  iMISS:          0  dACCESS:     219482  dHIT:      79657  dMISS:     139825  itACCESS:          0  itHIT:          0  itMISS:          0  dtACCESS:          0  dtHIT:          0  dtMISS:          0
cpu0_L2C PREFETCH     ACCESS:    5526327  HIT:    2612579  MISS:    2913748  iACCESS:    2935503  iHIT:    1707611  iMISS:    1227892  dACCESS:    2590824  dHIT:     904968  dMISS:    1685856  itACCESS:          0  itHIT:          0  itMISS:          0  dtACCESS:          0  dtHIT:          0  dtMISS:          0
cpu0_L2C WRITE        ACCESS:     345650  HIT:     325304  MISS:      20346  iACCESS:          0  iHIT:          0  iMISS:          0  dACCESS:     345650  dHIT:     325304  dMISS:      20346  itACCESS:          0  itHIT:          0  itMISS:          0  dtACCESS:          0  dtHIT:          0  dtMISS:          0
cpu0_L2C TRANSLATION  ACCESS:     490227  HIT:      67954  MISS:     422273  iACCESS:          0  iHIT:          0  iMISS:          0  dACCESS:          0  dHIT:          0  dMISS:          0  itACCESS:     117402  itHIT:      23085  itMISS:      94317  dtACCESS:     372825  dtHIT:      44869  dtMISS:     327956
cpu0_L2C PREFETCH  REQUESTED:    1548076  ISSUED:    1548075  CROSSED:          0  USEFUL:     361365  USELESS:     334850
cpu0_L2C AVERAGE iMISS LATENCY: 39.6186 cycles
cpu0_L2C AVERAGE dMISS LATENCY: 77.8462 cycles
cpu0_L2C AVERAGE itMISS LATENCY: 3.76746 cycles
cpu0_L2C AVERAGE dtMISS LATENCY: 13.8515 cycles
cpu0_L2C PAGE CROSSINGS (TLB HIT):         0 
cpu0_L2C PAGE CROSSINGS (TLB MISS):         0 
cpu0_L2C AVERAGE MISS LATENCY: 135.084 cycles
LLC TOTAL       ACCESS:    4552879  HIT:    1450951  MISS:    3101928  iACCESS:    1461833  iHIT:     497018  iMISS:     964815  dACCESS:    2668773  dHIT:     911211  dMISS:    1757562  itACCESS:      94317  itHIT:       8397  itMISS:      85920  dtACCESS:     327956  dtHIT:      34325  dtMISS:     293631
LLC LOAD         ACCESS:    1077170  HIT:     362718  MISS:     714452  iACCESS:     325453  iHIT:     117146  iMISS:     208307  dACCESS:     751717  dHIT:     245572  dMISS:     506145  itACCESS:          0  itHIT:          0  itMISS:          0  dtACCESS:          0  dtHIT:          0  dtMISS:          0
LLC RFO          ACCESS:     139819  HIT:      43869  MISS:      95950  iACCESS:          0  iHIT:          0  iMISS:          0  dACCESS:     139819  dHIT:      43869  dMISS:      95950  itACCESS:          0  itHIT:          0  itMISS:          0  dtACCESS:          0  dtHIT:          0  dtMISS:          0
LLC PREFETCH     ACCESS:    2695989  HIT:     793787  MISS:    1902202  iACCESS:    1136380  iHIT:     379872  iMISS:     756508  dACCESS:    1559609  dHIT:     413915  dMISS:    1145694  itACCESS:          0  itHIT:          0  itMISS:          0  dtACCESS:          0  dtHIT:          0  dtMISS:          0
LLC WRITE        ACCESS:     217628  HIT:     207855  MISS:       9773  iACCESS:          0  iHIT:          0  iMISS:          0  dACCESS:     217628  dHIT:     207855  dMISS:       9773  itACCESS:          0  itHIT:          0  itMISS:          0  dtACCESS:          0  dtHIT:          0  dtMISS:          0
LLC TRANSLATION  ACCESS:     422273  HIT:      42722  MISS:     379551  iACCESS:          0  iHIT:          0  iMISS:          0  dACCESS:          0  dHIT:          0  dMISS:          0  itACCESS:      94317  itHIT:       8397  itMISS:      85920  dtACCESS:     327956  dtHIT:      34325  dtMISS:     293631
LLC PREFETCH  REQUESTED:          0  ISSUED:          0  CROSSED:          0  USEFUL:          0  USELESS:          0
LLC AVERAGE iMISS LATENCY: 49.2276 cycles
LLC AVERAGE dMISS LATENCY: 100.402 cycles
LLC AVERAGE itMISS LATENCY: 4.96031 cycles
LLC AVERAGE dtMISS LATENCY: 18.3634 cycles
LLC PAGE CROSSINGS (TLB HIT):         0 
LLC PAGE CROSSINGS (TLB MISS):         0 
LLC AVERAGE MISS LATENCY: 172.953 cycles

PageTableWalker TOTAL       ACCESS:     195971  
PageTableWalker AVERAGE LATENCY: 6.26089 cycles
PageTableWalker TOTAL LATENCY: 1226952 cycles

DRAM Statistics
Channel 0
 RQ ROW_BUFFER_HIT:     646027
  ROW_BUFFER_MISS:    2425718
 AVG DBUS CONGESTED CYCLE:    3.65243
 WQ ROW_BUFFER_HIT:      66610
  ROW_BUFFER_MISS:      57004  FULL:          0

