last_page:0x200000000000000
VMEM_RES_CAP:0x100000
PAGE_SIZE:4096
LOG2_PAGE_SIZE:12
LOG2_PAGE_TABLE_SIZE:9
page_table_levels:5
WARNING: physical memory size is smaller than virtual memory size
FDiP enabled with aggresivity 16

*** ChampSim Multicore Out-of-Order Simulator ***

Warmup Instructions: 50000000
Simulation Instructions: 100000000
Number of CPUs: 1
Small page size: 4096
Large page size: 2097152

CPU 0 Bimodal branch predictor
Basic BTB sets: 1024 ways: 8 indirect buffer size: 4096 RAS size: 64
Instruction page size distrubution: 0
Loading instruction page size distribution from /home/bsc/bsc018186/scratch/itp_asplos25_AE/dump/smt_srv85_ap_srv551_ap_1024i.pdst
Data page size distrubution: 0
Loading data page size distribution from /home/bsc/bsc018186/scratch/itp_asplos25_AE/dump/smt_srv85_ap_srv551_ap_1024i.pdst
cpu0_L2C IP-based stride prefetcher
cpu0_L2C is using xPTP/LRU
	TLB_LOWER_STRESS_THRESHOLD:1
	TLB_UPPER_STRESS_THRESHOLD:4
	MIN_EVICTION_POSITION:4
cpu0_L1D next line prefetcher
cpu0_STLB using iTP with max lru@8
cpu0_STLB using iTP with instr@0 and data@2
Init sat counter with 3 bits (max:50).
cpu0_L1I next line prefetcher
Off-chip DRAM Size: 4 GiB Channels: 1 Width: 64-bit Data Rate: 3200 MT/s
Heartbeat CPU 0 instructions: 10000000 cycles: 2500313 heartbeat IPC: 3.9995 cumulative IPC: 3.9995 (Simulation time: 0 hr 0 min 37 sec) 
Heartbeat CPU 0 instructions: 20000003 cycles: 5000426 heartbeat IPC: 3.99983 cumulative IPC: 3.99966 (Simulation time: 0 hr 1 min 16 sec) 
Heartbeat CPU 0 instructions: 30000001 cycles: 7500513 heartbeat IPC: 3.99987 cumulative IPC: 3.99973 (Simulation time: 0 hr 1 min 55 sec) 
Heartbeat CPU 0 instructions: 40000000 cycles: 10000658 heartbeat IPC: 3.99977 cumulative IPC: 3.99974 (Simulation time: 0 hr 2 min 35 sec) 
Heartbeat CPU 0 instructions: 50000000 cycles: 12500891 heartbeat IPC: 3.99963 cumulative IPC: 3.99972 (Simulation time: 0 hr 3 min 14 sec) 
Warmup finished CPU 0 instructions: 50000000 cycles: 12500892 cumulative IPC: 3.99972 (Simulation time: 0 hr 3 min 14 sec) 

Warmup complete CPU 0 instructions: 50000000 cycles: 12500892 (Simulation time: 0 hr 3 min 14 sec) 

Heartbeat CPU 0 instructions: 60000000 cycles: 39961499 heartbeat IPC: 0.364158 cumulative IPC: 0.364159 (Simulation time: 0 hr 4 min 34 sec) 
Heartbeat CPU 0 instructions: 70000000 cycles: 68351832 heartbeat IPC: 0.352233 cumulative IPC: 0.358097 (Simulation time: 0 hr 5 min 54 sec) 
Heartbeat CPU 0 instructions: 80000003 cycles: 95836530 heartbeat IPC: 0.363839 cumulative IPC: 0.359991 (Simulation time: 0 hr 7 min 14 sec) 
Heartbeat CPU 0 instructions: 90000002 cycles: 123557167 heartbeat IPC: 0.360743 cumulative IPC: 0.360178 (Simulation time: 0 hr 8 min 35 sec) 
Heartbeat CPU 0 instructions: 100000000 cycles: 151663363 heartbeat IPC: 0.355794 cumulative IPC: 0.359293 (Simulation time: 0 hr 9 min 56 sec) 
Heartbeat CPU 0 instructions: 110000000 cycles: 178701143 heartbeat IPC: 0.369853 cumulative IPC: 0.361011 (Simulation time: 0 hr 11 min 16 sec) 
Heartbeat CPU 0 instructions: 120000001 cycles: 202448301 heartbeat IPC: 0.421104 cumulative IPC: 0.368524 (Simulation time: 0 hr 12 min 33 sec) 
Heartbeat CPU 0 instructions: 130000001 cycles: 219183193 heartbeat IPC: 0.597554 cumulative IPC: 0.387068 (Simulation time: 0 hr 13 min 43 sec) 
Heartbeat CPU 0 instructions: 140000003 cycles: 236280326 heartbeat IPC: 0.584894 cumulative IPC: 0.402182 (Simulation time: 0 hr 14 min 52 sec) 
Heartbeat CPU 0 instructions: 150000000 cycles: 265523622 heartbeat IPC: 0.341959 cumulative IPC: 0.395222 (Simulation time: 0 hr 16 min 16 sec) 
Simulation finished CPU 0 instructions: 100000000 cycles: 253022731 cumulative IPC: 0.395222 (Simulation time: 0 hr 16 min 16 sec) 

Simulation complete CPU 0 instructions: 100000000 cycles: 253022731 (Simulation time: 0 hr 16 min 16 sec) 


ChampSim completed all CPUs

Saving instructions large page distribution to /home/bsc/bsc018186/scratch/itp_asplos25_AE/dump/smt_srv85_ap_srv551_ap_1024i.pdst...
Saving data large page distribution to /home/bsc/bsc018186/scratch/itp_asplos25_AE/dump/smt_srv85_ap_srv551_ap_1024i.pdst...
=== Simulation ===
CPU 0 runs /gpfs/projects/bsc18/MN4/bsc18/romol/ChampSim/traces/qualcomm_srv/smt_srv85_ap_srv551_ap_1024i.champsimtrace.xz

Region of Interest Statistics

CPU 0 cumulative IPC: 0.395222 instructions: 100000000 cycles: 253022731
CPU 0 Branch Prediction Accuracy: 77.8805% MPKI: 42.6554 Average ROB Occupancy at Mispredict: 11.47
Branch type MPKI
BRANCH_DIRECT_JUMP: 1.24168
BRANCH_INDIRECT: 23.0029
BRANCH_CONDITIONAL: 11.689
BRANCH_DIRECT_CALL: 2.35969
BRANCH_INDIRECT_CALL: 1.06194
BRANCH_RETURN: 3.30025

Instructions large pages: 0
Instructions small pages: 10447
Large page distribution for instructions: 0%

Data large pages: 0
Data small pages: 8982
Large page distribution for data: 0%

cpu0_L1I TOTAL       ACCESS:   39911800  HIT:   31940249  MISS:    7971551  iACCESS:   39911800  iHIT:   31940249  iMISS:    7971551  dACCESS:          0  dHIT:          0  dMISS:          0  itACCESS:          0  itHIT:          0  itMISS:          0  dtACCESS:          0  dtHIT:          0  dtMISS:          0
cpu0_L1I LOAD         ACCESS:   11399061  HIT:    9230778  MISS:    2168283  iACCESS:   11399061  iHIT:    9230778  iMISS:    2168283  dACCESS:          0  dHIT:          0  dMISS:          0  itACCESS:          0  itHIT:          0  itMISS:          0  dtACCESS:          0  dtHIT:          0  dtMISS:          0
cpu0_L1I RFO          ACCESS:          0  HIT:          0  MISS:          0  iACCESS:          0  iHIT:          0  iMISS:          0  dACCESS:          0  dHIT:          0  dMISS:          0  itACCESS:          0  itHIT:          0  itMISS:          0  dtACCESS:          0  dtHIT:          0  dtMISS:          0
cpu0_L1I PREFETCH     ACCESS:   28512739  HIT:   22709471  MISS:    5803268  iACCESS:   28512739  iHIT:   22709471  iMISS:    5803268  dACCESS:          0  dHIT:          0  dMISS:          0  itACCESS:          0  itHIT:          0  itMISS:          0  dtACCESS:          0  dtHIT:          0  dtMISS:          0
cpu0_L1I WRITE        ACCESS:          0  HIT:          0  MISS:          0  iACCESS:          0  iHIT:          0  iMISS:          0  dACCESS:          0  dHIT:          0  dMISS:          0  itACCESS:          0  itHIT:          0  itMISS:          0  dtACCESS:          0  dtHIT:          0  dtMISS:          0
cpu0_L1I TRANSLATION  ACCESS:          0  HIT:          0  MISS:          0  iACCESS:          0  iHIT:          0  iMISS:          0  dACCESS:          0  dHIT:          0  dMISS:          0  itACCESS:          0  itHIT:          0  itMISS:          0  dtACCESS:          0  dtHIT:          0  dtMISS:          0
cpu0_L1I PREFETCH  REQUESTED:   31122807  ISSUED:   31122611  CROSSED:          0  USEFUL:    1974243  USELESS:     685212
cpu0_L1I AVERAGE iMISS LATENCY: 22.7091 cycles
cpu0_L1I AVERAGE dMISS LATENCY: 0 cycles
cpu0_L1I AVERAGE itMISS LATENCY: 0 cycles
cpu0_L1I AVERAGE dtMISS LATENCY: 0 cycles
cpu0_L1I PAGE CROSSINGS (TLB HIT):         0 
cpu0_L1I PAGE CROSSINGS (TLB MISS):         0 
cpu0_L1I AVERAGE MISS LATENCY: 22.7091 cycles
cpu0_ITLB TOTAL       ACCESS:   33506216  HIT:   31525588  MISS:    1980628  iACCESS:   33506216  iHIT:   31525588  iMISS:    1980628  dACCESS:          0  dHIT:          0  dMISS:          0  itACCESS:          0  itHIT:          0  itMISS:          0  dtACCESS:          0  dtHIT:          0  dtMISS:          0
cpu0_ITLB LOAD         ACCESS:   33506216  HIT:   31525588  MISS:    1980628  iACCESS:   33506216  iHIT:   31525588  iMISS:    1980628  dACCESS:          0  dHIT:          0  dMISS:          0  itACCESS:          0  itHIT:          0  itMISS:          0  dtACCESS:          0  dtHIT:          0  dtMISS:          0
cpu0_ITLB RFO          ACCESS:          0  HIT:          0  MISS:          0  iACCESS:          0  iHIT:          0  iMISS:          0  dACCESS:          0  dHIT:          0  dMISS:          0  itACCESS:          0  itHIT:          0  itMISS:          0  dtACCESS:          0  dtHIT:          0  dtMISS:          0
cpu0_ITLB PREFETCH     ACCESS:          0  HIT:          0  MISS:          0  iACCESS:          0  iHIT:          0  iMISS:          0  dACCESS:          0  dHIT:          0  dMISS:          0  itACCESS:          0  itHIT:          0  itMISS:          0  dtACCESS:          0  dtHIT:          0  dtMISS:          0
cpu0_ITLB WRITE        ACCESS:          0  HIT:          0  MISS:          0  iACCESS:          0  iHIT:          0  iMISS:          0  dACCESS:          0  dHIT:          0  dMISS:          0  itACCESS:          0  itHIT:          0  itMISS:          0  dtACCESS:          0  dtHIT:          0  dtMISS:          0
cpu0_ITLB TRANSLATION  ACCESS:          0  HIT:          0  MISS:          0  iACCESS:          0  iHIT:          0  iMISS:          0  dACCESS:          0  dHIT:          0  dMISS:          0  itACCESS:          0  itHIT:          0  itMISS:          0  dtACCESS:          0  dtHIT:          0  dtMISS:          0
cpu0_ITLB PREFETCH  REQUESTED:          0  ISSUED:          0  CROSSED:          0  USEFUL:     347725  USELESS:      71126
cpu0_ITLB AVERAGE iMISS LATENCY: 6.05743 cycles
cpu0_ITLB AVERAGE dMISS LATENCY: 0 cycles
cpu0_ITLB AVERAGE itMISS LATENCY: 0 cycles
cpu0_ITLB AVERAGE dtMISS LATENCY: 0 cycles
cpu0_ITLB PAGE CROSSINGS (TLB HIT):         0 
cpu0_ITLB PAGE CROSSINGS (TLB MISS):         0 
cpu0_ITLB AVERAGE MISS LATENCY: 6.05743 cycles
cpu0_DTLB TOTAL       ACCESS:   30786725  HIT:   24683184  MISS:    6103541  iACCESS:          0  iHIT:          0  iMISS:          0  dACCESS:   30786725  dHIT:   24683184  dMISS:    6103541  itACCESS:          0  itHIT:          0  itMISS:          0  dtACCESS:          0  dtHIT:          0  dtMISS:          0
cpu0_DTLB LOAD         ACCESS:   30786725  HIT:   24683184  MISS:    6103541  iACCESS:          0  iHIT:          0  iMISS:          0  dACCESS:   30786725  dHIT:   24683184  dMISS:    6103541  itACCESS:          0  itHIT:          0  itMISS:          0  dtACCESS:          0  dtHIT:          0  dtMISS:          0
cpu0_DTLB RFO          ACCESS:          0  HIT:          0  MISS:          0  iACCESS:          0  iHIT:          0  iMISS:          0  dACCESS:          0  dHIT:          0  dMISS:          0  itACCESS:          0  itHIT:          0  itMISS:          0  dtACCESS:          0  dtHIT:          0  dtMISS:          0
cpu0_DTLB PREFETCH     ACCESS:          0  HIT:          0  MISS:          0  iACCESS:          0  iHIT:          0  iMISS:          0  dACCESS:          0  dHIT:          0  dMISS:          0  itACCESS:          0  itHIT:          0  itMISS:          0  dtACCESS:          0  dtHIT:          0  dtMISS:          0
cpu0_DTLB WRITE        ACCESS:          0  HIT:          0  MISS:          0  iACCESS:          0  iHIT:          0  iMISS:          0  dACCESS:          0  dHIT:          0  dMISS:          0  itACCESS:          0  itHIT:          0  itMISS:          0  dtACCESS:          0  dtHIT:          0  dtMISS:          0
cpu0_DTLB TRANSLATION  ACCESS:          0  HIT:          0  MISS:          0  iACCESS:          0  iHIT:          0  iMISS:          0  dACCESS:          0  dHIT:          0  dMISS:          0  itACCESS:          0  itHIT:          0  itMISS:          0  dtACCESS:          0  dtHIT:          0  dtMISS:          0
cpu0_DTLB PREFETCH  REQUESTED:          0  ISSUED:          0  CROSSED:          0  USEFUL:          0  USELESS:          0
cpu0_DTLB AVERAGE iMISS LATENCY: 0 cycles
cpu0_DTLB AVERAGE dMISS LATENCY: 11.7316 cycles
cpu0_DTLB AVERAGE itMISS LATENCY: 0 cycles
cpu0_DTLB AVERAGE dtMISS LATENCY: 0 cycles
cpu0_DTLB PAGE CROSSINGS (TLB HIT):         0 
cpu0_DTLB PAGE CROSSINGS (TLB MISS):         0 
cpu0_DTLB AVERAGE MISS LATENCY: 11.7316 cycles
cpu0_STLB TOTAL       ACCESS:    3691362  HIT:    3361225  MISS:     330137  iACCESS:     418864  iHIT:     364767  iMISS:      54097  dACCESS:    3272498  dHIT:    2996458  dMISS:     276040  itACCESS:          0  itHIT:          0  itMISS:          0  dtACCESS:          0  dtHIT:          0  dtMISS:          0
cpu0_STLB LOAD         ACCESS:    3691362  HIT:    3361225  MISS:     330137  iACCESS:     418864  iHIT:     364767  iMISS:      54097  dACCESS:    3272498  dHIT:    2996458  dMISS:     276040  itACCESS:          0  itHIT:          0  itMISS:          0  dtACCESS:          0  dtHIT:          0  dtMISS:          0
cpu0_STLB RFO          ACCESS:          0  HIT:          0  MISS:          0  iACCESS:          0  iHIT:          0  iMISS:          0  dACCESS:          0  dHIT:          0  dMISS:          0  itACCESS:          0  itHIT:          0  itMISS:          0  dtACCESS:          0  dtHIT:          0  dtMISS:          0
cpu0_STLB PREFETCH     ACCESS:          0  HIT:          0  MISS:          0  iACCESS:          0  iHIT:          0  iMISS:          0  dACCESS:          0  dHIT:          0  dMISS:          0  itACCESS:          0  itHIT:          0  itMISS:          0  dtACCESS:          0  dtHIT:          0  dtMISS:          0
cpu0_STLB WRITE        ACCESS:          0  HIT:          0  MISS:          0  iACCESS:          0  iHIT:          0  iMISS:          0  dACCESS:          0  dHIT:          0  dMISS:          0  itACCESS:          0  itHIT:          0  itMISS:          0  dtACCESS:          0  dtHIT:          0  dtMISS:          0
cpu0_STLB TRANSLATION  ACCESS:          0  HIT:          0  MISS:          0  iACCESS:          0  iHIT:          0  iMISS:          0  dACCESS:          0  dHIT:          0  dMISS:          0  itACCESS:          0  itHIT:          0  itMISS:          0  dtACCESS:          0  dtHIT:          0  dtMISS:          0
cpu0_STLB PREFETCH  REQUESTED:          0  ISSUED:          0  CROSSED:          0  USEFUL:          0  USELESS:          0
cpu0_STLB AVERAGE iMISS LATENCY: 26.3542 cycles
cpu0_STLB AVERAGE dMISS LATENCY: 136.609 cycles
cpu0_STLB AVERAGE itMISS LATENCY: 0 cycles
cpu0_STLB AVERAGE dtMISS LATENCY: 0 cycles
cpu0_STLB PAGE CROSSINGS (TLB HIT):         0 
cpu0_STLB PAGE CROSSINGS (TLB MISS):         0 
cpu0_STLB AVERAGE MISS LATENCY: 162.963 cycles
cpu0_L1D TOTAL       ACCESS:   49087415  HIT:   39657395  MISS:    9430020  iACCESS:          0  iHIT:          0  iMISS:          0  dACCESS:   48582475  dHIT:   39633250  dMISS:    8949225  itACCESS:      63314  itHIT:       4627  itMISS:      58687  dtACCESS:     441626  dtHIT:      19518  dtMISS:     422108
cpu0_L1D LOAD         ACCESS:   23388736  HIT:   18417552  MISS:    4971184  iACCESS:          0  iHIT:          0  iMISS:          0  dACCESS:   23388736  dHIT:   18417552  dMISS:    4971184  itACCESS:          0  itHIT:          0  itMISS:          0  dtACCESS:          0  dtHIT:          0  dtMISS:          0
cpu0_L1D RFO          ACCESS:          0  HIT:          0  MISS:          0  iACCESS:          0  iHIT:          0  iMISS:          0  dACCESS:          0  dHIT:          0  dMISS:          0  itACCESS:          0  itHIT:          0  itMISS:          0  dtACCESS:          0  dtHIT:          0  dtMISS:          0
cpu0_L1D PREFETCH     ACCESS:   15409628  HIT:   12023153  MISS:    3386475  iACCESS:          0  iHIT:          0  iMISS:          0  dACCESS:   15409628  dHIT:   12023153  dMISS:    3386475  itACCESS:          0  itHIT:          0  itMISS:          0  dtACCESS:          0  dtHIT:          0  dtMISS:          0
cpu0_L1D WRITE        ACCESS:    9784111  HIT:    9192545  MISS:     591566  iACCESS:          0  iHIT:          0  iMISS:          0  dACCESS:    9784111  dHIT:    9192545  dMISS:     591566  itACCESS:          0  itHIT:          0  itMISS:          0  dtACCESS:          0  dtHIT:          0  dtMISS:          0
cpu0_L1D TRANSLATION  ACCESS:     504940  HIT:      24145  MISS:     480795  iACCESS:          0  iHIT:          0  iMISS:          0  dACCESS:          0  dHIT:          0  dMISS:          0  itACCESS:      63314  itHIT:       4627  itMISS:      58687  dtACCESS:     441626  dtHIT:      19518  dtMISS:     422108
cpu0_L1D PREFETCH  REQUESTED:   23388736  ISSUED:   18869677  CROSSED:          0  USEFUL:     328057  USELESS:    1057214
cpu0_L1D AVERAGE iMISS LATENCY: 0 cycles
cpu0_L1D AVERAGE dMISS LATENCY: 30.5634 cycles
cpu0_L1D AVERAGE itMISS LATENCY: 0.861634 cycles
cpu0_L1D AVERAGE dtMISS LATENCY: 4.30895 cycles
cpu0_L1D PAGE CROSSINGS (TLB HIT):         0 
cpu0_L1D PAGE CROSSINGS (TLB MISS):         0 
cpu0_L1D AVERAGE MISS LATENCY: 35.734 cycles
cpu0_L2C TOTAL       ACCESS:    9794481  HIT:    3148939  MISS:    6645542  iACCESS:    3372430  iHIT:    1236585  iMISS:    2135845  dACCESS:    5971878  dHIT:    1717961  dMISS:    4253917  itACCESS:      58296  itHIT:      12668  itMISS:      45628  dtACCESS:     391877  dtHIT:     181725  dtMISS:     210152
cpu0_L2C LOAD         ACCESS:    3611964  HIT:    1201814  MISS:    2410150  iACCESS:     744392  iHIT:     241082  iMISS:     503310  dACCESS:    2867572  dHIT:     960732  dMISS:    1906840  itACCESS:          0  itHIT:          0  itMISS:          0  dtACCESS:          0  dtHIT:          0  dtMISS:          0
cpu0_L2C RFO          ACCESS:     225910  HIT:      48337  MISS:     177573  iACCESS:          0  iHIT:          0  iMISS:          0  dACCESS:     225910  dHIT:      48337  dMISS:     177573  itACCESS:          0  itHIT:          0  itMISS:          0  dtACCESS:          0  dtHIT:          0  dtMISS:          0
cpu0_L2C PREFETCH     ACCESS:    5181371  HIT:    1573855  MISS:    3607516  iACCESS:    2628038  iHIT:     995503  iMISS:    1632535  dACCESS:    2553333  dHIT:     578352  dMISS:    1974981  itACCESS:          0  itHIT:          0  itMISS:          0  dtACCESS:          0  dtHIT:          0  dtMISS:          0
cpu0_L2C WRITE        ACCESS:     325063  HIT:     130540  MISS:     194523  iACCESS:          0  iHIT:          0  iMISS:          0  dACCESS:     325063  dHIT:     130540  dMISS:     194523  itACCESS:          0  itHIT:          0  itMISS:          0  dtACCESS:          0  dtHIT:          0  dtMISS:          0
cpu0_L2C TRANSLATION  ACCESS:     450173  HIT:     194393  MISS:     255780  iACCESS:          0  iHIT:          0  iMISS:          0  dACCESS:          0  dHIT:          0  dMISS:          0  itACCESS:      58296  itHIT:      12668  itMISS:      45628  dtACCESS:     391877  dtHIT:     181725  dtMISS:     210152
cpu0_L2C PREFETCH  REQUESTED:    1381003  ISSUED:    1380983  CROSSED:          0  USEFUL:     337917  USELESS:     394540
cpu0_L2C AVERAGE iMISS LATENCY: 22.9674 cycles
cpu0_L2C AVERAGE dMISS LATENCY: 48.4083 cycles
cpu0_L2C AVERAGE itMISS LATENCY: 1.13658 cycles
cpu0_L2C AVERAGE dtMISS LATENCY: 5.54935 cycles
cpu0_L2C PAGE CROSSINGS (TLB HIT):         0 
cpu0_L2C PAGE CROSSINGS (TLB MISS):         0 
cpu0_L2C AVERAGE MISS LATENCY: 78.0616 cycles
LLC TOTAL       ACCESS:    6512861  HIT:    4193999  MISS:    2318862  iACCESS:    2057838  iHIT:    1342357  iMISS:     715481  dACCESS:    4199243  dHIT:    2805225  dMISS:    1394018  itACCESS:      45628  itHIT:       8303  itMISS:      37325  dtACCESS:     210152  dtHIT:      38114  dtMISS:     172038
LLC LOAD         ACCESS:    2402969  HIT:    1847501  MISS:     555468  iACCESS:     502140  iHIT:     353468  iMISS:     148672  dACCESS:    1900829  dHIT:    1494033  dMISS:     406796  itACCESS:          0  itHIT:          0  itMISS:          0  dtACCESS:          0  dtHIT:          0  dtMISS:          0
LLC RFO          ACCESS:     177555  HIT:      98036  MISS:      79519  iACCESS:          0  iHIT:          0  iMISS:          0  dACCESS:     177555  dHIT:      98036  dMISS:      79519  itACCESS:          0  itHIT:          0  itMISS:          0  dtACCESS:          0  dtHIT:          0  dtMISS:          0
LLC PREFETCH     ACCESS:    3423142  HIT:    1952615  MISS:    1470527  iACCESS:    1555698  iHIT:     988889  iMISS:     566809  dACCESS:    1867444  dHIT:     963726  dMISS:     903718  itACCESS:          0  itHIT:          0  itMISS:          0  dtACCESS:          0  dtHIT:          0  dtMISS:          0
LLC WRITE        ACCESS:     253415  HIT:     249430  MISS:       3985  iACCESS:          0  iHIT:          0  iMISS:          0  dACCESS:     253415  dHIT:     249430  dMISS:       3985  itACCESS:          0  itHIT:          0  itMISS:          0  dtACCESS:          0  dtHIT:          0  dtMISS:          0
LLC TRANSLATION  ACCESS:     255780  HIT:      46417  MISS:     209363  iACCESS:          0  iHIT:          0  iMISS:          0  dACCESS:          0  dHIT:          0  dMISS:          0  itACCESS:      45628  itHIT:       8303  itMISS:      37325  dtACCESS:     210152  dtHIT:      38114  dtMISS:     172038
LLC PREFETCH  REQUESTED:          0  ISSUED:          0  CROSSED:          0  USEFUL:          0  USELESS:          0
LLC AVERAGE iMISS LATENCY: 48.5643 cycles
LLC AVERAGE dMISS LATENCY: 106.55 cycles
LLC AVERAGE itMISS LATENCY: 2.86879 cycles
LLC AVERAGE dtMISS LATENCY: 14.1147 cycles
LLC PAGE CROSSINGS (TLB HIT):         0 
LLC PAGE CROSSINGS (TLB MISS):         0 
LLC AVERAGE MISS LATENCY: 172.098 cycles

PageTableWalker TOTAL       ACCESS:     190978  
PageTableWalker AVERAGE LATENCY: 6.04907 cycles
PageTableWalker TOTAL LATENCY: 1155238 cycles

DRAM Statistics
Channel 0
 RQ ROW_BUFFER_HIT:     510113
  ROW_BUFFER_MISS:    1788549
 AVG DBUS CONGESTED CYCLE:    3.65414
 WQ ROW_BUFFER_HIT:      58517
  ROW_BUFFER_MISS:      57437  FULL:          0

