last_page:0x200000000000000
VMEM_RES_CAP:0x100000
PAGE_SIZE:4096
LOG2_PAGE_SIZE:12
LOG2_PAGE_TABLE_SIZE:9
page_table_levels:5
WARNING: physical memory size is smaller than virtual memory size
FDiP enabled with aggresivity 16

*** ChampSim Multicore Out-of-Order Simulator ***

Warmup Instructions: 50000000
Simulation Instructions: 100000000
Number of CPUs: 1
Small page size: 4096
Large page size: 2097152

CPU 0 Bimodal branch predictor
Basic BTB sets: 1024 ways: 8 indirect buffer size: 4096 RAS size: 64
Instruction page size distrubution: 0
Loading instruction page size distribution from /home/bsc/bsc018186/scratch/itp_asplos25_AE/dump/smt_srv85_ap_srv194_ap_1024i.pdst
Data page size distrubution: 0
Loading data page size distribution from /home/bsc/bsc018186/scratch/itp_asplos25_AE/dump/smt_srv85_ap_srv194_ap_1024i.pdst
cpu0_L2C IP-based stride prefetcher
cpu0_L2C is using xPTP/LRU
	TLB_LOWER_STRESS_THRESHOLD:1
	TLB_UPPER_STRESS_THRESHOLD:4
	MIN_EVICTION_POSITION:4
cpu0_L1D next line prefetcher
cpu0_STLB using iTP with max lru@8
cpu0_STLB using iTP with instr@0 and data@2
Init sat counter with 3 bits (max:50).
cpu0_L1I next line prefetcher
Off-chip DRAM Size: 4 GiB Channels: 1 Width: 64-bit Data Rate: 3200 MT/s
Heartbeat CPU 0 instructions: 10000002 cycles: 2500202 heartbeat IPC: 3.99968 cumulative IPC: 3.99968 (Simulation time: 0 hr 0 min 37 sec) 
Heartbeat CPU 0 instructions: 20000001 cycles: 5000426 heartbeat IPC: 3.99965 cumulative IPC: 3.99966 (Simulation time: 0 hr 1 min 16 sec) 
Heartbeat CPU 0 instructions: 30000000 cycles: 7500654 heartbeat IPC: 3.99964 cumulative IPC: 3.99966 (Simulation time: 0 hr 1 min 55 sec) 
Heartbeat CPU 0 instructions: 40000001 cycles: 10001324 heartbeat IPC: 3.99893 cumulative IPC: 3.99948 (Simulation time: 0 hr 2 min 35 sec) 
Heartbeat CPU 0 instructions: 50000001 cycles: 12576277 heartbeat IPC: 3.88357 cumulative IPC: 3.97574 (Simulation time: 0 hr 3 min 14 sec) 
Warmup finished CPU 0 instructions: 50000001 cycles: 12576278 cumulative IPC: 3.97574 (Simulation time: 0 hr 3 min 14 sec) 

Warmup complete CPU 0 instructions: 50000001 cycles: 12576278 (Simulation time: 0 hr 3 min 14 sec) 

Heartbeat CPU 0 instructions: 60000004 cycles: 27409167 heartbeat IPC: 0.674178 cumulative IPC: 0.674178 (Simulation time: 0 hr 4 min 19 sec) 
Heartbeat CPU 0 instructions: 70000002 cycles: 47334870 heartbeat IPC: 0.501865 cumulative IPC: 0.575398 (Simulation time: 0 hr 5 min 30 sec) 
Heartbeat CPU 0 instructions: 80000002 cycles: 76843888 heartbeat IPC: 0.33888 cumulative IPC: 0.466799 (Simulation time: 0 hr 6 min 52 sec) 
Heartbeat CPU 0 instructions: 90000002 cycles: 106087337 heartbeat IPC: 0.341957 cumulative IPC: 0.427757 (Simulation time: 0 hr 8 min 15 sec) 
Heartbeat CPU 0 instructions: 100000000 cycles: 135512831 heartbeat IPC: 0.339842 cumulative IPC: 0.406714 (Simulation time: 0 hr 9 min 38 sec) 
Heartbeat CPU 0 instructions: 110000000 cycles: 163957450 heartbeat IPC: 0.351561 cumulative IPC: 0.396351 (Simulation time: 0 hr 11 min 0 sec) 
Heartbeat CPU 0 instructions: 120000003 cycles: 193875259 heartbeat IPC: 0.33425 cumulative IPC: 0.386103 (Simulation time: 0 hr 12 min 24 sec) 
Heartbeat CPU 0 instructions: 130000001 cycles: 223821759 heartbeat IPC: 0.333929 cumulative IPC: 0.378707 (Simulation time: 0 hr 13 min 49 sec) 
Heartbeat CPU 0 instructions: 140000000 cycles: 253602804 heartbeat IPC: 0.335785 cumulative IPC: 0.373403 (Simulation time: 0 hr 15 min 13 sec) 
Heartbeat CPU 0 instructions: 150000000 cycles: 283741722 heartbeat IPC: 0.331797 cumulative IPC: 0.368779 (Simulation time: 0 hr 16 min 37 sec) 
Simulation finished CPU 0 instructions: 100000004 cycles: 271165446 cumulative IPC: 0.368779 (Simulation time: 0 hr 16 min 37 sec) 

Simulation complete CPU 0 instructions: 100000004 cycles: 271165446 (Simulation time: 0 hr 16 min 37 sec) 


ChampSim completed all CPUs

Saving instructions large page distribution to /home/bsc/bsc018186/scratch/itp_asplos25_AE/dump/smt_srv85_ap_srv194_ap_1024i.pdst...
Saving data large page distribution to /home/bsc/bsc018186/scratch/itp_asplos25_AE/dump/smt_srv85_ap_srv194_ap_1024i.pdst...
=== Simulation ===
CPU 0 runs /gpfs/projects/bsc18/MN4/bsc18/romol/ChampSim/traces/qualcomm_srv/smt_srv85_ap_srv194_ap_1024i.champsimtrace.xz

Region of Interest Statistics

CPU 0 cumulative IPC: 0.368779 instructions: 100000004 cycles: 271165446
CPU 0 Branch Prediction Accuracy: 76.7098% MPKI: 44.3236 Average ROB Occupancy at Mispredict: 10.6774
Branch type MPKI
BRANCH_DIRECT_JUMP: 1.39152
BRANCH_INDIRECT: 23.3942
BRANCH_CONDITIONAL: 12.3324
BRANCH_DIRECT_CALL: 2.62711
BRANCH_INDIRECT_CALL: 1.11229
BRANCH_RETURN: 3.46614

Instructions large pages: 0
Instructions small pages: 11317
Large page distribution for instructions: 0%

Data large pages: 0
Data small pages: 9525
Large page distribution for data: 0%

cpu0_L1I TOTAL       ACCESS:   40064984  HIT:   31475337  MISS:    8589647  iACCESS:   40064984  iHIT:   31475337  iMISS:    8589647  dACCESS:          0  dHIT:          0  dMISS:          0  itACCESS:          0  itHIT:          0  itMISS:          0  dtACCESS:          0  dtHIT:          0  dtMISS:          0
cpu0_L1I LOAD         ACCESS:   11529975  HIT:    9185304  MISS:    2344671  iACCESS:   11529975  iHIT:    9185304  iMISS:    2344671  dACCESS:          0  dHIT:          0  dMISS:          0  itACCESS:          0  itHIT:          0  itMISS:          0  dtACCESS:          0  dtHIT:          0  dtMISS:          0
cpu0_L1I RFO          ACCESS:          0  HIT:          0  MISS:          0  iACCESS:          0  iHIT:          0  iMISS:          0  dACCESS:          0  dHIT:          0  dMISS:          0  itACCESS:          0  itHIT:          0  itMISS:          0  dtACCESS:          0  dtHIT:          0  dtMISS:          0
cpu0_L1I PREFETCH     ACCESS:   28535009  HIT:   22290033  MISS:    6244976  iACCESS:   28535009  iHIT:   22290033  iMISS:    6244976  dACCESS:          0  dHIT:          0  dMISS:          0  itACCESS:          0  itHIT:          0  itMISS:          0  dtACCESS:          0  dtHIT:          0  dtMISS:          0
cpu0_L1I WRITE        ACCESS:          0  HIT:          0  MISS:          0  iACCESS:          0  iHIT:          0  iMISS:          0  dACCESS:          0  dHIT:          0  dMISS:          0  itACCESS:          0  itHIT:          0  itMISS:          0  dtACCESS:          0  dtHIT:          0  dtMISS:          0
cpu0_L1I TRANSLATION  ACCESS:          0  HIT:          0  MISS:          0  iACCESS:          0  iHIT:          0  iMISS:          0  dACCESS:          0  dHIT:          0  dMISS:          0  itACCESS:          0  itHIT:          0  itMISS:          0  dtACCESS:          0  dtHIT:          0  dtMISS:          0
cpu0_L1I PREFETCH  REQUESTED:   31081730  ISSUED:   31081337  CROSSED:          0  USEFUL:    2097137  USELESS:     750517
cpu0_L1I AVERAGE iMISS LATENCY: 23.061 cycles
cpu0_L1I AVERAGE dMISS LATENCY: 0 cycles
cpu0_L1I AVERAGE itMISS LATENCY: 0 cycles
cpu0_L1I AVERAGE dtMISS LATENCY: 0 cycles
cpu0_L1I PAGE CROSSINGS (TLB HIT):         0 
cpu0_L1I PAGE CROSSINGS (TLB MISS):         0 
cpu0_L1I AVERAGE MISS LATENCY: 23.061 cycles
cpu0_ITLB TOTAL       ACCESS:   33782429  HIT:   31616929  MISS:    2165500  iACCESS:   33782429  iHIT:   31616929  iMISS:    2165500  dACCESS:          0  dHIT:          0  dMISS:          0  itACCESS:          0  itHIT:          0  itMISS:          0  dtACCESS:          0  dtHIT:          0  dtMISS:          0
cpu0_ITLB LOAD         ACCESS:   33782429  HIT:   31616929  MISS:    2165500  iACCESS:   33782429  iHIT:   31616929  iMISS:    2165500  dACCESS:          0  dHIT:          0  dMISS:          0  itACCESS:          0  itHIT:          0  itMISS:          0  dtACCESS:          0  dtHIT:          0  dtMISS:          0
cpu0_ITLB RFO          ACCESS:          0  HIT:          0  MISS:          0  iACCESS:          0  iHIT:          0  iMISS:          0  dACCESS:          0  dHIT:          0  dMISS:          0  itACCESS:          0  itHIT:          0  itMISS:          0  dtACCESS:          0  dtHIT:          0  dtMISS:          0
cpu0_ITLB PREFETCH     ACCESS:          0  HIT:          0  MISS:          0  iACCESS:          0  iHIT:          0  iMISS:          0  dACCESS:          0  dHIT:          0  dMISS:          0  itACCESS:          0  itHIT:          0  itMISS:          0  dtACCESS:          0  dtHIT:          0  dtMISS:          0
cpu0_ITLB WRITE        ACCESS:          0  HIT:          0  MISS:          0  iACCESS:          0  iHIT:          0  iMISS:          0  dACCESS:          0  dHIT:          0  dMISS:          0  itACCESS:          0  itHIT:          0  itMISS:          0  dtACCESS:          0  dtHIT:          0  dtMISS:          0
cpu0_ITLB TRANSLATION  ACCESS:          0  HIT:          0  MISS:          0  iACCESS:          0  iHIT:          0  iMISS:          0  dACCESS:          0  dHIT:          0  dMISS:          0  itACCESS:          0  itHIT:          0  itMISS:          0  dtACCESS:          0  dtHIT:          0  dtMISS:          0
cpu0_ITLB PREFETCH  REQUESTED:          0  ISSUED:          0  CROSSED:          0  USEFUL:     381135  USELESS:      82056
cpu0_ITLB AVERAGE iMISS LATENCY: 6.12761 cycles
cpu0_ITLB AVERAGE dMISS LATENCY: 0 cycles
cpu0_ITLB AVERAGE itMISS LATENCY: 0 cycles
cpu0_ITLB AVERAGE dtMISS LATENCY: 0 cycles
cpu0_ITLB PAGE CROSSINGS (TLB HIT):         0 
cpu0_ITLB PAGE CROSSINGS (TLB MISS):         0 
cpu0_ITLB AVERAGE MISS LATENCY: 6.12761 cycles
cpu0_DTLB TOTAL       ACCESS:   30352385  HIT:   25091662  MISS:    5260723  iACCESS:          0  iHIT:          0  iMISS:          0  dACCESS:   30352385  dHIT:   25091662  dMISS:    5260723  itACCESS:          0  itHIT:          0  itMISS:          0  dtACCESS:          0  dtHIT:          0  dtMISS:          0
cpu0_DTLB LOAD         ACCESS:   30352385  HIT:   25091662  MISS:    5260723  iACCESS:          0  iHIT:          0  iMISS:          0  dACCESS:   30352385  dHIT:   25091662  dMISS:    5260723  itACCESS:          0  itHIT:          0  itMISS:          0  dtACCESS:          0  dtHIT:          0  dtMISS:          0
cpu0_DTLB RFO          ACCESS:          0  HIT:          0  MISS:          0  iACCESS:          0  iHIT:          0  iMISS:          0  dACCESS:          0  dHIT:          0  dMISS:          0  itACCESS:          0  itHIT:          0  itMISS:          0  dtACCESS:          0  dtHIT:          0  dtMISS:          0
cpu0_DTLB PREFETCH     ACCESS:          0  HIT:          0  MISS:          0  iACCESS:          0  iHIT:          0  iMISS:          0  dACCESS:          0  dHIT:          0  dMISS:          0  itACCESS:          0  itHIT:          0  itMISS:          0  dtACCESS:          0  dtHIT:          0  dtMISS:          0
cpu0_DTLB WRITE        ACCESS:          0  HIT:          0  MISS:          0  iACCESS:          0  iHIT:          0  iMISS:          0  dACCESS:          0  dHIT:          0  dMISS:          0  itACCESS:          0  itHIT:          0  itMISS:          0  dtACCESS:          0  dtHIT:          0  dtMISS:          0
cpu0_DTLB TRANSLATION  ACCESS:          0  HIT:          0  MISS:          0  iACCESS:          0  iHIT:          0  iMISS:          0  dACCESS:          0  dHIT:          0  dMISS:          0  itACCESS:          0  itHIT:          0  itMISS:          0  dtACCESS:          0  dtHIT:          0  dtMISS:          0
cpu0_DTLB PREFETCH  REQUESTED:          0  ISSUED:          0  CROSSED:          0  USEFUL:          0  USELESS:          0
cpu0_DTLB AVERAGE iMISS LATENCY: 0 cycles
cpu0_DTLB AVERAGE dMISS LATENCY: 14.9423 cycles
cpu0_DTLB AVERAGE itMISS LATENCY: 0 cycles
cpu0_DTLB AVERAGE dtMISS LATENCY: 0 cycles
cpu0_DTLB PAGE CROSSINGS (TLB HIT):         0 
cpu0_DTLB PAGE CROSSINGS (TLB MISS):         0 
cpu0_DTLB AVERAGE MISS LATENCY: 14.9423 cycles
cpu0_STLB TOTAL       ACCESS:    3333517  HIT:    2976483  MISS:     357034  iACCESS:     463197  iHIT:     403126  iMISS:      60071  dACCESS:    2870320  dHIT:    2573357  dMISS:     296963  itACCESS:          0  itHIT:          0  itMISS:          0  dtACCESS:          0  dtHIT:          0  dtMISS:          0
cpu0_STLB LOAD         ACCESS:    3333517  HIT:    2976483  MISS:     357034  iACCESS:     463197  iHIT:     403126  iMISS:      60071  dACCESS:    2870320  dHIT:    2573357  dMISS:     296963  itACCESS:          0  itHIT:          0  itMISS:          0  dtACCESS:          0  dtHIT:          0  dtMISS:          0
cpu0_STLB RFO          ACCESS:          0  HIT:          0  MISS:          0  iACCESS:          0  iHIT:          0  iMISS:          0  dACCESS:          0  dHIT:          0  dMISS:          0  itACCESS:          0  itHIT:          0  itMISS:          0  dtACCESS:          0  dtHIT:          0  dtMISS:          0
cpu0_STLB PREFETCH     ACCESS:          0  HIT:          0  MISS:          0  iACCESS:          0  iHIT:          0  iMISS:          0  dACCESS:          0  dHIT:          0  dMISS:          0  itACCESS:          0  itHIT:          0  itMISS:          0  dtACCESS:          0  dtHIT:          0  dtMISS:          0
cpu0_STLB WRITE        ACCESS:          0  HIT:          0  MISS:          0  iACCESS:          0  iHIT:          0  iMISS:          0  dACCESS:          0  dHIT:          0  dMISS:          0  itACCESS:          0  itHIT:          0  itMISS:          0  dtACCESS:          0  dtHIT:          0  dtMISS:          0
cpu0_STLB TRANSLATION  ACCESS:          0  HIT:          0  MISS:          0  iACCESS:          0  iHIT:          0  iMISS:          0  dACCESS:          0  dHIT:          0  dMISS:          0  itACCESS:          0  itHIT:          0  itMISS:          0  dtACCESS:          0  dtHIT:          0  dtMISS:          0
cpu0_STLB PREFETCH  REQUESTED:          0  ISSUED:          0  CROSSED:          0  USEFUL:          0  USELESS:          0
cpu0_STLB AVERAGE iMISS LATENCY: 26.9579 cycles
cpu0_STLB AVERAGE dMISS LATENCY: 155.066 cycles
cpu0_STLB AVERAGE itMISS LATENCY: 0 cycles
cpu0_STLB AVERAGE dtMISS LATENCY: 0 cycles
cpu0_STLB PAGE CROSSINGS (TLB HIT):         0 
cpu0_STLB PAGE CROSSINGS (TLB MISS):         0 
cpu0_STLB AVERAGE MISS LATENCY: 182.024 cycles
cpu0_L1D TOTAL       ACCESS:   47401839  HIT:   39760668  MISS:    7641171  iACCESS:          0  iHIT:          0  iMISS:          0  dACCESS:   46857954  dHIT:   39733935  dMISS:    7124019  itACCESS:      71297  itHIT:       5308  itMISS:      65989  dtACCESS:     472588  dtHIT:      21425  dtMISS:     451163
cpu0_L1D LOAD         ACCESS:   22074421  HIT:   18275517  MISS:    3798904  iACCESS:          0  iHIT:          0  iMISS:          0  dACCESS:   22074421  dHIT:   18275517  dMISS:    3798904  itACCESS:          0  itHIT:          0  itMISS:          0  dtACCESS:          0  dtHIT:          0  dtMISS:          0
cpu0_L1D RFO          ACCESS:          0  HIT:          0  MISS:          0  iACCESS:          0  iHIT:          0  iMISS:          0  dACCESS:          0  dHIT:          0  dMISS:          0  itACCESS:          0  itHIT:          0  itMISS:          0  dtACCESS:          0  dtHIT:          0  dtMISS:          0
cpu0_L1D PREFETCH     ACCESS:   14724110  HIT:   12031649  MISS:    2692461  iACCESS:          0  iHIT:          0  iMISS:          0  dACCESS:   14724110  dHIT:   12031649  dMISS:    2692461  itACCESS:          0  itHIT:          0  itMISS:          0  dtACCESS:          0  dtHIT:          0  dtMISS:          0
cpu0_L1D WRITE        ACCESS:   10059423  HIT:    9426769  MISS:     632654  iACCESS:          0  iHIT:          0  iMISS:          0  dACCESS:   10059423  dHIT:    9426769  dMISS:     632654  itACCESS:          0  itHIT:          0  itMISS:          0  dtACCESS:          0  dtHIT:          0  dtMISS:          0
cpu0_L1D TRANSLATION  ACCESS:     543885  HIT:      26733  MISS:     517152  iACCESS:          0  iHIT:          0  iMISS:          0  dACCESS:          0  dHIT:          0  dMISS:          0  itACCESS:      71297  itHIT:       5308  itMISS:      65989  dtACCESS:     472588  dtHIT:      21425  dtMISS:     451163
cpu0_L1D PREFETCH  REQUESTED:   22074421  ISSUED:   18856993  CROSSED:          0  USEFUL:     333028  USELESS:    1017597
cpu0_L1D AVERAGE iMISS LATENCY: 0 cycles
cpu0_L1D AVERAGE dMISS LATENCY: 37.4613 cycles
cpu0_L1D AVERAGE itMISS LATENCY: 1.17896 cycles
cpu0_L1D AVERAGE dtMISS LATENCY: 6.63415 cycles
cpu0_L1D PAGE CROSSINGS (TLB HIT):         0 
cpu0_L1D PAGE CROSSINGS (TLB MISS):         0 
cpu0_L1D AVERAGE MISS LATENCY: 45.2745 cycles
cpu0_L2C TOTAL       ACCESS:    9567478  HIT:    3242535  MISS:    6324943  iACCESS:    3628973  iHIT:    1255915  iMISS:    2373058  dACCESS:    5451586  dHIT:    1816502  dMISS:    3635084  itACCESS:      65147  itHIT:      15132  itMISS:      50015  dtACCESS:     421772  dtHIT:     154986  dtMISS:     266786
cpu0_L2C LOAD         ACCESS:    3142640  HIT:    1339178  MISS:    1803462  iACCESS:     812666  iHIT:     242834  iMISS:     569832  dACCESS:    2329974  dHIT:    1096344  dMISS:    1233630  itACCESS:          0  itHIT:          0  itMISS:          0  dtACCESS:          0  dtHIT:          0  dtMISS:          0
cpu0_L2C RFO          ACCESS:     239990  HIT:      48847  MISS:     191143  iACCESS:          0  iHIT:          0  iMISS:          0  dACCESS:     239990  dHIT:      48847  dMISS:     191143  itACCESS:          0  itHIT:          0  itMISS:          0  dtACCESS:          0  dtHIT:          0  dtMISS:          0
cpu0_L2C PREFETCH     ACCESS:    5362658  HIT:    1558424  MISS:    3804234  iACCESS:    2816307  iHIT:    1013081  iMISS:    1803226  dACCESS:    2546351  dHIT:     545343  dMISS:    2001008  itACCESS:          0  itHIT:          0  itMISS:          0  dtACCESS:          0  dtHIT:          0  dtMISS:          0
cpu0_L2C WRITE        ACCESS:     335271  HIT:     125968  MISS:     209303  iACCESS:          0  iHIT:          0  iMISS:          0  dACCESS:     335271  dHIT:     125968  dMISS:     209303  itACCESS:          0  itHIT:          0  itMISS:          0  dtACCESS:          0  dtHIT:          0  dtMISS:          0
cpu0_L2C TRANSLATION  ACCESS:     486919  HIT:     170118  MISS:     316801  iACCESS:          0  iHIT:          0  iMISS:          0  dACCESS:          0  dHIT:          0  dMISS:          0  itACCESS:      65147  itHIT:      15132  itMISS:      50015  dtACCESS:     421772  dtHIT:     154986  dtMISS:     266786
cpu0_L2C PREFETCH  REQUESTED:    1413562  ISSUED:    1413554  CROSSED:          0  USEFUL:     347945  USELESS:     419095
cpu0_L2C AVERAGE iMISS LATENCY: 26.5177 cycles
cpu0_L2C AVERAGE dMISS LATENCY: 52.0281 cycles
cpu0_L2C AVERAGE itMISS LATENCY: 1.3234 cycles
cpu0_L2C AVERAGE dtMISS LATENCY: 7.36912 cycles
cpu0_L2C PAGE CROSSINGS (TLB HIT):         0 
cpu0_L2C PAGE CROSSINGS (TLB MISS):         0 
cpu0_L2C AVERAGE MISS LATENCY: 87.2383 cycles
LLC TOTAL       ACCESS:    6185392  HIT:    3646437  MISS:    2538955  iACCESS:    2295169  iHIT:    1517764  iMISS:     777405  dACCESS:    3573422  dHIT:    2069811  dMISS:    1503611  itACCESS:      50015  itHIT:       8611  itMISS:      41404  dtACCESS:     266786  dtHIT:      50251  dtMISS:     216535
LLC LOAD         ACCESS:    1795926  HIT:    1189953  MISS:     605973  iACCESS:     568652  iHIT:     407444  iMISS:     161208  dACCESS:    1227274  dHIT:     782509  dMISS:     444765  itACCESS:          0  itHIT:          0  itMISS:          0  dtACCESS:          0  dtHIT:          0  dtMISS:          0
LLC RFO          ACCESS:     191117  HIT:     100652  MISS:      90465  iACCESS:          0  iHIT:          0  iMISS:          0  dACCESS:     191117  dHIT:     100652  dMISS:      90465  itACCESS:          0  itHIT:          0  itMISS:          0  dtACCESS:          0  dtHIT:          0  dtMISS:          0
LLC PREFETCH     ACCESS:    3618777  HIT:    2037243  MISS:    1581534  iACCESS:    1726517  iHIT:    1110320  iMISS:     616197  dACCESS:    1892260  dHIT:     926923  dMISS:     965337  itACCESS:          0  itHIT:          0  itMISS:          0  dtACCESS:          0  dtHIT:          0  dtMISS:          0
LLC WRITE        ACCESS:     262771  HIT:     259727  MISS:       3044  iACCESS:          0  iHIT:          0  iMISS:          0  dACCESS:     262771  dHIT:     259727  dMISS:       3044  itACCESS:          0  itHIT:          0  itMISS:          0  dtACCESS:          0  dtHIT:          0  dtMISS:          0
LLC TRANSLATION  ACCESS:     316801  HIT:      58862  MISS:     257939  iACCESS:          0  iHIT:          0  iMISS:          0  dACCESS:          0  dHIT:          0  dMISS:          0  itACCESS:      50015  itHIT:       8611  itMISS:      41404  dtACCESS:     266786  dtHIT:      50251  dtMISS:     216535
LLC PREFETCH  REQUESTED:          0  ISSUED:          0  CROSSED:          0  USEFUL:          0  USELESS:          0
LLC AVERAGE iMISS LATENCY: 48.4845 cycles
LLC AVERAGE dMISS LATENCY: 105.174 cycles
LLC AVERAGE itMISS LATENCY: 2.90764 cycles
LLC AVERAGE dtMISS LATENCY: 16.2846 cycles
LLC PAGE CROSSINGS (TLB HIT):         0 
LLC PAGE CROSSINGS (TLB MISS):         0 
LLC AVERAGE MISS LATENCY: 172.851 cycles

PageTableWalker TOTAL       ACCESS:     177664  
PageTableWalker AVERAGE LATENCY: 6.72303 cycles
PageTableWalker TOTAL LATENCY: 1194439 cycles

DRAM Statistics
Channel 0
 RQ ROW_BUFFER_HIT:     543605
  ROW_BUFFER_MISS:    1975239
 AVG DBUS CONGESTED CYCLE:    3.65247
 WQ ROW_BUFFER_HIT:      63109
  ROW_BUFFER_MISS:      63292  FULL:          0

