last_page:0x200000000000000
VMEM_RES_CAP:0x100000
PAGE_SIZE:4096
LOG2_PAGE_SIZE:12
LOG2_PAGE_TABLE_SIZE:9
page_table_levels:5
WARNING: physical memory size is smaller than virtual memory size
FDiP enabled with aggresivity 16

*** ChampSim Multicore Out-of-Order Simulator ***

Warmup Instructions: 50000000
Simulation Instructions: 100000000
Number of CPUs: 1
Small page size: 4096
Large page size: 2097152

CPU 0 Bimodal branch predictor
Basic BTB sets: 1024 ways: 8 indirect buffer size: 4096 RAS size: 64
Instruction page size distrubution: 0
Loading instruction page size distribution from /home/bsc/bsc018186/scratch/itp_asplos25_AE/dump/smt_srv207_ap_srv697_ap_1024i.pdst
Data page size distrubution: 0
Loading data page size distribution from /home/bsc/bsc018186/scratch/itp_asplos25_AE/dump/smt_srv207_ap_srv697_ap_1024i.pdst
cpu0_L2C IP-based stride prefetcher
cpu0_L1D next line prefetcher
CHiRPing...
cpu0_L1I next line prefetcher
Off-chip DRAM Size: 4 GiB Channels: 1 Width: 64-bit Data Rate: 3200 MT/s
Heartbeat CPU 0 instructions: 10000000 cycles: 2500505 heartbeat IPC: 3.9992 cumulative IPC: 3.9992 (Simulation time: 0 hr 0 min 46 sec) 
Heartbeat CPU 0 instructions: 20000002 cycles: 5000868 heartbeat IPC: 3.99943 cumulative IPC: 3.99931 (Simulation time: 0 hr 1 min 34 sec) 
Heartbeat CPU 0 instructions: 30000002 cycles: 7501137 heartbeat IPC: 3.99957 cumulative IPC: 3.9994 (Simulation time: 0 hr 2 min 22 sec) 
Heartbeat CPU 0 instructions: 40000002 cycles: 10001538 heartbeat IPC: 3.99936 cumulative IPC: 3.99939 (Simulation time: 0 hr 3 min 9 sec) 
Heartbeat CPU 0 instructions: 50000002 cycles: 12501795 heartbeat IPC: 3.99959 cumulative IPC: 3.99943 (Simulation time: 0 hr 3 min 58 sec) 
Warmup finished CPU 0 instructions: 50000002 cycles: 12501796 cumulative IPC: 3.99943 (Simulation time: 0 hr 3 min 58 sec) 

Warmup complete CPU 0 instructions: 50000002 cycles: 12501796 (Simulation time: 0 hr 3 min 58 sec) 

Heartbeat CPU 0 instructions: 60000003 cycles: 42824060 heartbeat IPC: 0.329791 cumulative IPC: 0.329791 (Simulation time: 0 hr 5 min 41 sec) 
Heartbeat CPU 0 instructions: 70000002 cycles: 71516823 heartbeat IPC: 0.34852 cumulative IPC: 0.338897 (Simulation time: 0 hr 7 min 18 sec) 
Heartbeat CPU 0 instructions: 80000001 cycles: 102108631 heartbeat IPC: 0.326885 cumulative IPC: 0.334796 (Simulation time: 0 hr 9 min 1 sec) 
Heartbeat CPU 0 instructions: 90000003 cycles: 132731798 heartbeat IPC: 0.326551 cumulative IPC: 0.332696 (Simulation time: 0 hr 10 min 45 sec) 
Heartbeat CPU 0 instructions: 100000003 cycles: 162370419 heartbeat IPC: 0.337398 cumulative IPC: 0.333626 (Simulation time: 0 hr 12 min 24 sec) 
Heartbeat CPU 0 instructions: 110000002 cycles: 191754822 heartbeat IPC: 0.340317 cumulative IPC: 0.334723 (Simulation time: 0 hr 14 min 6 sec) 
Heartbeat CPU 0 instructions: 120000001 cycles: 221407045 heartbeat IPC: 0.337243 cumulative IPC: 0.335081 (Simulation time: 0 hr 15 min 47 sec) 
Heartbeat CPU 0 instructions: 130000004 cycles: 250645966 heartbeat IPC: 0.34201 cumulative IPC: 0.335931 (Simulation time: 0 hr 17 min 26 sec) 
Heartbeat CPU 0 instructions: 140000002 cycles: 280373690 heartbeat IPC: 0.336387 cumulative IPC: 0.335982 (Simulation time: 0 hr 19 min 8 sec) 
Heartbeat CPU 0 instructions: 150000000 cycles: 310310881 heartbeat IPC: 0.334033 cumulative IPC: 0.335786 (Simulation time: 0 hr 20 min 47 sec) 
Simulation finished CPU 0 instructions: 100000003 cycles: 297809087 cumulative IPC: 0.335786 (Simulation time: 0 hr 20 min 47 sec) 

Simulation complete CPU 0 instructions: 100000003 cycles: 297809087 (Simulation time: 0 hr 20 min 47 sec) 


ChampSim completed all CPUs

Saving instructions large page distribution to /home/bsc/bsc018186/scratch/itp_asplos25_AE/dump/smt_srv207_ap_srv697_ap_1024i.pdst...
Saving data large page distribution to /home/bsc/bsc018186/scratch/itp_asplos25_AE/dump/smt_srv207_ap_srv697_ap_1024i.pdst...
=== Simulation ===
CPU 0 runs /gpfs/projects/bsc18/MN4/bsc18/romol/ChampSim/traces/qualcomm_srv/smt_srv207_ap_srv697_ap_1024i.champsimtrace.xz

Region of Interest Statistics

CPU 0 cumulative IPC: 0.335786 instructions: 100000003 cycles: 297809087
CPU 0 Branch Prediction Accuracy: 75.3513% MPKI: 44.268 Average ROB Occupancy at Mispredict: 11.3347
Branch type MPKI
BRANCH_DIRECT_JUMP: 1.35476
BRANCH_INDIRECT: 23.4079
BRANCH_CONDITIONAL: 12.5038
BRANCH_DIRECT_CALL: 2.54273
BRANCH_INDIRECT_CALL: 0.94822
BRANCH_RETURN: 3.51059

Instructions large pages: 0
Instructions small pages: 14748
Large page distribution for instructions: 0%

Data large pages: 0
Data small pages: 13364
Large page distribution for data: 0%

cpu0_L1I TOTAL       ACCESS:   39020016  HIT:   30302101  MISS:    8717915  iACCESS:   39020016  iHIT:   30302101  iMISS:    8717915  dACCESS:          0  dHIT:          0  dMISS:          0  itACCESS:          0  itHIT:          0  itMISS:          0  dtACCESS:          0  dtHIT:          0  dtMISS:          0
cpu0_L1I LOAD         ACCESS:   11634662  HIT:    9248664  MISS:    2385998  iACCESS:   11634662  iHIT:    9248664  iMISS:    2385998  dACCESS:          0  dHIT:          0  dMISS:          0  itACCESS:          0  itHIT:          0  itMISS:          0  dtACCESS:          0  dtHIT:          0  dtMISS:          0
cpu0_L1I RFO          ACCESS:          0  HIT:          0  MISS:          0  iACCESS:          0  iHIT:          0  iMISS:          0  dACCESS:          0  dHIT:          0  dMISS:          0  itACCESS:          0  itHIT:          0  itMISS:          0  dtACCESS:          0  dtHIT:          0  dtMISS:          0
cpu0_L1I PREFETCH     ACCESS:   27385354  HIT:   21053437  MISS:    6331917  iACCESS:   27385354  iHIT:   21053437  iMISS:    6331917  dACCESS:          0  dHIT:          0  dMISS:          0  itACCESS:          0  itHIT:          0  itMISS:          0  dtACCESS:          0  dtHIT:          0  dtMISS:          0
cpu0_L1I WRITE        ACCESS:          0  HIT:          0  MISS:          0  iACCESS:          0  iHIT:          0  iMISS:          0  dACCESS:          0  dHIT:          0  dMISS:          0  itACCESS:          0  itHIT:          0  itMISS:          0  dtACCESS:          0  dtHIT:          0  dtMISS:          0
cpu0_L1I TRANSLATION  ACCESS:          0  HIT:          0  MISS:          0  iACCESS:          0  iHIT:          0  iMISS:          0  dACCESS:          0  dHIT:          0  dMISS:          0  itACCESS:          0  itHIT:          0  itMISS:          0  dtACCESS:          0  dtHIT:          0  dtMISS:          0
cpu0_L1I PREFETCH  REQUESTED:   30187840  ISSUED:   30187835  CROSSED:          0  USEFUL:    2194834  USELESS:     780912
cpu0_L1I AVERAGE iMISS LATENCY: 23.9048 cycles
cpu0_L1I AVERAGE dMISS LATENCY: 0 cycles
cpu0_L1I AVERAGE itMISS LATENCY: 0 cycles
cpu0_L1I AVERAGE dtMISS LATENCY: 0 cycles
cpu0_L1I PAGE CROSSINGS (TLB HIT):         0 
cpu0_L1I PAGE CROSSINGS (TLB MISS):         0 
cpu0_L1I AVERAGE MISS LATENCY: 23.9048 cycles
cpu0_ITLB TOTAL       ACCESS:   33003943  HIT:   30770820  MISS:    2233123  iACCESS:   33003943  iHIT:   30770820  iMISS:    2233123  dACCESS:          0  dHIT:          0  dMISS:          0  itACCESS:          0  itHIT:          0  itMISS:          0  dtACCESS:          0  dtHIT:          0  dtMISS:          0
cpu0_ITLB LOAD         ACCESS:   33003943  HIT:   30770820  MISS:    2233123  iACCESS:   33003943  iHIT:   30770820  iMISS:    2233123  dACCESS:          0  dHIT:          0  dMISS:          0  itACCESS:          0  itHIT:          0  itMISS:          0  dtACCESS:          0  dtHIT:          0  dtMISS:          0
cpu0_ITLB RFO          ACCESS:          0  HIT:          0  MISS:          0  iACCESS:          0  iHIT:          0  iMISS:          0  dACCESS:          0  dHIT:          0  dMISS:          0  itACCESS:          0  itHIT:          0  itMISS:          0  dtACCESS:          0  dtHIT:          0  dtMISS:          0
cpu0_ITLB PREFETCH     ACCESS:          0  HIT:          0  MISS:          0  iACCESS:          0  iHIT:          0  iMISS:          0  dACCESS:          0  dHIT:          0  dMISS:          0  itACCESS:          0  itHIT:          0  itMISS:          0  dtACCESS:          0  dtHIT:          0  dtMISS:          0
cpu0_ITLB WRITE        ACCESS:          0  HIT:          0  MISS:          0  iACCESS:          0  iHIT:          0  iMISS:          0  dACCESS:          0  dHIT:          0  dMISS:          0  itACCESS:          0  itHIT:          0  itMISS:          0  dtACCESS:          0  dtHIT:          0  dtMISS:          0
cpu0_ITLB TRANSLATION  ACCESS:          0  HIT:          0  MISS:          0  iACCESS:          0  iHIT:          0  iMISS:          0  dACCESS:          0  dHIT:          0  dMISS:          0  itACCESS:          0  itHIT:          0  itMISS:          0  dtACCESS:          0  dtHIT:          0  dtMISS:          0
cpu0_ITLB PREFETCH  REQUESTED:          0  ISSUED:          0  CROSSED:          0  USEFUL:     392577  USELESS:      80135
cpu0_ITLB AVERAGE iMISS LATENCY: 10.0982 cycles
cpu0_ITLB AVERAGE dMISS LATENCY: 0 cycles
cpu0_ITLB AVERAGE itMISS LATENCY: 0 cycles
cpu0_ITLB AVERAGE dtMISS LATENCY: 0 cycles
cpu0_ITLB PAGE CROSSINGS (TLB HIT):         0 
cpu0_ITLB PAGE CROSSINGS (TLB MISS):         0 
cpu0_ITLB AVERAGE MISS LATENCY: 10.0982 cycles
cpu0_DTLB TOTAL       ACCESS:   29110847  HIT:   25487371  MISS:    3623476  iACCESS:          0  iHIT:          0  iMISS:          0  dACCESS:   29110847  dHIT:   25487371  dMISS:    3623476  itACCESS:          0  itHIT:          0  itMISS:          0  dtACCESS:          0  dtHIT:          0  dtMISS:          0
cpu0_DTLB LOAD         ACCESS:   29110847  HIT:   25487371  MISS:    3623476  iACCESS:          0  iHIT:          0  iMISS:          0  dACCESS:   29110847  dHIT:   25487371  dMISS:    3623476  itACCESS:          0  itHIT:          0  itMISS:          0  dtACCESS:          0  dtHIT:          0  dtMISS:          0
cpu0_DTLB RFO          ACCESS:          0  HIT:          0  MISS:          0  iACCESS:          0  iHIT:          0  iMISS:          0  dACCESS:          0  dHIT:          0  dMISS:          0  itACCESS:          0  itHIT:          0  itMISS:          0  dtACCESS:          0  dtHIT:          0  dtMISS:          0
cpu0_DTLB PREFETCH     ACCESS:          0  HIT:          0  MISS:          0  iACCESS:          0  iHIT:          0  iMISS:          0  dACCESS:          0  dHIT:          0  dMISS:          0  itACCESS:          0  itHIT:          0  itMISS:          0  dtACCESS:          0  dtHIT:          0  dtMISS:          0
cpu0_DTLB WRITE        ACCESS:          0  HIT:          0  MISS:          0  iACCESS:          0  iHIT:          0  iMISS:          0  dACCESS:          0  dHIT:          0  dMISS:          0  itACCESS:          0  itHIT:          0  itMISS:          0  dtACCESS:          0  dtHIT:          0  dtMISS:          0
cpu0_DTLB TRANSLATION  ACCESS:          0  HIT:          0  MISS:          0  iACCESS:          0  iHIT:          0  iMISS:          0  dACCESS:          0  dHIT:          0  dMISS:          0  itACCESS:          0  itHIT:          0  itMISS:          0  dtACCESS:          0  dtHIT:          0  dtMISS:          0
cpu0_DTLB PREFETCH  REQUESTED:          0  ISSUED:          0  CROSSED:          0  USEFUL:          0  USELESS:          0
cpu0_DTLB AVERAGE iMISS LATENCY: 0 cycles
cpu0_DTLB AVERAGE dMISS LATENCY: 24.8984 cycles
cpu0_DTLB AVERAGE itMISS LATENCY: 0 cycles
cpu0_DTLB AVERAGE dtMISS LATENCY: 0 cycles
cpu0_DTLB PAGE CROSSINGS (TLB HIT):         0 
cpu0_DTLB PAGE CROSSINGS (TLB MISS):         0 
cpu0_DTLB AVERAGE MISS LATENCY: 24.8984 cycles
cpu0_STLB TOTAL       ACCESS:    2586880  HIT:    2215995  MISS:     370885  iACCESS:     472714  iHIT:     362430  iMISS:     110284  dACCESS:    2114166  dHIT:    1853565  dMISS:     260601  itACCESS:          0  itHIT:          0  itMISS:          0  dtACCESS:          0  dtHIT:          0  dtMISS:          0
cpu0_STLB LOAD         ACCESS:    2586880  HIT:    2215995  MISS:     370885  iACCESS:     472714  iHIT:     362430  iMISS:     110284  dACCESS:    2114166  dHIT:    1853565  dMISS:     260601  itACCESS:          0  itHIT:          0  itMISS:          0  dtACCESS:          0  dtHIT:          0  dtMISS:          0
cpu0_STLB RFO          ACCESS:          0  HIT:          0  MISS:          0  iACCESS:          0  iHIT:          0  iMISS:          0  dACCESS:          0  dHIT:          0  dMISS:          0  itACCESS:          0  itHIT:          0  itMISS:          0  dtACCESS:          0  dtHIT:          0  dtMISS:          0
cpu0_STLB PREFETCH     ACCESS:          0  HIT:          0  MISS:          0  iACCESS:          0  iHIT:          0  iMISS:          0  dACCESS:          0  dHIT:          0  dMISS:          0  itACCESS:          0  itHIT:          0  itMISS:          0  dtACCESS:          0  dtHIT:          0  dtMISS:          0
cpu0_STLB WRITE        ACCESS:          0  HIT:          0  MISS:          0  iACCESS:          0  iHIT:          0  iMISS:          0  dACCESS:          0  dHIT:          0  dMISS:          0  itACCESS:          0  itHIT:          0  itMISS:          0  dtACCESS:          0  dtHIT:          0  dtMISS:          0
cpu0_STLB TRANSLATION  ACCESS:          0  HIT:          0  MISS:          0  iACCESS:          0  iHIT:          0  iMISS:          0  dACCESS:          0  dHIT:          0  dMISS:          0  itACCESS:          0  itHIT:          0  itMISS:          0  dtACCESS:          0  dtHIT:          0  dtMISS:          0
cpu0_STLB PREFETCH  REQUESTED:          0  ISSUED:          0  CROSSED:          0  USEFUL:          0  USELESS:          0
cpu0_STLB AVERAGE iMISS LATENCY: 50.6229 cycles
cpu0_STLB AVERAGE dMISS LATENCY: 197.389 cycles
cpu0_STLB AVERAGE itMISS LATENCY: 0 cycles
cpu0_STLB AVERAGE dtMISS LATENCY: 0 cycles
cpu0_STLB PAGE CROSSINGS (TLB HIT):         0 
cpu0_STLB PAGE CROSSINGS (TLB MISS):         0 
cpu0_STLB AVERAGE MISS LATENCY: 248.012 cycles
cpu0_L1D TOTAL       ACCESS:   44962151  HIT:   39552463  MISS:    5409688  iACCESS:          0  iHIT:          0  iMISS:          0  dACCESS:   44423148  dHIT:   39518117  dMISS:    4905031  itACCESS:     123630  itHIT:      14337  itMISS:     109293  dtACCESS:     415373  dtHIT:      20009  dtMISS:     395364
cpu0_L1D LOAD         ACCESS:   20344219  HIT:   18140012  MISS:    2204207  iACCESS:          0  iHIT:          0  iMISS:          0  dACCESS:   20344219  dHIT:   18140012  dMISS:    2204207  itACCESS:          0  itHIT:          0  itMISS:          0  dtACCESS:          0  dtHIT:          0  dtMISS:          0
cpu0_L1D RFO          ACCESS:          0  HIT:          0  MISS:          0  iACCESS:          0  iHIT:          0  iMISS:          0  dACCESS:          0  dHIT:          0  dMISS:          0  itACCESS:          0  itHIT:          0  itMISS:          0  dtACCESS:          0  dtHIT:          0  dtMISS:          0
cpu0_L1D PREFETCH     ACCESS:   13971838  HIT:   11838865  MISS:    2132973  iACCESS:          0  iHIT:          0  iMISS:          0  dACCESS:   13971838  dHIT:   11838865  dMISS:    2132973  itACCESS:          0  itHIT:          0  itMISS:          0  dtACCESS:          0  dtHIT:          0  dtMISS:          0
cpu0_L1D WRITE        ACCESS:   10107091  HIT:    9539240  MISS:     567851  iACCESS:          0  iHIT:          0  iMISS:          0  dACCESS:   10107091  dHIT:    9539240  dMISS:     567851  itACCESS:          0  itHIT:          0  itMISS:          0  dtACCESS:          0  dtHIT:          0  dtMISS:          0
cpu0_L1D TRANSLATION  ACCESS:     539003  HIT:      34346  MISS:     504657  iACCESS:          0  iHIT:          0  iMISS:          0  dACCESS:          0  dHIT:          0  dMISS:          0  itACCESS:     123630  itHIT:      14337  itMISS:     109293  dtACCESS:     415373  dtHIT:      20009  dtMISS:     395364
cpu0_L1D PREFETCH  REQUESTED:   20344219  ISSUED:   18711033  CROSSED:          0  USEFUL:     375973  USELESS:     948730
cpu0_L1D AVERAGE iMISS LATENCY: 0 cycles
cpu0_L1D AVERAGE dMISS LATENCY: 51.8455 cycles
cpu0_L1D AVERAGE itMISS LATENCY: 3.28236 cycles
cpu0_L1D AVERAGE dtMISS LATENCY: 12.5431 cycles
cpu0_L1D PAGE CROSSINGS (TLB HIT):         0 
cpu0_L1D PAGE CROSSINGS (TLB MISS):         0 
cpu0_L1D AVERAGE MISS LATENCY: 67.6709 cycles
cpu0_L2C TOTAL       ACCESS:    8650834  HIT:    4226108  MISS:    4424726  iACCESS:    3792498  iHIT:    2298640  iMISS:    1493858  dACCESS:    4378503  dHIT:    1870100  dMISS:    2508403  itACCESS:     109115  itHIT:      19287  itMISS:      89828  dtACCESS:     370718  dtHIT:      38081  dtMISS:     332637
cpu0_L2C LOAD         ACCESS:    2089016  HIT:    1022891  MISS:    1066125  iACCESS:     852978  iHIT:     539949  iMISS:     313029  dACCESS:    1236038  dHIT:     482942  dMISS:     753096  itACCESS:          0  itHIT:          0  itMISS:          0  dtACCESS:          0  dtHIT:          0  dtMISS:          0
cpu0_L2C RFO          ACCESS:     218498  HIT:      89836  MISS:     128662  iACCESS:          0  iHIT:          0  iMISS:          0  dACCESS:     218498  dHIT:      89836  dMISS:     128662  itACCESS:          0  itHIT:          0  itMISS:          0  dtACCESS:          0  dtHIT:          0  dtMISS:          0
cpu0_L2C PREFETCH     ACCESS:    5514403  HIT:    2710883  MISS:    2803520  iACCESS:    2939520  iHIT:    1758691  iMISS:    1180829  dACCESS:    2574883  dHIT:     952192  dMISS:    1622691  itACCESS:          0  itHIT:          0  itMISS:          0  dtACCESS:          0  dtHIT:          0  dtMISS:          0
cpu0_L2C WRITE        ACCESS:     349084  HIT:     345130  MISS:       3954  iACCESS:          0  iHIT:          0  iMISS:          0  dACCESS:     349084  dHIT:     345130  dMISS:       3954  itACCESS:          0  itHIT:          0  itMISS:          0  dtACCESS:          0  dtHIT:          0  dtMISS:          0
cpu0_L2C TRANSLATION  ACCESS:     479833  HIT:      57368  MISS:     422465  iACCESS:          0  iHIT:          0  iMISS:          0  dACCESS:          0  dHIT:          0  dMISS:          0  itACCESS:     109115  itHIT:      19287  itMISS:      89828  dtACCESS:     370718  dtHIT:      38081  dtMISS:     332637
cpu0_L2C PREFETCH  REQUESTED:    1493032  ISSUED:    1493025  CROSSED:          0  USEFUL:     347755  USELESS:     319362
cpu0_L2C AVERAGE iMISS LATENCY: 39.8638 cycles
cpu0_L2C AVERAGE dMISS LATENCY: 78.2288 cycles
cpu0_L2C AVERAGE itMISS LATENCY: 3.77009 cycles
cpu0_L2C AVERAGE dtMISS LATENCY: 14.501 cycles
cpu0_L2C PAGE CROSSINGS (TLB HIT):         0 
cpu0_L2C PAGE CROSSINGS (TLB MISS):         0 
cpu0_L2C AVERAGE MISS LATENCY: 136.364 cycles
LLC TOTAL       ACCESS:    4431569  HIT:    1409933  MISS:    3021636  iACCESS:    1407530  iHIT:     473206  iMISS:     934324  dACCESS:    2601574  dHIT:     895529  dMISS:    1706045  itACCESS:      89828  itHIT:       6753  itMISS:      83075  dtACCESS:     332637  dtHIT:      34445  dtMISS:     298192
LLC LOAD         ACCESS:    1060538  HIT:     358452  MISS:     702086  iACCESS:     311888  iHIT:     112937  iMISS:     198951  dACCESS:     748650  dHIT:     245515  dMISS:     503135  itACCESS:          0  itHIT:          0  itMISS:          0  dtACCESS:          0  dtHIT:          0  dtMISS:          0
LLC RFO          ACCESS:     128661  HIT:      40976  MISS:      87685  iACCESS:          0  iHIT:          0  iMISS:          0  dACCESS:     128661  dHIT:      40976  dMISS:      87685  itACCESS:          0  itHIT:          0  itMISS:          0  dtACCESS:          0  dtHIT:          0  dtMISS:          0
LLC PREFETCH     ACCESS:    2608020  HIT:     768161  MISS:    1839859  iACCESS:    1095642  iHIT:     360269  iMISS:     735373  dACCESS:    1512378  dHIT:     407892  dMISS:    1104486  itACCESS:          0  itHIT:          0  itMISS:          0  dtACCESS:          0  dtHIT:          0  dtMISS:          0
LLC WRITE        ACCESS:     211885  HIT:     201146  MISS:      10739  iACCESS:          0  iHIT:          0  iMISS:          0  dACCESS:     211885  dHIT:     201146  dMISS:      10739  itACCESS:          0  itHIT:          0  itMISS:          0  dtACCESS:          0  dtHIT:          0  dtMISS:          0
LLC TRANSLATION  ACCESS:     422465  HIT:      41198  MISS:     381267  iACCESS:          0  iHIT:          0  iMISS:          0  dACCESS:          0  dHIT:          0  dMISS:          0  itACCESS:      89828  itHIT:       6753  itMISS:      83075  dtACCESS:     332637  dtHIT:      34445  dtMISS:     298192
LLC PREFETCH  REQUESTED:          0  ISSUED:          0  CROSSED:          0  USEFUL:          0  USELESS:          0
LLC AVERAGE iMISS LATENCY: 49.2035 cycles
LLC AVERAGE dMISS LATENCY: 99.6189 cycles
LLC AVERAGE itMISS LATENCY: 4.9312 cycles
LLC AVERAGE dtMISS LATENCY: 19.0577 cycles
LLC PAGE CROSSINGS (TLB HIT):         0 
LLC PAGE CROSSINGS (TLB MISS):         0 
LLC AVERAGE MISS LATENCY: 172.812 cycles

PageTableWalker TOTAL       ACCESS:     182473  
PageTableWalker AVERAGE LATENCY: 6.54721 cycles
PageTableWalker TOTAL LATENCY: 1194688 cycles

DRAM Statistics
Channel 0
 RQ ROW_BUFFER_HIT:     625874
  ROW_BUFFER_MISS:    2374865
 AVG DBUS CONGESTED CYCLE:    3.64636
 WQ ROW_BUFFER_HIT:      64339
  ROW_BUFFER_MISS:      54654  FULL:          0

