last_page:0x200000000000000
VMEM_RES_CAP:0x100000
PAGE_SIZE:4096
LOG2_PAGE_SIZE:12
LOG2_PAGE_TABLE_SIZE:9
page_table_levels:5
WARNING: physical memory size is smaller than virtual memory size
FDiP enabled with aggresivity 16

*** ChampSim Multicore Out-of-Order Simulator ***

Warmup Instructions: 50000000
Simulation Instructions: 100000000
Number of CPUs: 1
Small page size: 4096
Large page size: 2097152

CPU 0 Bimodal branch predictor
Basic BTB sets: 1024 ways: 8 indirect buffer size: 4096 RAS size: 64
Instruction page size distrubution: 0
Loading instruction page size distribution from /home/bsc/bsc018186/scratch/itp_asplos25_AE/dump/smt_srv12_ap_srv551_ap_1024i.pdst
Data page size distrubution: 0
Loading data page size distribution from /home/bsc/bsc018186/scratch/itp_asplos25_AE/dump/smt_srv12_ap_srv551_ap_1024i.pdst
cpu0_L2C IP-based stride prefetcher
cpu0_L2C is using PTP replacement policy:
	TLB_STRESS_THRESHOLD:0
	PTE_EVICTION_RATIO:0
cpu0_L1D next line prefetcher
CHiRPing...
cpu0_L1I next line prefetcher
Off-chip DRAM Size: 4 GiB Channels: 1 Width: 64-bit Data Rate: 3200 MT/s
Heartbeat CPU 0 instructions: 10000003 cycles: 2500517 heartbeat IPC: 3.99918 cumulative IPC: 3.99918 (Simulation time: 0 hr 0 min 35 sec) 
Heartbeat CPU 0 instructions: 20000002 cycles: 5001016 heartbeat IPC: 3.99921 cumulative IPC: 3.99919 (Simulation time: 0 hr 1 min 12 sec) 
Heartbeat CPU 0 instructions: 30000000 cycles: 7501776 heartbeat IPC: 3.99879 cumulative IPC: 3.99906 (Simulation time: 0 hr 1 min 50 sec) 
Heartbeat CPU 0 instructions: 40000000 cycles: 10002298 heartbeat IPC: 3.99917 cumulative IPC: 3.99909 (Simulation time: 0 hr 2 min 29 sec) 
Heartbeat CPU 0 instructions: 50000000 cycles: 12502638 heartbeat IPC: 3.99946 cumulative IPC: 3.99916 (Simulation time: 0 hr 3 min 8 sec) 
Warmup finished CPU 0 instructions: 50000000 cycles: 12502639 cumulative IPC: 3.99916 (Simulation time: 0 hr 3 min 8 sec) 

Warmup complete CPU 0 instructions: 50000000 cycles: 12502639 (Simulation time: 0 hr 3 min 8 sec) 

Heartbeat CPU 0 instructions: 60000000 cycles: 44579356 heartbeat IPC: 0.311753 cumulative IPC: 0.311753 (Simulation time: 0 hr 4 min 31 sec) 
Heartbeat CPU 0 instructions: 70000000 cycles: 77428212 heartbeat IPC: 0.304425 cumulative IPC: 0.308046 (Simulation time: 0 hr 5 min 56 sec) 
Heartbeat CPU 0 instructions: 80000001 cycles: 109278871 heartbeat IPC: 0.313966 cumulative IPC: 0.309994 (Simulation time: 0 hr 7 min 20 sec) 
Heartbeat CPU 0 instructions: 90000000 cycles: 136633647 heartbeat IPC: 0.365567 cumulative IPC: 0.322241 (Simulation time: 0 hr 8 min 37 sec) 
Heartbeat CPU 0 instructions: 100000000 cycles: 167865982 heartbeat IPC: 0.320181 cumulative IPC: 0.321827 (Simulation time: 0 hr 10 min 0 sec) 
Heartbeat CPU 0 instructions: 110000001 cycles: 198376678 heartbeat IPC: 0.327754 cumulative IPC: 0.3228 (Simulation time: 0 hr 11 min 21 sec) 
Heartbeat CPU 0 instructions: 120000001 cycles: 224792943 heartbeat IPC: 0.378555 cumulative IPC: 0.329738 (Simulation time: 0 hr 12 min 39 sec) 
Heartbeat CPU 0 instructions: 130000001 cycles: 242645314 heartbeat IPC: 0.56015 cumulative IPC: 0.347611 (Simulation time: 0 hr 13 min 47 sec) 
Heartbeat CPU 0 instructions: 140000000 cycles: 261318780 heartbeat IPC: 0.53552 cumulative IPC: 0.361713 (Simulation time: 0 hr 14 min 55 sec) 
Heartbeat CPU 0 instructions: 150000002 cycles: 293766361 heartbeat IPC: 0.30819 cumulative IPC: 0.355539 (Simulation time: 0 hr 16 min 20 sec) 
Simulation finished CPU 0 instructions: 100000002 cycles: 281263723 cumulative IPC: 0.355539 (Simulation time: 0 hr 16 min 20 sec) 

Simulation complete CPU 0 instructions: 100000002 cycles: 281263723 (Simulation time: 0 hr 16 min 20 sec) 


ChampSim completed all CPUs

Saving instructions large page distribution to /home/bsc/bsc018186/scratch/itp_asplos25_AE/dump/smt_srv12_ap_srv551_ap_1024i.pdst...
Saving data large page distribution to /home/bsc/bsc018186/scratch/itp_asplos25_AE/dump/smt_srv12_ap_srv551_ap_1024i.pdst...
=== Simulation ===
CPU 0 runs /gpfs/projects/bsc18/MN4/bsc18/romol/ChampSim/traces/qualcomm_srv/smt_srv12_ap_srv551_ap_1024i.champsimtrace.xz

Region of Interest Statistics

CPU 0 cumulative IPC: 0.355539 instructions: 100000002 cycles: 281263723
CPU 0 Branch Prediction Accuracy: 77.4284% MPKI: 43.7503 Average ROB Occupancy at Mispredict: 10.8308
Branch type MPKI
BRANCH_DIRECT_JUMP: 1.31189
BRANCH_INDIRECT: 23.221
BRANCH_CONDITIONAL: 12.1681
BRANCH_DIRECT_CALL: 2.50058
BRANCH_INDIRECT_CALL: 1.1935
BRANCH_RETURN: 3.35538

Instructions large pages: 0
Instructions small pages: 11842
Large page distribution for instructions: 0%

Data large pages: 0
Data small pages: 9976
Large page distribution for data: 0%

cpu0_L1I TOTAL       ACCESS:   39936628  HIT:   32195396  MISS:    7741232  iACCESS:   39936628  iHIT:   32195396  iMISS:    7741232  dACCESS:          0  dHIT:          0  dMISS:          0  itACCESS:          0  itHIT:          0  itMISS:          0  dtACCESS:          0  dtHIT:          0  dtMISS:          0
cpu0_L1I LOAD         ACCESS:   11371245  HIT:    9270792  MISS:    2100453  iACCESS:   11371245  iHIT:    9270792  iMISS:    2100453  dACCESS:          0  dHIT:          0  dMISS:          0  itACCESS:          0  itHIT:          0  itMISS:          0  dtACCESS:          0  dtHIT:          0  dtMISS:          0
cpu0_L1I RFO          ACCESS:          0  HIT:          0  MISS:          0  iACCESS:          0  iHIT:          0  iMISS:          0  dACCESS:          0  dHIT:          0  dMISS:          0  itACCESS:          0  itHIT:          0  itMISS:          0  dtACCESS:          0  dtHIT:          0  dtMISS:          0
cpu0_L1I PREFETCH     ACCESS:   28565383  HIT:   22924604  MISS:    5640779  iACCESS:   28565383  iHIT:   22924604  iMISS:    5640779  dACCESS:          0  dHIT:          0  dMISS:          0  itACCESS:          0  itHIT:          0  itMISS:          0  dtACCESS:          0  dtHIT:          0  dtMISS:          0
cpu0_L1I WRITE        ACCESS:          0  HIT:          0  MISS:          0  iACCESS:          0  iHIT:          0  iMISS:          0  dACCESS:          0  dHIT:          0  dMISS:          0  itACCESS:          0  itHIT:          0  itMISS:          0  dtACCESS:          0  dtHIT:          0  dtMISS:          0
cpu0_L1I TRANSLATION  ACCESS:          0  HIT:          0  MISS:          0  iACCESS:          0  iHIT:          0  iMISS:          0  dACCESS:          0  dHIT:          0  dMISS:          0  itACCESS:          0  itHIT:          0  itMISS:          0  dtACCESS:          0  dtHIT:          0  dtMISS:          0
cpu0_L1I PREFETCH  REQUESTED:   31238049  ISSUED:   31238035  CROSSED:          0  USEFUL:    1982211  USELESS:     693866
cpu0_L1I AVERAGE iMISS LATENCY: 25.2717 cycles
cpu0_L1I AVERAGE dMISS LATENCY: 0 cycles
cpu0_L1I AVERAGE itMISS LATENCY: 0 cycles
cpu0_L1I AVERAGE dtMISS LATENCY: 0 cycles
cpu0_L1I PAGE CROSSINGS (TLB HIT):         0 
cpu0_L1I PAGE CROSSINGS (TLB MISS):         0 
cpu0_L1I AVERAGE MISS LATENCY: 25.2717 cycles
cpu0_ITLB TOTAL       ACCESS:   33668031  HIT:   31680899  MISS:    1987132  iACCESS:   33668031  iHIT:   31680899  iMISS:    1987132  dACCESS:          0  dHIT:          0  dMISS:          0  itACCESS:          0  itHIT:          0  itMISS:          0  dtACCESS:          0  dtHIT:          0  dtMISS:          0
cpu0_ITLB LOAD         ACCESS:   33668031  HIT:   31680899  MISS:    1987132  iACCESS:   33668031  iHIT:   31680899  iMISS:    1987132  dACCESS:          0  dHIT:          0  dMISS:          0  itACCESS:          0  itHIT:          0  itMISS:          0  dtACCESS:          0  dtHIT:          0  dtMISS:          0
cpu0_ITLB RFO          ACCESS:          0  HIT:          0  MISS:          0  iACCESS:          0  iHIT:          0  iMISS:          0  dACCESS:          0  dHIT:          0  dMISS:          0  itACCESS:          0  itHIT:          0  itMISS:          0  dtACCESS:          0  dtHIT:          0  dtMISS:          0
cpu0_ITLB PREFETCH     ACCESS:          0  HIT:          0  MISS:          0  iACCESS:          0  iHIT:          0  iMISS:          0  dACCESS:          0  dHIT:          0  dMISS:          0  itACCESS:          0  itHIT:          0  itMISS:          0  dtACCESS:          0  dtHIT:          0  dtMISS:          0
cpu0_ITLB WRITE        ACCESS:          0  HIT:          0  MISS:          0  iACCESS:          0  iHIT:          0  iMISS:          0  dACCESS:          0  dHIT:          0  dMISS:          0  itACCESS:          0  itHIT:          0  itMISS:          0  dtACCESS:          0  dtHIT:          0  dtMISS:          0
cpu0_ITLB TRANSLATION  ACCESS:          0  HIT:          0  MISS:          0  iACCESS:          0  iHIT:          0  iMISS:          0  dACCESS:          0  dHIT:          0  dMISS:          0  itACCESS:          0  itHIT:          0  itMISS:          0  dtACCESS:          0  dtHIT:          0  dtMISS:          0
cpu0_ITLB PREFETCH  REQUESTED:          0  ISSUED:          0  CROSSED:          0  USEFUL:     353878  USELESS:      71462
cpu0_ITLB AVERAGE iMISS LATENCY: 10.9844 cycles
cpu0_ITLB AVERAGE dMISS LATENCY: 0 cycles
cpu0_ITLB AVERAGE itMISS LATENCY: 0 cycles
cpu0_ITLB AVERAGE dtMISS LATENCY: 0 cycles
cpu0_ITLB PAGE CROSSINGS (TLB HIT):         0 
cpu0_ITLB PAGE CROSSINGS (TLB MISS):         0 
cpu0_ITLB AVERAGE MISS LATENCY: 10.9844 cycles
cpu0_DTLB TOTAL       ACCESS:   30872010  HIT:   24842100  MISS:    6029910  iACCESS:          0  iHIT:          0  iMISS:          0  dACCESS:   30872010  dHIT:   24842100  dMISS:    6029910  itACCESS:          0  itHIT:          0  itMISS:          0  dtACCESS:          0  dtHIT:          0  dtMISS:          0
cpu0_DTLB LOAD         ACCESS:   30872010  HIT:   24842100  MISS:    6029910  iACCESS:          0  iHIT:          0  iMISS:          0  dACCESS:   30872010  dHIT:   24842100  dMISS:    6029910  itACCESS:          0  itHIT:          0  itMISS:          0  dtACCESS:          0  dtHIT:          0  dtMISS:          0
cpu0_DTLB RFO          ACCESS:          0  HIT:          0  MISS:          0  iACCESS:          0  iHIT:          0  iMISS:          0  dACCESS:          0  dHIT:          0  dMISS:          0  itACCESS:          0  itHIT:          0  itMISS:          0  dtACCESS:          0  dtHIT:          0  dtMISS:          0
cpu0_DTLB PREFETCH     ACCESS:          0  HIT:          0  MISS:          0  iACCESS:          0  iHIT:          0  iMISS:          0  dACCESS:          0  dHIT:          0  dMISS:          0  itACCESS:          0  itHIT:          0  itMISS:          0  dtACCESS:          0  dtHIT:          0  dtMISS:          0
cpu0_DTLB WRITE        ACCESS:          0  HIT:          0  MISS:          0  iACCESS:          0  iHIT:          0  iMISS:          0  dACCESS:          0  dHIT:          0  dMISS:          0  itACCESS:          0  itHIT:          0  itMISS:          0  dtACCESS:          0  dtHIT:          0  dtMISS:          0
cpu0_DTLB TRANSLATION  ACCESS:          0  HIT:          0  MISS:          0  iACCESS:          0  iHIT:          0  iMISS:          0  dACCESS:          0  dHIT:          0  dMISS:          0  itACCESS:          0  itHIT:          0  itMISS:          0  dtACCESS:          0  dtHIT:          0  dtMISS:          0
cpu0_DTLB PREFETCH  REQUESTED:          0  ISSUED:          0  CROSSED:          0  USEFUL:          0  USELESS:          0
cpu0_DTLB AVERAGE iMISS LATENCY: 0 cycles
cpu0_DTLB AVERAGE dMISS LATENCY: 14.706 cycles
cpu0_DTLB AVERAGE itMISS LATENCY: 0 cycles
cpu0_DTLB AVERAGE dtMISS LATENCY: 0 cycles
cpu0_DTLB PAGE CROSSINGS (TLB HIT):         0 
cpu0_DTLB PAGE CROSSINGS (TLB MISS):         0 
cpu0_DTLB AVERAGE MISS LATENCY: 14.706 cycles
cpu0_STLB TOTAL       ACCESS:    3633634  HIT:    3303758  MISS:     329876  iACCESS:     425345  iHIT:     318311  iMISS:     107034  dACCESS:    3208289  dHIT:    2985447  dMISS:     222842  itACCESS:          0  itHIT:          0  itMISS:          0  dtACCESS:          0  dtHIT:          0  dtMISS:          0
cpu0_STLB LOAD         ACCESS:    3633634  HIT:    3303758  MISS:     329876  iACCESS:     425345  iHIT:     318311  iMISS:     107034  dACCESS:    3208289  dHIT:    2985447  dMISS:     222842  itACCESS:          0  itHIT:          0  itMISS:          0  dtACCESS:          0  dtHIT:          0  dtMISS:          0
cpu0_STLB RFO          ACCESS:          0  HIT:          0  MISS:          0  iACCESS:          0  iHIT:          0  iMISS:          0  dACCESS:          0  dHIT:          0  dMISS:          0  itACCESS:          0  itHIT:          0  itMISS:          0  dtACCESS:          0  dtHIT:          0  dtMISS:          0
cpu0_STLB PREFETCH     ACCESS:          0  HIT:          0  MISS:          0  iACCESS:          0  iHIT:          0  iMISS:          0  dACCESS:          0  dHIT:          0  dMISS:          0  itACCESS:          0  itHIT:          0  itMISS:          0  dtACCESS:          0  dtHIT:          0  dtMISS:          0
cpu0_STLB WRITE        ACCESS:          0  HIT:          0  MISS:          0  iACCESS:          0  iHIT:          0  iMISS:          0  dACCESS:          0  dHIT:          0  dMISS:          0  itACCESS:          0  itHIT:          0  itMISS:          0  dtACCESS:          0  dtHIT:          0  dtMISS:          0
cpu0_STLB TRANSLATION  ACCESS:          0  HIT:          0  MISS:          0  iACCESS:          0  iHIT:          0  iMISS:          0  dACCESS:          0  dHIT:          0  dMISS:          0  itACCESS:          0  itHIT:          0  itMISS:          0  dtACCESS:          0  dtHIT:          0  dtMISS:          0
cpu0_STLB PREFETCH  REQUESTED:          0  ISSUED:          0  CROSSED:          0  USEFUL:          0  USELESS:          0
cpu0_STLB AVERAGE iMISS LATENCY: 55.8403 cycles
cpu0_STLB AVERAGE dMISS LATENCY: 190.147 cycles
cpu0_STLB AVERAGE itMISS LATENCY: 0 cycles
cpu0_STLB AVERAGE dtMISS LATENCY: 0 cycles
cpu0_STLB PAGE CROSSINGS (TLB HIT):         0 
cpu0_STLB PAGE CROSSINGS (TLB MISS):         0 
cpu0_STLB AVERAGE MISS LATENCY: 245.988 cycles
cpu0_L1D TOTAL       ACCESS:   47931633  HIT:   39779089  MISS:    8152544  iACCESS:          0  iHIT:          0  iMISS:          0  dACCESS:   47449645  dHIT:   39750812  dMISS:    7698833  itACCESS:     119816  itHIT:      13178  itMISS:     106638  dtACCESS:     362172  dtHIT:      15099  dtMISS:     347073
cpu0_L1D LOAD         ACCESS:   22813038  HIT:   18490342  MISS:    4322696  iACCESS:          0  iHIT:          0  iMISS:          0  dACCESS:   22813038  dHIT:   18490342  dMISS:    4322696  itACCESS:          0  itHIT:          0  itMISS:          0  dtACCESS:          0  dtHIT:          0  dtMISS:          0
cpu0_L1D RFO          ACCESS:          0  HIT:          0  MISS:          0  iACCESS:          0  iHIT:          0  iMISS:          0  dACCESS:          0  dHIT:          0  dMISS:          0  itACCESS:          0  itHIT:          0  itMISS:          0  dtACCESS:          0  dtHIT:          0  dtMISS:          0
cpu0_L1D PREFETCH     ACCESS:   14837220  HIT:   12024326  MISS:    2812894  iACCESS:          0  iHIT:          0  iMISS:          0  dACCESS:   14837220  dHIT:   12024326  dMISS:    2812894  itACCESS:          0  itHIT:          0  itMISS:          0  dtACCESS:          0  dtHIT:          0  dtMISS:          0
cpu0_L1D WRITE        ACCESS:    9799387  HIT:    9236144  MISS:     563243  iACCESS:          0  iHIT:          0  iMISS:          0  dACCESS:    9799387  dHIT:    9236144  dMISS:     563243  itACCESS:          0  itHIT:          0  itMISS:          0  dtACCESS:          0  dtHIT:          0  dtMISS:          0
cpu0_L1D TRANSLATION  ACCESS:     481988  HIT:      28277  MISS:     453711  iACCESS:          0  iHIT:          0  iMISS:          0  dACCESS:          0  dHIT:          0  dMISS:          0  itACCESS:     119816  itHIT:      13178  itMISS:     106638  dtACCESS:     362172  dtHIT:      15099  dtMISS:     347073
cpu0_L1D PREFETCH  REQUESTED:   22813038  ISSUED:   18989947  CROSSED:          0  USEFUL:     332275  USELESS:    1156533
cpu0_L1D AVERAGE iMISS LATENCY: 0 cycles
cpu0_L1D AVERAGE dMISS LATENCY: 34.1623 cycles
cpu0_L1D AVERAGE itMISS LATENCY: 2.12568 cycles
cpu0_L1D AVERAGE dtMISS LATENCY: 7.16252 cycles
cpu0_L1D PAGE CROSSINGS (TLB HIT):         0 
cpu0_L1D PAGE CROSSINGS (TLB MISS):         0 
cpu0_L1D AVERAGE MISS LATENCY: 43.4505 cycles
cpu0_L2C TOTAL       ACCESS:    9960003  HIT:    5966700  MISS:    3993303  iACCESS:    3390776  iHIT:    1998355  iMISS:    1392421  dACCESS:    6146246  dHIT:    3915440  dMISS:    2230806  itACCESS:     106082  itHIT:      18288  itMISS:      87794  dtACCESS:     316899  dtHIT:      34617  dtMISS:     282282
cpu0_L2C LOAD         ACCESS:    3661238  HIT:    2728748  MISS:     932490  iACCESS:     747522  iHIT:     458141  iMISS:     289381  dACCESS:    2913716  dHIT:    2270607  dMISS:     643109  itACCESS:          0  itHIT:          0  itMISS:          0  dtACCESS:          0  dtHIT:          0  dtMISS:          0
cpu0_L2C RFO          ACCESS:     229852  HIT:     112935  MISS:     116917  iACCESS:          0  iHIT:          0  iMISS:          0  dACCESS:     229852  dHIT:     112935  dMISS:     116917  itACCESS:          0  itHIT:          0  itMISS:          0  dtACCESS:          0  dtHIT:          0  dtMISS:          0
cpu0_L2C PREFETCH     ACCESS:    5327258  HIT:    2759031  MISS:    2568227  iACCESS:    2643254  iHIT:    1540214  iMISS:    1103040  dACCESS:    2684004  dHIT:    1218817  dMISS:    1465187  itACCESS:          0  itHIT:          0  itMISS:          0  dtACCESS:          0  dtHIT:          0  dtMISS:          0
cpu0_L2C WRITE        ACCESS:     318674  HIT:     313081  MISS:       5593  iACCESS:          0  iHIT:          0  iMISS:          0  dACCESS:     318674  dHIT:     313081  dMISS:       5593  itACCESS:          0  itHIT:          0  itMISS:          0  dtACCESS:          0  dtHIT:          0  dtMISS:          0
cpu0_L2C TRANSLATION  ACCESS:     422981  HIT:      52905  MISS:     370076  iACCESS:          0  iHIT:          0  iMISS:          0  dACCESS:          0  dHIT:          0  dMISS:          0  itACCESS:     106082  itHIT:      18288  itMISS:      87794  dtACCESS:     316899  dtHIT:      34617  dtMISS:     282282
cpu0_L2C PREFETCH  REQUESTED:    1403592  ISSUED:    1403514  CROSSED:          0  USEFUL:     323140  USELESS:     298591
cpu0_L2C AVERAGE iMISS LATENCY: 41.91 cycles
cpu0_L2C AVERAGE dMISS LATENCY: 78.6052 cycles
cpu0_L2C AVERAGE itMISS LATENCY: 4.07789 cycles
cpu0_L2C AVERAGE dtMISS LATENCY: 13.8335 cycles
cpu0_L2C PAGE CROSSINGS (TLB HIT):         0 
cpu0_L2C PAGE CROSSINGS (TLB MISS):         0 
cpu0_L2C AVERAGE MISS LATENCY: 138.427 cycles
LLC TOTAL       ACCESS:    3971180  HIT:    1167975  MISS:    2803205  iACCESS:    1311057  iHIT:     406723  iMISS:     904334  dACCESS:    2290047  dHIT:     727704  dMISS:    1562343  itACCESS:      87794  itHIT:       6398  itMISS:      81396  dtACCESS:     282282  dtHIT:      27150  dtMISS:     255132
LLC LOAD         ACCESS:     926221  HIT:     288432  MISS:     637789  iACCESS:     288454  iHIT:      97533  iMISS:     190921  dACCESS:     637767  dHIT:     190899  dMISS:     446868  itACCESS:          0  itHIT:          0  itMISS:          0  dtACCESS:          0  dtHIT:          0  dtMISS:          0
LLC RFO          ACCESS:     116908  HIT:      34424  MISS:      82484  iACCESS:          0  iHIT:          0  iMISS:          0  dACCESS:     116908  dHIT:      34424  dMISS:      82484  itACCESS:          0  itHIT:          0  itMISS:          0  dtACCESS:          0  dtHIT:          0  dtMISS:          0
LLC PREFETCH     ACCESS:    2378014  HIT:     641075  MISS:    1736939  iACCESS:    1022603  iHIT:     309190  iMISS:     713413  dACCESS:    1355411  dHIT:     331885  dMISS:    1023526  itACCESS:          0  itHIT:          0  itMISS:          0  dtACCESS:          0  dtHIT:          0  dtMISS:          0
LLC WRITE        ACCESS:     179961  HIT:     170496  MISS:       9465  iACCESS:          0  iHIT:          0  iMISS:          0  dACCESS:     179961  dHIT:     170496  dMISS:       9465  itACCESS:          0  itHIT:          0  itMISS:          0  dtACCESS:          0  dtHIT:          0  dtMISS:          0
LLC TRANSLATION  ACCESS:     370076  HIT:      33548  MISS:     336528  iACCESS:          0  iHIT:          0  iMISS:          0  dACCESS:          0  dHIT:          0  dMISS:          0  itACCESS:      87794  itHIT:       6398  itMISS:      81396  dtACCESS:     282282  dtHIT:      27150  dtMISS:     255132
LLC PREFETCH  REQUESTED:          0  ISSUED:          0  CROSSED:          0  USEFUL:          0  USELESS:          0
LLC AVERAGE iMISS LATENCY: 50.4964 cycles
LLC AVERAGE dMISS LATENCY: 97.9735 cycles
LLC AVERAGE itMISS LATENCY: 5.18792 cycles
LLC AVERAGE dtMISS LATENCY: 17.7154 cycles
LLC PAGE CROSSINGS (TLB HIT):         0 
LLC PAGE CROSSINGS (TLB MISS):         0 
LLC AVERAGE MISS LATENCY: 171.374 cycles

PageTableWalker TOTAL       ACCESS:     186985  
PageTableWalker AVERAGE LATENCY: 6.40994 cycles
PageTableWalker TOTAL LATENCY: 1198561 cycles

DRAM Statistics
Channel 0
 RQ ROW_BUFFER_HIT:     613930
  ROW_BUFFER_MISS:    2163946
 AVG DBUS CONGESTED CYCLE:    3.64947
 WQ ROW_BUFFER_HIT:      58020
  ROW_BUFFER_MISS:      47224  FULL:          0

