last_page:0x200000000000000
VMEM_RES_CAP:0x100000
PAGE_SIZE:4096
LOG2_PAGE_SIZE:12
LOG2_PAGE_TABLE_SIZE:9
page_table_levels:5
WARNING: physical memory size is smaller than virtual memory size
FDiP enabled with aggresivity 16

*** ChampSim Multicore Out-of-Order Simulator ***

Warmup Instructions: 50000000
Simulation Instructions: 100000000
Number of CPUs: 1
Small page size: 4096
Large page size: 2097152

CPU 0 Bimodal branch predictor
Basic BTB sets: 1024 ways: 8 indirect buffer size: 4096 RAS size: 64
Instruction page size distrubution: 0
Loading instruction page size distribution from /home/bsc/bsc018186/scratch/itp_asplos25_AE/dump/smt_srv540_ap_srv346_ap_1024i.pdst
Data page size distrubution: 0
Loading data page size distribution from /home/bsc/bsc018186/scratch/itp_asplos25_AE/dump/smt_srv540_ap_srv346_ap_1024i.pdst
cpu0_L2C IP-based stride prefetcher
cpu0_L2C is using xPTP/LRU
	TLB_LOWER_STRESS_THRESHOLD:1
	TLB_UPPER_STRESS_THRESHOLD:4
	MIN_EVICTION_POSITION:4
cpu0_L1D next line prefetcher
cpu0_STLB using iTP with max lru@8
cpu0_STLB using iTP with instr@0 and data@2
Init sat counter with 3 bits (max:50).
cpu0_L1I next line prefetcher
Off-chip DRAM Size: 4 GiB Channels: 1 Width: 64-bit Data Rate: 3200 MT/s
Heartbeat CPU 0 instructions: 10000002 cycles: 2500265 heartbeat IPC: 3.99958 cumulative IPC: 3.99958 (Simulation time: 0 hr 0 min 36 sec) 
Heartbeat CPU 0 instructions: 20000001 cycles: 5000416 heartbeat IPC: 3.99976 cumulative IPC: 3.99967 (Simulation time: 0 hr 1 min 15 sec) 
Heartbeat CPU 0 instructions: 30000000 cycles: 7500649 heartbeat IPC: 3.99963 cumulative IPC: 3.99966 (Simulation time: 0 hr 1 min 54 sec) 
Heartbeat CPU 0 instructions: 40000001 cycles: 10000755 heartbeat IPC: 3.99984 cumulative IPC: 3.9997 (Simulation time: 0 hr 2 min 33 sec) 
Heartbeat CPU 0 instructions: 50000002 cycles: 12500808 heartbeat IPC: 3.99992 cumulative IPC: 3.99975 (Simulation time: 0 hr 3 min 12 sec) 
Warmup finished CPU 0 instructions: 50000002 cycles: 12500809 cumulative IPC: 3.99975 (Simulation time: 0 hr 3 min 12 sec) 

Warmup complete CPU 0 instructions: 50000002 cycles: 12500809 (Simulation time: 0 hr 3 min 12 sec) 

Heartbeat CPU 0 instructions: 60000000 cycles: 38134985 heartbeat IPC: 0.390105 cumulative IPC: 0.390105 (Simulation time: 0 hr 4 min 29 sec) 
Heartbeat CPU 0 instructions: 70000003 cycles: 63305182 heartbeat IPC: 0.397296 cumulative IPC: 0.393667 (Simulation time: 0 hr 5 min 45 sec) 
Heartbeat CPU 0 instructions: 80000002 cycles: 89176850 heartbeat IPC: 0.386524 cumulative IPC: 0.391257 (Simulation time: 0 hr 7 min 3 sec) 
Heartbeat CPU 0 instructions: 90000000 cycles: 114252247 heartbeat IPC: 0.398798 cumulative IPC: 0.393115 (Simulation time: 0 hr 8 min 19 sec) 
Heartbeat CPU 0 instructions: 100000002 cycles: 140629880 heartbeat IPC: 0.37911 cumulative IPC: 0.390232 (Simulation time: 0 hr 9 min 37 sec) 
Heartbeat CPU 0 instructions: 110000000 cycles: 166287835 heartbeat IPC: 0.389743 cumulative IPC: 0.39015 (Simulation time: 0 hr 10 min 54 sec) 
Heartbeat CPU 0 instructions: 120000000 cycles: 191476212 heartbeat IPC: 0.397009 cumulative IPC: 0.391116 (Simulation time: 0 hr 12 min 10 sec) 
Heartbeat CPU 0 instructions: 130000001 cycles: 216861456 heartbeat IPC: 0.39393 cumulative IPC: 0.391465 (Simulation time: 0 hr 13 min 28 sec) 
Heartbeat CPU 0 instructions: 140000002 cycles: 242527629 heartbeat IPC: 0.389618 cumulative IPC: 0.391259 (Simulation time: 0 hr 14 min 46 sec) 
Heartbeat CPU 0 instructions: 150000001 cycles: 267035087 heartbeat IPC: 0.40804 cumulative IPC: 0.392875 (Simulation time: 0 hr 16 min 2 sec) 
Simulation finished CPU 0 instructions: 100000004 cycles: 254534280 cumulative IPC: 0.392875 (Simulation time: 0 hr 16 min 2 sec) 

Simulation complete CPU 0 instructions: 100000004 cycles: 254534280 (Simulation time: 0 hr 16 min 2 sec) 


ChampSim completed all CPUs

Saving instructions large page distribution to /home/bsc/bsc018186/scratch/itp_asplos25_AE/dump/smt_srv540_ap_srv346_ap_1024i.pdst...
Saving data large page distribution to /home/bsc/bsc018186/scratch/itp_asplos25_AE/dump/smt_srv540_ap_srv346_ap_1024i.pdst...
=== Simulation ===
CPU 0 runs /gpfs/projects/bsc18/MN4/bsc18/romol/ChampSim/traces/qualcomm_srv/smt_srv540_ap_srv346_ap_1024i.champsimtrace.xz

Region of Interest Statistics

CPU 0 cumulative IPC: 0.392875 instructions: 100000004 cycles: 254534280
CPU 0 Branch Prediction Accuracy: 76.1538% MPKI: 42.8721 Average ROB Occupancy at Mispredict: 11.3394
Branch type MPKI
BRANCH_DIRECT_JUMP: 1.27546
BRANCH_INDIRECT: 22.3244
BRANCH_CONDITIONAL: 12.4761
BRANCH_DIRECT_CALL: 2.4631
BRANCH_INDIRECT_CALL: 0.92032
BRANCH_RETURN: 3.4127

Instructions large pages: 0
Instructions small pages: 12840
Large page distribution for instructions: 0%

Data large pages: 0
Data small pages: 11591
Large page distribution for data: 0%

cpu0_L1I TOTAL       ACCESS:   39013641  HIT:   30172206  MISS:    8841435  iACCESS:   39013641  iHIT:   30172206  iMISS:    8841435  dACCESS:          0  dHIT:          0  dMISS:          0  itACCESS:          0  itHIT:          0  itMISS:          0  dtACCESS:          0  dtHIT:          0  dtMISS:          0
cpu0_L1I LOAD         ACCESS:   11706421  HIT:    9295054  MISS:    2411367  iACCESS:   11706421  iHIT:    9295054  iMISS:    2411367  dACCESS:          0  dHIT:          0  dMISS:          0  itACCESS:          0  itHIT:          0  itMISS:          0  dtACCESS:          0  dtHIT:          0  dtMISS:          0
cpu0_L1I RFO          ACCESS:          0  HIT:          0  MISS:          0  iACCESS:          0  iHIT:          0  iMISS:          0  dACCESS:          0  dHIT:          0  dMISS:          0  itACCESS:          0  itHIT:          0  itMISS:          0  dtACCESS:          0  dtHIT:          0  dtMISS:          0
cpu0_L1I PREFETCH     ACCESS:   27307220  HIT:   20877152  MISS:    6430068  iACCESS:   27307220  iHIT:   20877152  iMISS:    6430068  dACCESS:          0  dHIT:          0  dMISS:          0  itACCESS:          0  itHIT:          0  itMISS:          0  dtACCESS:          0  dtHIT:          0  dtMISS:          0
cpu0_L1I WRITE        ACCESS:          0  HIT:          0  MISS:          0  iACCESS:          0  iHIT:          0  iMISS:          0  dACCESS:          0  dHIT:          0  dMISS:          0  itACCESS:          0  itHIT:          0  itMISS:          0  dtACCESS:          0  dtHIT:          0  dtMISS:          0
cpu0_L1I TRANSLATION  ACCESS:          0  HIT:          0  MISS:          0  iACCESS:          0  iHIT:          0  iMISS:          0  dACCESS:          0  dHIT:          0  dMISS:          0  itACCESS:          0  itHIT:          0  itMISS:          0  dtACCESS:          0  dtHIT:          0  dtMISS:          0
cpu0_L1I PREFETCH  REQUESTED:   30080529  ISSUED:   30080243  CROSSED:          0  USEFUL:    2179492  USELESS:     744088
cpu0_L1I AVERAGE iMISS LATENCY: 21.5562 cycles
cpu0_L1I AVERAGE dMISS LATENCY: 0 cycles
cpu0_L1I AVERAGE itMISS LATENCY: 0 cycles
cpu0_L1I AVERAGE dtMISS LATENCY: 0 cycles
cpu0_L1I PAGE CROSSINGS (TLB HIT):         0 
cpu0_L1I PAGE CROSSINGS (TLB MISS):         0 
cpu0_L1I AVERAGE MISS LATENCY: 21.5562 cycles
cpu0_ITLB TOTAL       ACCESS:   32842847  HIT:   30668325  MISS:    2174522  iACCESS:   32842847  iHIT:   30668325  iMISS:    2174522  dACCESS:          0  dHIT:          0  dMISS:          0  itACCESS:          0  itHIT:          0  itMISS:          0  dtACCESS:          0  dtHIT:          0  dtMISS:          0
cpu0_ITLB LOAD         ACCESS:   32842847  HIT:   30668325  MISS:    2174522  iACCESS:   32842847  iHIT:   30668325  iMISS:    2174522  dACCESS:          0  dHIT:          0  dMISS:          0  itACCESS:          0  itHIT:          0  itMISS:          0  dtACCESS:          0  dtHIT:          0  dtMISS:          0
cpu0_ITLB RFO          ACCESS:          0  HIT:          0  MISS:          0  iACCESS:          0  iHIT:          0  iMISS:          0  dACCESS:          0  dHIT:          0  dMISS:          0  itACCESS:          0  itHIT:          0  itMISS:          0  dtACCESS:          0  dtHIT:          0  dtMISS:          0
cpu0_ITLB PREFETCH     ACCESS:          0  HIT:          0  MISS:          0  iACCESS:          0  iHIT:          0  iMISS:          0  dACCESS:          0  dHIT:          0  dMISS:          0  itACCESS:          0  itHIT:          0  itMISS:          0  dtACCESS:          0  dtHIT:          0  dtMISS:          0
cpu0_ITLB WRITE        ACCESS:          0  HIT:          0  MISS:          0  iACCESS:          0  iHIT:          0  iMISS:          0  dACCESS:          0  dHIT:          0  dMISS:          0  itACCESS:          0  itHIT:          0  itMISS:          0  dtACCESS:          0  dtHIT:          0  dtMISS:          0
cpu0_ITLB TRANSLATION  ACCESS:          0  HIT:          0  MISS:          0  iACCESS:          0  iHIT:          0  iMISS:          0  dACCESS:          0  dHIT:          0  dMISS:          0  itACCESS:          0  itHIT:          0  itMISS:          0  dtACCESS:          0  dtHIT:          0  dtMISS:          0
cpu0_ITLB PREFETCH  REQUESTED:          0  ISSUED:          0  CROSSED:          0  USEFUL:     379651  USELESS:      76940
cpu0_ITLB AVERAGE iMISS LATENCY: 5.39963 cycles
cpu0_ITLB AVERAGE dMISS LATENCY: 0 cycles
cpu0_ITLB AVERAGE itMISS LATENCY: 0 cycles
cpu0_ITLB AVERAGE dtMISS LATENCY: 0 cycles
cpu0_ITLB PAGE CROSSINGS (TLB HIT):         0 
cpu0_ITLB PAGE CROSSINGS (TLB MISS):         0 
cpu0_ITLB AVERAGE MISS LATENCY: 5.39963 cycles
cpu0_DTLB TOTAL       ACCESS:   28744270  HIT:   25093853  MISS:    3650417  iACCESS:          0  iHIT:          0  iMISS:          0  dACCESS:   28744270  dHIT:   25093853  dMISS:    3650417  itACCESS:          0  itHIT:          0  itMISS:          0  dtACCESS:          0  dtHIT:          0  dtMISS:          0
cpu0_DTLB LOAD         ACCESS:   28744270  HIT:   25093853  MISS:    3650417  iACCESS:          0  iHIT:          0  iMISS:          0  dACCESS:   28744270  dHIT:   25093853  dMISS:    3650417  itACCESS:          0  itHIT:          0  itMISS:          0  dtACCESS:          0  dtHIT:          0  dtMISS:          0
cpu0_DTLB RFO          ACCESS:          0  HIT:          0  MISS:          0  iACCESS:          0  iHIT:          0  iMISS:          0  dACCESS:          0  dHIT:          0  dMISS:          0  itACCESS:          0  itHIT:          0  itMISS:          0  dtACCESS:          0  dtHIT:          0  dtMISS:          0
cpu0_DTLB PREFETCH     ACCESS:          0  HIT:          0  MISS:          0  iACCESS:          0  iHIT:          0  iMISS:          0  dACCESS:          0  dHIT:          0  dMISS:          0  itACCESS:          0  itHIT:          0  itMISS:          0  dtACCESS:          0  dtHIT:          0  dtMISS:          0
cpu0_DTLB WRITE        ACCESS:          0  HIT:          0  MISS:          0  iACCESS:          0  iHIT:          0  iMISS:          0  dACCESS:          0  dHIT:          0  dMISS:          0  itACCESS:          0  itHIT:          0  itMISS:          0  dtACCESS:          0  dtHIT:          0  dtMISS:          0
cpu0_DTLB TRANSLATION  ACCESS:          0  HIT:          0  MISS:          0  iACCESS:          0  iHIT:          0  iMISS:          0  dACCESS:          0  dHIT:          0  dMISS:          0  itACCESS:          0  itHIT:          0  itMISS:          0  dtACCESS:          0  dtHIT:          0  dtMISS:          0
cpu0_DTLB PREFETCH  REQUESTED:          0  ISSUED:          0  CROSSED:          0  USEFUL:          0  USELESS:          0
cpu0_DTLB AVERAGE iMISS LATENCY: 0 cycles
cpu0_DTLB AVERAGE dMISS LATENCY: 17.5691 cycles
cpu0_DTLB AVERAGE itMISS LATENCY: 0 cycles
cpu0_DTLB AVERAGE dtMISS LATENCY: 0 cycles
cpu0_DTLB PAGE CROSSINGS (TLB HIT):         0 
cpu0_DTLB PAGE CROSSINGS (TLB MISS):         0 
cpu0_DTLB AVERAGE MISS LATENCY: 17.5691 cycles
cpu0_STLB TOTAL       ACCESS:    2568706  HIT:    2210927  MISS:     357779  iACCESS:     456599  iHIT:     405235  iMISS:      51364  dACCESS:    2112107  dHIT:    1805692  dMISS:     306415  itACCESS:          0  itHIT:          0  itMISS:          0  dtACCESS:          0  dtHIT:          0  dtMISS:          0
cpu0_STLB LOAD         ACCESS:    2568706  HIT:    2210927  MISS:     357779  iACCESS:     456599  iHIT:     405235  iMISS:      51364  dACCESS:    2112107  dHIT:    1805692  dMISS:     306415  itACCESS:          0  itHIT:          0  itMISS:          0  dtACCESS:          0  dtHIT:          0  dtMISS:          0
cpu0_STLB RFO          ACCESS:          0  HIT:          0  MISS:          0  iACCESS:          0  iHIT:          0  iMISS:          0  dACCESS:          0  dHIT:          0  dMISS:          0  itACCESS:          0  itHIT:          0  itMISS:          0  dtACCESS:          0  dtHIT:          0  dtMISS:          0
cpu0_STLB PREFETCH     ACCESS:          0  HIT:          0  MISS:          0  iACCESS:          0  iHIT:          0  iMISS:          0  dACCESS:          0  dHIT:          0  dMISS:          0  itACCESS:          0  itHIT:          0  itMISS:          0  dtACCESS:          0  dtHIT:          0  dtMISS:          0
cpu0_STLB WRITE        ACCESS:          0  HIT:          0  MISS:          0  iACCESS:          0  iHIT:          0  iMISS:          0  dACCESS:          0  dHIT:          0  dMISS:          0  itACCESS:          0  itHIT:          0  itMISS:          0  dtACCESS:          0  dtHIT:          0  dtMISS:          0
cpu0_STLB TRANSLATION  ACCESS:          0  HIT:          0  MISS:          0  iACCESS:          0  iHIT:          0  iMISS:          0  dACCESS:          0  dHIT:          0  dMISS:          0  itACCESS:          0  itHIT:          0  itMISS:          0  dtACCESS:          0  dtHIT:          0  dtMISS:          0
cpu0_STLB PREFETCH  REQUESTED:          0  ISSUED:          0  CROSSED:          0  USEFUL:          0  USELESS:          0
cpu0_STLB AVERAGE iMISS LATENCY: 22.8019 cycles
cpu0_STLB AVERAGE dMISS LATENCY: 131.664 cycles
cpu0_STLB AVERAGE itMISS LATENCY: 0 cycles
cpu0_STLB AVERAGE dtMISS LATENCY: 0 cycles
cpu0_STLB PAGE CROSSINGS (TLB HIT):         0 
cpu0_STLB PAGE CROSSINGS (TLB MISS):         0 
cpu0_STLB AVERAGE MISS LATENCY: 154.466 cycles
cpu0_L1D TOTAL       ACCESS:   44105018  HIT:   38907803  MISS:    5197215  iACCESS:          0  iHIT:          0  iMISS:          0  dACCESS:   43559164  dHIT:   38877598  dMISS:    4681566  itACCESS:      60921  itHIT:       5115  itMISS:      55806  dtACCESS:     484933  dtHIT:      25090  dtMISS:     459843
cpu0_L1D LOAD         ACCESS:   19916275  HIT:   17824827  MISS:    2091448  iACCESS:          0  iHIT:          0  iMISS:          0  dACCESS:   19916275  dHIT:   17824827  dMISS:    2091448  itACCESS:          0  itHIT:          0  itMISS:          0  dtACCESS:          0  dtHIT:          0  dtMISS:          0
cpu0_L1D RFO          ACCESS:          0  HIT:          0  MISS:          0  iACCESS:          0  iHIT:          0  iMISS:          0  dACCESS:          0  dHIT:          0  dMISS:          0  itACCESS:          0  itHIT:          0  itMISS:          0  dtACCESS:          0  dtHIT:          0  dtMISS:          0
cpu0_L1D PREFETCH     ACCESS:   13511087  HIT:   11474296  MISS:    2036791  iACCESS:          0  iHIT:          0  iMISS:          0  dACCESS:   13511087  dHIT:   11474296  dMISS:    2036791  itACCESS:          0  itHIT:          0  itMISS:          0  dtACCESS:          0  dtHIT:          0  dtMISS:          0
cpu0_L1D WRITE        ACCESS:   10131802  HIT:    9578475  MISS:     553327  iACCESS:          0  iHIT:          0  iMISS:          0  dACCESS:   10131802  dHIT:    9578475  dMISS:     553327  itACCESS:          0  itHIT:          0  itMISS:          0  dtACCESS:          0  dtHIT:          0  dtMISS:          0
cpu0_L1D TRANSLATION  ACCESS:     545854  HIT:      30205  MISS:     515649  iACCESS:          0  iHIT:          0  iMISS:          0  dACCESS:          0  dHIT:          0  dMISS:          0  itACCESS:      60921  itHIT:       5115  itMISS:      55806  dtACCESS:     484933  dtHIT:      25090  dtMISS:     459843
cpu0_L1D PREFETCH  REQUESTED:   19916275  ISSUED:   18232603  CROSSED:          0  USEFUL:     358272  USELESS:     922977
cpu0_L1D AVERAGE iMISS LATENCY: 0 cycles
cpu0_L1D AVERAGE dMISS LATENCY: 49.3136 cycles
cpu0_L1D AVERAGE itMISS LATENCY: 1.46911 cycles
cpu0_L1D AVERAGE dtMISS LATENCY: 8.00552 cycles
cpu0_L1D PAGE CROSSINGS (TLB HIT):         0 
cpu0_L1D PAGE CROSSINGS (TLB MISS):         0 
cpu0_L1D AVERAGE MISS LATENCY: 58.7882 cycles
cpu0_L2C TOTAL       ACCESS:    8493316  HIT:    2545126  MISS:    5948190  iACCESS:    3718387  iHIT:    1428168  iMISS:    2290219  dACCESS:    4281058  dHIT:     881651  dMISS:    3399407  itACCESS:      55607  itHIT:      13330  itMISS:      42277  dtACCESS:     438264  dtHIT:     221977  dtMISS:     216287
cpu0_L2C LOAD         ACCESS:    2017720  HIT:     491396  MISS:    1526324  iACCESS:     832006  iHIT:     292469  iMISS:     539537  dACCESS:    1185714  dHIT:     198927  dMISS:     986787  itACCESS:          0  itHIT:          0  itMISS:          0  dtACCESS:          0  dtHIT:          0  dtMISS:          0
cpu0_L2C RFO          ACCESS:     214035  HIT:      34037  MISS:     179998  iACCESS:          0  iHIT:          0  iMISS:          0  dACCESS:     214035  dHIT:      34037  dMISS:     179998  itACCESS:          0  itHIT:          0  itMISS:          0  dtACCESS:          0  dtHIT:          0  dtMISS:          0
cpu0_L2C PREFETCH     ACCESS:    5421671  HIT:    1654686  MISS:    3766985  iACCESS:    2886381  iHIT:    1135699  iMISS:    1750682  dACCESS:    2535290  dHIT:     518987  dMISS:    2016303  itACCESS:          0  itHIT:          0  itMISS:          0  dtACCESS:          0  dtHIT:          0  dtMISS:          0
cpu0_L2C WRITE        ACCESS:     346019  HIT:     129700  MISS:     216319  iACCESS:          0  iHIT:          0  iMISS:          0  dACCESS:     346019  dHIT:     129700  dMISS:     216319  itACCESS:          0  itHIT:          0  itMISS:          0  dtACCESS:          0  dtHIT:          0  dtMISS:          0
cpu0_L2C TRANSLATION  ACCESS:     493871  HIT:     235307  MISS:     258564  iACCESS:          0  iHIT:          0  iMISS:          0  dACCESS:          0  dHIT:          0  dMISS:          0  itACCESS:      55607  itHIT:      13330  itMISS:      42277  dtACCESS:     438264  dtHIT:     221977  dtMISS:     216287
cpu0_L2C PREFETCH  REQUESTED:    1499575  ISSUED:    1499572  CROSSED:          0  USEFUL:     379350  USELESS:     425647
cpu0_L2C AVERAGE iMISS LATENCY: 26.6568 cycles
cpu0_L2C AVERAGE dMISS LATENCY: 52.6835 cycles
cpu0_L2C AVERAGE itMISS LATENCY: 1.19211 cycles
cpu0_L2C AVERAGE dtMISS LATENCY: 6.29201 cycles
cpu0_L2C PAGE CROSSINGS (TLB HIT):         0 
cpu0_L2C PAGE CROSSINGS (TLB MISS):         0 
cpu0_L2C AVERAGE MISS LATENCY: 86.8243 cycles
LLC TOTAL       ACCESS:    5806113  HIT:    3411901  MISS:    2394212  iACCESS:    2202900  iHIT:    1470720  iMISS:     732180  dACCESS:    3344649  dHIT:    1895014  dMISS:    1449635  itACCESS:      42277  itHIT:       7285  itMISS:      34992  dtACCESS:     216287  dtHIT:      38882  dtMISS:     177405
LLC LOAD         ACCESS:    1521442  HIT:     952956  MISS:     568486  iACCESS:     538214  iHIT:     385969  iMISS:     152245  dACCESS:     983228  dHIT:     566987  dMISS:     416241  itACCESS:          0  itHIT:          0  itMISS:          0  dtACCESS:          0  dtHIT:          0  dtMISS:          0
LLC RFO          ACCESS:     179976  HIT:      95315  MISS:      84661  iACCESS:          0  iHIT:          0  iMISS:          0  dACCESS:     179976  dHIT:      95315  dMISS:      84661  itACCESS:          0  itHIT:          0  itMISS:          0  dtACCESS:          0  dtHIT:          0  dtMISS:          0
LLC PREFETCH     ACCESS:    3570958  HIT:    2047206  MISS:    1523752  iACCESS:    1664686  iHIT:    1084751  iMISS:     579935  dACCESS:    1906272  dHIT:     962455  dMISS:     943817  itACCESS:          0  itHIT:          0  itMISS:          0  dtACCESS:          0  dtHIT:          0  dtMISS:          0
LLC WRITE        ACCESS:     275173  HIT:     270257  MISS:       4916  iACCESS:          0  iHIT:          0  iMISS:          0  dACCESS:     275173  dHIT:     270257  dMISS:       4916  itACCESS:          0  itHIT:          0  itMISS:          0  dtACCESS:          0  dtHIT:          0  dtMISS:          0
LLC TRANSLATION  ACCESS:     258564  HIT:      46167  MISS:     212397  iACCESS:          0  iHIT:          0  iMISS:          0  dACCESS:          0  dHIT:          0  dMISS:          0  itACCESS:      42277  itHIT:       7285  itMISS:      34992  dtACCESS:     216287  dtHIT:      38882  dtMISS:     177405
LLC PREFETCH  REQUESTED:          0  ISSUED:          0  CROSSED:          0  USEFUL:          0  USELESS:          0
LLC AVERAGE iMISS LATENCY: 48.3381 cycles
LLC AVERAGE dMISS LATENCY: 106.629 cycles
LLC AVERAGE itMISS LATENCY: 2.61289 cycles
LLC AVERAGE dtMISS LATENCY: 13.8483 cycles
LLC PAGE CROSSINGS (TLB HIT):         0 
LLC PAGE CROSSINGS (TLB MISS):         0 
LLC AVERAGE MISS LATENCY: 171.428 cycles

PageTableWalker TOTAL       ACCESS:     176773  
PageTableWalker AVERAGE LATENCY: 5.90565 cycles
PageTableWalker TOTAL LATENCY: 1043958 cycles

DRAM Statistics
Channel 0
 RQ ROW_BUFFER_HIT:     524910
  ROW_BUFFER_MISS:    1854576
 AVG DBUS CONGESTED CYCLE:    3.65418
 WQ ROW_BUFFER_HIT:      61028
  ROW_BUFFER_MISS:      61460  FULL:          0

