last_page:0x200000000000000
VMEM_RES_CAP:0x100000
PAGE_SIZE:4096
LOG2_PAGE_SIZE:12
LOG2_PAGE_TABLE_SIZE:9
page_table_levels:5
WARNING: physical memory size is smaller than virtual memory size
FDiP enabled with aggresivity 16

*** ChampSim Multicore Out-of-Order Simulator ***

Warmup Instructions: 50000000
Simulation Instructions: 100000000
Number of CPUs: 1
Small page size: 4096
Large page size: 2097152

CPU 0 Bimodal branch predictor
Basic BTB sets: 1024 ways: 8 indirect buffer size: 4096 RAS size: 64
Instruction page size distrubution: 0
Loading instruction page size distribution from /home/bsc/bsc018186/scratch/itp_asplos25_AE/dump/smt_srv537_ap_srv180_ap_1024i.pdst
Data page size distrubution: 0
Loading data page size distribution from /home/bsc/bsc018186/scratch/itp_asplos25_AE/dump/smt_srv537_ap_srv180_ap_1024i.pdst
cpu0_L2C IP-based stride prefetcher
cpu0_L2C is using PTP replacement policy:
	TLB_STRESS_THRESHOLD:0
	PTE_EVICTION_RATIO:0
cpu0_L1D next line prefetcher
cpu0_L1I next line prefetcher
Off-chip DRAM Size: 4 GiB Channels: 1 Width: 64-bit Data Rate: 3200 MT/s
Heartbeat CPU 0 instructions: 10000001 cycles: 2500602 heartbeat IPC: 3.99904 cumulative IPC: 3.99904 (Simulation time: 0 hr 0 min 45 sec) 
Heartbeat CPU 0 instructions: 20000003 cycles: 5000734 heartbeat IPC: 3.99979 cumulative IPC: 3.99942 (Simulation time: 0 hr 1 min 31 sec) 
Heartbeat CPU 0 instructions: 30000001 cycles: 7500823 heartbeat IPC: 3.99986 cumulative IPC: 3.99957 (Simulation time: 0 hr 2 min 18 sec) 
Heartbeat CPU 0 instructions: 40000001 cycles: 10001141 heartbeat IPC: 3.9995 cumulative IPC: 3.99955 (Simulation time: 0 hr 3 min 6 sec) 
Heartbeat CPU 0 instructions: 50000002 cycles: 12501349 heartbeat IPC: 3.99967 cumulative IPC: 3.99957 (Simulation time: 0 hr 3 min 53 sec) 
Warmup finished CPU 0 instructions: 50000002 cycles: 12501350 cumulative IPC: 3.99957 (Simulation time: 0 hr 3 min 53 sec) 

Warmup complete CPU 0 instructions: 50000002 cycles: 12501350 (Simulation time: 0 hr 3 min 53 sec) 

Heartbeat CPU 0 instructions: 60000001 cycles: 41486823 heartbeat IPC: 0.345001 cumulative IPC: 0.345001 (Simulation time: 0 hr 5 min 29 sec) 
Heartbeat CPU 0 instructions: 70000003 cycles: 69570462 heartbeat IPC: 0.35608 cumulative IPC: 0.350453 (Simulation time: 0 hr 7 min 5 sec) 
Heartbeat CPU 0 instructions: 80000003 cycles: 98453915 heartbeat IPC: 0.346219 cumulative IPC: 0.34903 (Simulation time: 0 hr 8 min 34 sec) 
Heartbeat CPU 0 instructions: 90000000 cycles: 126567280 heartbeat IPC: 0.355703 cumulative IPC: 0.350675 (Simulation time: 0 hr 9 min 58 sec) 
Heartbeat CPU 0 instructions: 100000003 cycles: 154808107 heartbeat IPC: 0.354098 cumulative IPC: 0.351354 (Simulation time: 0 hr 11 min 23 sec) 
Heartbeat CPU 0 instructions: 110000000 cycles: 184407956 heartbeat IPC: 0.33784 cumulative IPC: 0.349027 (Simulation time: 0 hr 12 min 48 sec) 
Heartbeat CPU 0 instructions: 120000000 cycles: 212606747 heartbeat IPC: 0.354626 cumulative IPC: 0.349816 (Simulation time: 0 hr 14 min 12 sec) 
Heartbeat CPU 0 instructions: 130000000 cycles: 239602736 heartbeat IPC: 0.370426 cumulative IPC: 0.352266 (Simulation time: 0 hr 15 min 34 sec) 
Heartbeat CPU 0 instructions: 140000003 cycles: 268564781 heartbeat IPC: 0.34528 cumulative IPC: 0.351476 (Simulation time: 0 hr 16 min 59 sec) 
Heartbeat CPU 0 instructions: 150000002 cycles: 296546293 heartbeat IPC: 0.357379 cumulative IPC: 0.352057 (Simulation time: 0 hr 18 min 23 sec) 
Simulation finished CPU 0 instructions: 100000000 cycles: 284044944 cumulative IPC: 0.352057 (Simulation time: 0 hr 18 min 23 sec) 

Simulation complete CPU 0 instructions: 100000000 cycles: 284044944 (Simulation time: 0 hr 18 min 23 sec) 


ChampSim completed all CPUs

Saving instructions large page distribution to /home/bsc/bsc018186/scratch/itp_asplos25_AE/dump/smt_srv537_ap_srv180_ap_1024i.pdst...
Saving data large page distribution to /home/bsc/bsc018186/scratch/itp_asplos25_AE/dump/smt_srv537_ap_srv180_ap_1024i.pdst...
=== Simulation ===
CPU 0 runs /gpfs/projects/bsc18/MN4/bsc18/romol/ChampSim/traces/qualcomm_srv/smt_srv537_ap_srv180_ap_1024i.champsimtrace.xz

Region of Interest Statistics

CPU 0 cumulative IPC: 0.352057 instructions: 100000000 cycles: 284044944
CPU 0 Branch Prediction Accuracy: 76.1345% MPKI: 42.9765 Average ROB Occupancy at Mispredict: 11.3853
Branch type MPKI
BRANCH_DIRECT_JUMP: 1.28045
BRANCH_INDIRECT: 22.3442
BRANCH_CONDITIONAL: 12.5476
BRANCH_DIRECT_CALL: 2.47423
BRANCH_INDIRECT_CALL: 0.924571
BRANCH_RETURN: 3.40555

Instructions large pages: 0
Instructions small pages: 13692
Large page distribution for instructions: 0%

Data large pages: 0
Data small pages: 12405
Large page distribution for data: 0%

cpu0_L1I TOTAL       ACCESS:   39065640  HIT:   30364977  MISS:    8700663  iACCESS:   39065640  iHIT:   30364977  iMISS:    8700663  dACCESS:          0  dHIT:          0  dMISS:          0  itACCESS:          0  itHIT:          0  itMISS:          0  dtACCESS:          0  dtHIT:          0  dtMISS:          0
cpu0_L1I LOAD         ACCESS:   11750038  HIT:    9372113  MISS:    2377925  iACCESS:   11750038  iHIT:    9372113  iMISS:    2377925  dACCESS:          0  dHIT:          0  dMISS:          0  itACCESS:          0  itHIT:          0  itMISS:          0  dtACCESS:          0  dtHIT:          0  dtMISS:          0
cpu0_L1I RFO          ACCESS:          0  HIT:          0  MISS:          0  iACCESS:          0  iHIT:          0  iMISS:          0  dACCESS:          0  dHIT:          0  dMISS:          0  itACCESS:          0  itHIT:          0  itMISS:          0  dtACCESS:          0  dtHIT:          0  dtMISS:          0
cpu0_L1I PREFETCH     ACCESS:   27315602  HIT:   20992864  MISS:    6322738  iACCESS:   27315602  iHIT:   20992864  iMISS:    6322738  dACCESS:          0  dHIT:          0  dMISS:          0  itACCESS:          0  itHIT:          0  itMISS:          0  dtACCESS:          0  dtHIT:          0  dtMISS:          0
cpu0_L1I WRITE        ACCESS:          0  HIT:          0  MISS:          0  iACCESS:          0  iHIT:          0  iMISS:          0  dACCESS:          0  dHIT:          0  dMISS:          0  itACCESS:          0  itHIT:          0  itMISS:          0  dtACCESS:          0  dtHIT:          0  dtMISS:          0
cpu0_L1I TRANSLATION  ACCESS:          0  HIT:          0  MISS:          0  iACCESS:          0  iHIT:          0  iMISS:          0  dACCESS:          0  dHIT:          0  dMISS:          0  itACCESS:          0  itHIT:          0  itMISS:          0  dtACCESS:          0  dtHIT:          0  dtMISS:          0
cpu0_L1I PREFETCH  REQUESTED:   30191953  ISSUED:   30191796  CROSSED:          0  USEFUL:    2196314  USELESS:     751955
cpu0_L1I AVERAGE iMISS LATENCY: 22.7984 cycles
cpu0_L1I AVERAGE dMISS LATENCY: 0 cycles
cpu0_L1I AVERAGE itMISS LATENCY: 0 cycles
cpu0_L1I AVERAGE dtMISS LATENCY: 0 cycles
cpu0_L1I PAGE CROSSINGS (TLB HIT):         0 
cpu0_L1I PAGE CROSSINGS (TLB MISS):         0 
cpu0_L1I AVERAGE MISS LATENCY: 22.7984 cycles
cpu0_ITLB TOTAL       ACCESS:   32954308  HIT:   30748616  MISS:    2205692  iACCESS:   32954308  iHIT:   30748616  iMISS:    2205692  dACCESS:          0  dHIT:          0  dMISS:          0  itACCESS:          0  itHIT:          0  itMISS:          0  dtACCESS:          0  dtHIT:          0  dtMISS:          0
cpu0_ITLB LOAD         ACCESS:   32954308  HIT:   30748616  MISS:    2205692  iACCESS:   32954308  iHIT:   30748616  iMISS:    2205692  dACCESS:          0  dHIT:          0  dMISS:          0  itACCESS:          0  itHIT:          0  itMISS:          0  dtACCESS:          0  dtHIT:          0  dtMISS:          0
cpu0_ITLB RFO          ACCESS:          0  HIT:          0  MISS:          0  iACCESS:          0  iHIT:          0  iMISS:          0  dACCESS:          0  dHIT:          0  dMISS:          0  itACCESS:          0  itHIT:          0  itMISS:          0  dtACCESS:          0  dtHIT:          0  dtMISS:          0
cpu0_ITLB PREFETCH     ACCESS:          0  HIT:          0  MISS:          0  iACCESS:          0  iHIT:          0  iMISS:          0  dACCESS:          0  dHIT:          0  dMISS:          0  itACCESS:          0  itHIT:          0  itMISS:          0  dtACCESS:          0  dtHIT:          0  dtMISS:          0
cpu0_ITLB WRITE        ACCESS:          0  HIT:          0  MISS:          0  iACCESS:          0  iHIT:          0  iMISS:          0  dACCESS:          0  dHIT:          0  dMISS:          0  itACCESS:          0  itHIT:          0  itMISS:          0  dtACCESS:          0  dtHIT:          0  dtMISS:          0
cpu0_ITLB TRANSLATION  ACCESS:          0  HIT:          0  MISS:          0  iACCESS:          0  iHIT:          0  iMISS:          0  dACCESS:          0  dHIT:          0  dMISS:          0  itACCESS:          0  itHIT:          0  itMISS:          0  dtACCESS:          0  dtHIT:          0  dtMISS:          0
cpu0_ITLB PREFETCH  REQUESTED:          0  ISSUED:          0  CROSSED:          0  USEFUL:     383413  USELESS:      77529
cpu0_ITLB AVERAGE iMISS LATENCY: 9.39094 cycles
cpu0_ITLB AVERAGE dMISS LATENCY: 0 cycles
cpu0_ITLB AVERAGE itMISS LATENCY: 0 cycles
cpu0_ITLB AVERAGE dtMISS LATENCY: 0 cycles
cpu0_ITLB PAGE CROSSINGS (TLB HIT):         0 
cpu0_ITLB PAGE CROSSINGS (TLB MISS):         0 
cpu0_ITLB AVERAGE MISS LATENCY: 9.39094 cycles
cpu0_DTLB TOTAL       ACCESS:   28727652  HIT:   25289921  MISS:    3437731  iACCESS:          0  iHIT:          0  iMISS:          0  dACCESS:   28727652  dHIT:   25289921  dMISS:    3437731  itACCESS:          0  itHIT:          0  itMISS:          0  dtACCESS:          0  dtHIT:          0  dtMISS:          0
cpu0_DTLB LOAD         ACCESS:   28727652  HIT:   25289921  MISS:    3437731  iACCESS:          0  iHIT:          0  iMISS:          0  dACCESS:   28727652  dHIT:   25289921  dMISS:    3437731  itACCESS:          0  itHIT:          0  itMISS:          0  dtACCESS:          0  dtHIT:          0  dtMISS:          0
cpu0_DTLB RFO          ACCESS:          0  HIT:          0  MISS:          0  iACCESS:          0  iHIT:          0  iMISS:          0  dACCESS:          0  dHIT:          0  dMISS:          0  itACCESS:          0  itHIT:          0  itMISS:          0  dtACCESS:          0  dtHIT:          0  dtMISS:          0
cpu0_DTLB PREFETCH     ACCESS:          0  HIT:          0  MISS:          0  iACCESS:          0  iHIT:          0  iMISS:          0  dACCESS:          0  dHIT:          0  dMISS:          0  itACCESS:          0  itHIT:          0  itMISS:          0  dtACCESS:          0  dtHIT:          0  dtMISS:          0
cpu0_DTLB WRITE        ACCESS:          0  HIT:          0  MISS:          0  iACCESS:          0  iHIT:          0  iMISS:          0  dACCESS:          0  dHIT:          0  dMISS:          0  itACCESS:          0  itHIT:          0  itMISS:          0  dtACCESS:          0  dtHIT:          0  dtMISS:          0
cpu0_DTLB TRANSLATION  ACCESS:          0  HIT:          0  MISS:          0  iACCESS:          0  iHIT:          0  iMISS:          0  dACCESS:          0  dHIT:          0  dMISS:          0  itACCESS:          0  itHIT:          0  itMISS:          0  dtACCESS:          0  dtHIT:          0  dtMISS:          0
cpu0_DTLB PREFETCH  REQUESTED:          0  ISSUED:          0  CROSSED:          0  USEFUL:          0  USELESS:          0
cpu0_DTLB AVERAGE iMISS LATENCY: 0 cycles
cpu0_DTLB AVERAGE dMISS LATENCY: 24.3907 cycles
cpu0_DTLB AVERAGE itMISS LATENCY: 0 cycles
cpu0_DTLB AVERAGE dtMISS LATENCY: 0 cycles
cpu0_DTLB PAGE CROSSINGS (TLB HIT):         0 
cpu0_DTLB PAGE CROSSINGS (TLB MISS):         0 
cpu0_DTLB AVERAGE MISS LATENCY: 24.3907 cycles
cpu0_STLB TOTAL       ACCESS:    2425437  HIT:    2077885  MISS:     347552  iACCESS:     460944  iHIT:     354811  iMISS:     106133  dACCESS:    1964493  dHIT:    1723074  dMISS:     241419  itACCESS:          0  itHIT:          0  itMISS:          0  dtACCESS:          0  dtHIT:          0  dtMISS:          0
cpu0_STLB LOAD         ACCESS:    2425437  HIT:    2077885  MISS:     347552  iACCESS:     460944  iHIT:     354811  iMISS:     106133  dACCESS:    1964493  dHIT:    1723074  dMISS:     241419  itACCESS:          0  itHIT:          0  itMISS:          0  dtACCESS:          0  dtHIT:          0  dtMISS:          0
cpu0_STLB RFO          ACCESS:          0  HIT:          0  MISS:          0  iACCESS:          0  iHIT:          0  iMISS:          0  dACCESS:          0  dHIT:          0  dMISS:          0  itACCESS:          0  itHIT:          0  itMISS:          0  dtACCESS:          0  dtHIT:          0  dtMISS:          0
cpu0_STLB PREFETCH     ACCESS:          0  HIT:          0  MISS:          0  iACCESS:          0  iHIT:          0  iMISS:          0  dACCESS:          0  dHIT:          0  dMISS:          0  itACCESS:          0  itHIT:          0  itMISS:          0  dtACCESS:          0  dtHIT:          0  dtMISS:          0
cpu0_STLB WRITE        ACCESS:          0  HIT:          0  MISS:          0  iACCESS:          0  iHIT:          0  iMISS:          0  dACCESS:          0  dHIT:          0  dMISS:          0  itACCESS:          0  itHIT:          0  itMISS:          0  dtACCESS:          0  dtHIT:          0  dtMISS:          0
cpu0_STLB TRANSLATION  ACCESS:          0  HIT:          0  MISS:          0  iACCESS:          0  iHIT:          0  iMISS:          0  dACCESS:          0  dHIT:          0  dMISS:          0  itACCESS:          0  itHIT:          0  itMISS:          0  dtACCESS:          0  dtHIT:          0  dtMISS:          0
cpu0_STLB PREFETCH  REQUESTED:          0  ISSUED:          0  CROSSED:          0  USEFUL:          0  USELESS:          0
cpu0_STLB AVERAGE iMISS LATENCY: 49.0125 cycles
cpu0_STLB AVERAGE dMISS LATENCY: 195.824 cycles
cpu0_STLB AVERAGE itMISS LATENCY: 0 cycles
cpu0_STLB AVERAGE dtMISS LATENCY: 0 cycles
cpu0_STLB PAGE CROSSINGS (TLB HIT):         0 
cpu0_STLB PAGE CROSSINGS (TLB MISS):         0 
cpu0_STLB AVERAGE MISS LATENCY: 244.837 cycles
cpu0_L1D TOTAL       ACCESS:   44230775  HIT:   39054298  MISS:    5176477  iACCESS:          0  iHIT:          0  iMISS:          0  dACCESS:   43714426  dHIT:   39020413  dMISS:    4694013  itACCESS:     118665  itHIT:      15533  itMISS:     103132  dtACCESS:     397684  dtHIT:      18352  dtMISS:     379332
cpu0_L1D LOAD         ACCESS:   19939128  HIT:   17842733  MISS:    2096395  iACCESS:          0  iHIT:          0  iMISS:          0  dACCESS:   19939128  dHIT:   17842733  dMISS:    2096395  itACCESS:          0  itHIT:          0  itMISS:          0  dtACCESS:          0  dtHIT:          0  dtMISS:          0
cpu0_L1D RFO          ACCESS:          0  HIT:          0  MISS:          0  iACCESS:          0  iHIT:          0  iMISS:          0  dACCESS:          0  dHIT:          0  dMISS:          0  itACCESS:          0  itHIT:          0  itMISS:          0  dtACCESS:          0  dtHIT:          0  dtMISS:          0
cpu0_L1D PREFETCH     ACCESS:   13614326  HIT:   11556176  MISS:    2058150  iACCESS:          0  iHIT:          0  iMISS:          0  dACCESS:   13614326  dHIT:   11556176  dMISS:    2058150  itACCESS:          0  itHIT:          0  itMISS:          0  dtACCESS:          0  dtHIT:          0  dtMISS:          0
cpu0_L1D WRITE        ACCESS:   10160972  HIT:    9621504  MISS:     539468  iACCESS:          0  iHIT:          0  iMISS:          0  dACCESS:   10160972  dHIT:    9621504  dMISS:     539468  itACCESS:          0  itHIT:          0  itMISS:          0  dtACCESS:          0  dtHIT:          0  dtMISS:          0
cpu0_L1D TRANSLATION  ACCESS:     516349  HIT:      33885  MISS:     482464  iACCESS:          0  iHIT:          0  iMISS:          0  dACCESS:          0  dHIT:          0  dMISS:          0  itACCESS:     118665  itHIT:      15533  itMISS:     103132  dtACCESS:     397684  dtHIT:      18352  dtMISS:     379332
cpu0_L1D PREFETCH  REQUESTED:   19939128  ISSUED:   18207515  CROSSED:          0  USEFUL:     370672  USELESS:     906267
cpu0_L1D AVERAGE iMISS LATENCY: 0 cycles
cpu0_L1D AVERAGE dMISS LATENCY: 51.2824 cycles
cpu0_L1D AVERAGE itMISS LATENCY: 3.09824 cycles
cpu0_L1D AVERAGE dtMISS LATENCY: 12.1339 cycles
cpu0_L1D PAGE CROSSINGS (TLB HIT):         0 
cpu0_L1D PAGE CROSSINGS (TLB MISS):         0 
cpu0_L1D AVERAGE MISS LATENCY: 66.5145 cycles
cpu0_L2C TOTAL       ACCESS:    8488068  HIT:    4065411  MISS:    4422657  iACCESS:    3754281  iHIT:    2236111  iMISS:    1518170  dACCESS:    4281540  dHIT:    1768657  dMISS:    2512883  itACCESS:     102582  itHIT:      19545  itMISS:      83037  dtACCESS:     349665  dtHIT:      41098  dtMISS:     308567
cpu0_L2C LOAD         ACCESS:    2037939  HIT:     972753  MISS:    1065186  iACCESS:     845100  iHIT:     519327  iMISS:     325773  dACCESS:    1192839  dHIT:     453426  dMISS:     739413  itACCESS:          0  itHIT:          0  itMISS:          0  dtACCESS:          0  dtHIT:          0  dtMISS:          0
cpu0_L2C RFO          ACCESS:     208158  HIT:      77908  MISS:     130250  iACCESS:          0  iHIT:          0  iMISS:          0  dACCESS:     208158  dHIT:      77908  dMISS:     130250  itACCESS:          0  itHIT:          0  itMISS:          0  dtACCESS:          0  dtHIT:          0  dtMISS:          0
cpu0_L2C PREFETCH     ACCESS:    5443024  HIT:    2622157  MISS:    2820867  iACCESS:    2909181  iHIT:    1716784  iMISS:    1192397  dACCESS:    2533843  dHIT:     905373  dMISS:    1628470  itACCESS:          0  itHIT:          0  itMISS:          0  dtACCESS:          0  dtHIT:          0  dtMISS:          0
cpu0_L2C WRITE        ACCESS:     346700  HIT:     331950  MISS:      14750  iACCESS:          0  iHIT:          0  iMISS:          0  dACCESS:     346700  dHIT:     331950  dMISS:      14750  itACCESS:          0  itHIT:          0  itMISS:          0  dtACCESS:          0  dtHIT:          0  dtMISS:          0
cpu0_L2C TRANSLATION  ACCESS:     452247  HIT:      60643  MISS:     391604  iACCESS:          0  iHIT:          0  iMISS:          0  dACCESS:          0  dHIT:          0  dMISS:          0  itACCESS:     102582  itHIT:      19545  itMISS:      83037  dtACCESS:     349665  dtHIT:      41098  dtMISS:     308567
cpu0_L2C PREFETCH  REQUESTED:    1501759  ISSUED:    1501757  CROSSED:          0  USEFUL:     361047  USELESS:     322350
cpu0_L2C AVERAGE iMISS LATENCY: 37.5776 cycles
cpu0_L2C AVERAGE dMISS LATENCY: 74.5268 cycles
cpu0_L2C AVERAGE itMISS LATENCY: 3.39815 cycles
cpu0_L2C AVERAGE dtMISS LATENCY: 13.4162 cycles
cpu0_L2C PAGE CROSSINGS (TLB HIT):         0 
cpu0_L2C PAGE CROSSINGS (TLB MISS):         0 
cpu0_L2C AVERAGE MISS LATENCY: 128.919 cycles
LLC TOTAL       ACCESS:    4415116  HIT:    1552595  MISS:    2862521  iACCESS:    1426496  iHIT:     546968  iMISS:     879528  dACCESS:    2597016  dHIT:     964828  dMISS:    1632188  itACCESS:      83037  itHIT:       8227  itMISS:      74810  dtACCESS:     308567  dtHIT:      32572  dtMISS:     275995
LLC LOAD         ACCESS:    1060266  HIT:     402831  MISS:     657435  iACCESS:     324594  iHIT:     138081  iMISS:     186513  dACCESS:     735672  dHIT:     264750  dMISS:     470922  itACCESS:          0  itHIT:          0  itMISS:          0  dtACCESS:          0  dtHIT:          0  dtMISS:          0
LLC RFO          ACCESS:     130241  HIT:      43831  MISS:      86410  iACCESS:          0  iHIT:          0  iMISS:          0  dACCESS:     130241  dHIT:      43831  dMISS:      86410  itACCESS:          0  itHIT:          0  itMISS:          0  dtACCESS:          0  dtHIT:          0  dtMISS:          0
LLC PREFETCH     ACCESS:    2615624  HIT:     858720  MISS:    1756904  iACCESS:    1101902  iHIT:     408887  iMISS:     693015  dACCESS:    1513722  dHIT:     449833  dMISS:    1063889  itACCESS:          0  itHIT:          0  itMISS:          0  dtACCESS:          0  dtHIT:          0  dtMISS:          0
LLC WRITE        ACCESS:     217381  HIT:     206414  MISS:      10967  iACCESS:          0  iHIT:          0  iMISS:          0  dACCESS:     217381  dHIT:     206414  dMISS:      10967  itACCESS:          0  itHIT:          0  itMISS:          0  dtACCESS:          0  dtHIT:          0  dtMISS:          0
LLC TRANSLATION  ACCESS:     391604  HIT:      40799  MISS:     350805  iACCESS:          0  iHIT:          0  iMISS:          0  dACCESS:          0  dHIT:          0  dMISS:          0  itACCESS:      83037  itHIT:       8227  itMISS:      74810  dtACCESS:     308567  dtHIT:      32572  dtMISS:     275995
LLC PREFETCH  REQUESTED:          0  ISSUED:          0  CROSSED:          0  USEFUL:          0  USELESS:          0
LLC AVERAGE iMISS LATENCY: 48.2671 cycles
LLC AVERAGE dMISS LATENCY: 99.3729 cycles
LLC AVERAGE itMISS LATENCY: 4.67556 cycles
LLC AVERAGE dtMISS LATENCY: 18.5971 cycles
LLC PAGE CROSSINGS (TLB HIT):         0 
LLC PAGE CROSSINGS (TLB MISS):         0 
LLC AVERAGE MISS LATENCY: 170.913 cycles

PageTableWalker TOTAL       ACCESS:     170334  
PageTableWalker AVERAGE LATENCY: 6.3398 cycles
PageTableWalker TOTAL LATENCY: 1079882 cycles

DRAM Statistics
Channel 0
 RQ ROW_BUFFER_HIT:     616929
  ROW_BUFFER_MISS:    2225528
 AVG DBUS CONGESTED CYCLE:    3.64789
 WQ ROW_BUFFER_HIT:      64375
  ROW_BUFFER_MISS:      54931  FULL:          0

