last_page:0x200000000000000
VMEM_RES_CAP:0x100000
PAGE_SIZE:4096
LOG2_PAGE_SIZE:12
LOG2_PAGE_TABLE_SIZE:9
page_table_levels:5
WARNING: physical memory size is smaller than virtual memory size
FDiP enabled with aggresivity 16

*** ChampSim Multicore Out-of-Order Simulator ***

Warmup Instructions: 50000000
Simulation Instructions: 100000000
Number of CPUs: 1
Small page size: 4096
Large page size: 2097152

CPU 0 Bimodal branch predictor
Basic BTB sets: 1024 ways: 8 indirect buffer size: 4096 RAS size: 64
Instruction page size distrubution: 0
Loading instruction page size distribution from /home/bsc/bsc018186/scratch/itp_asplos25_AE/dump/smt_srv12_ap_srv224_ap_1024i.pdst
Data page size distrubution: 0
Loading data page size distribution from /home/bsc/bsc018186/scratch/itp_asplos25_AE/dump/smt_srv12_ap_srv224_ap_1024i.pdst
cpu0_L2C IP-based stride prefetcher
cpu0_L2C is using PTP replacement policy:
	TLB_STRESS_THRESHOLD:0
	PTE_EVICTION_RATIO:0
cpu0_L1D next line prefetcher
CHiRPing...
cpu0_L1I next line prefetcher
Off-chip DRAM Size: 4 GiB Channels: 1 Width: 64-bit Data Rate: 3200 MT/s
Heartbeat CPU 0 instructions: 10000000 cycles: 2500716 heartbeat IPC: 3.99886 cumulative IPC: 3.99886 (Simulation time: 0 hr 0 min 44 sec) 
Heartbeat CPU 0 instructions: 20000000 cycles: 5001112 heartbeat IPC: 3.99937 cumulative IPC: 3.99912 (Simulation time: 0 hr 1 min 31 sec) 
Heartbeat CPU 0 instructions: 30000000 cycles: 7501857 heartbeat IPC: 3.99881 cumulative IPC: 3.99901 (Simulation time: 0 hr 2 min 21 sec) 
Heartbeat CPU 0 instructions: 40000002 cycles: 10049525 heartbeat IPC: 3.92516 cumulative IPC: 3.98029 (Simulation time: 0 hr 3 min 8 sec) 
Heartbeat CPU 0 instructions: 50000003 cycles: 12615237 heartbeat IPC: 3.89756 cumulative IPC: 3.96347 (Simulation time: 0 hr 4 min 0 sec) 
Warmup finished CPU 0 instructions: 50000003 cycles: 12615238 cumulative IPC: 3.96347 (Simulation time: 0 hr 4 min 0 sec) 

Warmup complete CPU 0 instructions: 50000003 cycles: 12615238 (Simulation time: 0 hr 4 min 0 sec) 

Heartbeat CPU 0 instructions: 60000002 cycles: 30404189 heartbeat IPC: 0.562147 cumulative IPC: 0.562147 (Simulation time: 0 hr 5 min 22 sec) 
Heartbeat CPU 0 instructions: 70000003 cycles: 60254061 heartbeat IPC: 0.33501 cumulative IPC: 0.419826 (Simulation time: 0 hr 6 min 57 sec) 
Heartbeat CPU 0 instructions: 80000001 cycles: 90145971 heartbeat IPC: 0.334539 cumulative IPC: 0.386944 (Simulation time: 0 hr 8 min 34 sec) 
Heartbeat CPU 0 instructions: 90000000 cycles: 117202907 heartbeat IPC: 0.369591 cumulative IPC: 0.382455 (Simulation time: 0 hr 10 min 6 sec) 
Heartbeat CPU 0 instructions: 100000000 cycles: 146498703 heartbeat IPC: 0.341346 cumulative IPC: 0.37346 (Simulation time: 0 hr 11 min 42 sec) 
Heartbeat CPU 0 instructions: 110000002 cycles: 175953333 heartbeat IPC: 0.339506 cumulative IPC: 0.367337 (Simulation time: 0 hr 13 min 19 sec) 
Heartbeat CPU 0 instructions: 120000000 cycles: 205246413 heartbeat IPC: 0.341378 cumulative IPC: 0.363389 (Simulation time: 0 hr 14 min 55 sec) 
Heartbeat CPU 0 instructions: 130000000 cycles: 235418552 heartbeat IPC: 0.331432 cumulative IPC: 0.359062 (Simulation time: 0 hr 16 min 31 sec) 
Heartbeat CPU 0 instructions: 140000000 cycles: 265716006 heartbeat IPC: 0.330061 cumulative IPC: 0.35559 (Simulation time: 0 hr 18 min 10 sec) 
Heartbeat CPU 0 instructions: 150000002 cycles: 295776561 heartbeat IPC: 0.332662 cumulative IPC: 0.353156 (Simulation time: 0 hr 19 min 47 sec) 
Simulation finished CPU 0 instructions: 100000004 cycles: 283161325 cumulative IPC: 0.353156 (Simulation time: 0 hr 19 min 47 sec) 

Simulation complete CPU 0 instructions: 100000004 cycles: 283161325 (Simulation time: 0 hr 19 min 47 sec) 


ChampSim completed all CPUs

Saving instructions large page distribution to /home/bsc/bsc018186/scratch/itp_asplos25_AE/dump/smt_srv12_ap_srv224_ap_1024i.pdst...
Saving data large page distribution to /home/bsc/bsc018186/scratch/itp_asplos25_AE/dump/smt_srv12_ap_srv224_ap_1024i.pdst...
=== Simulation ===
CPU 0 runs /gpfs/projects/bsc18/MN4/bsc18/romol/ChampSim/traces/qualcomm_srv/smt_srv12_ap_srv224_ap_1024i.champsimtrace.xz

Region of Interest Statistics

CPU 0 cumulative IPC: 0.353156 instructions: 100000004 cycles: 283161325
CPU 0 Branch Prediction Accuracy: 76.3527% MPKI: 44.0973 Average ROB Occupancy at Mispredict: 11.1329
Branch type MPKI
BRANCH_DIRECT_JUMP: 1.33596
BRANCH_INDIRECT: 22.9139
BRANCH_CONDITIONAL: 12.8311
BRANCH_DIRECT_CALL: 2.51381
BRANCH_INDIRECT_CALL: 1.13488
BRANCH_RETURN: 3.36757

Instructions large pages: 0
Instructions small pages: 14953
Large page distribution for instructions: 0%

Data large pages: 0
Data small pages: 13161
Large page distribution for data: 0%

cpu0_L1I TOTAL       ACCESS:   39773558  HIT:   31624042  MISS:    8149516  iACCESS:   39773558  iHIT:   31624042  iMISS:    8149516  dACCESS:          0  dHIT:          0  dMISS:          0  itACCESS:          0  itHIT:          0  itMISS:          0  dtACCESS:          0  dtHIT:          0  dtMISS:          0
cpu0_L1I LOAD         ACCESS:   11695683  HIT:    9480350  MISS:    2215333  iACCESS:   11695683  iHIT:    9480350  iMISS:    2215333  dACCESS:          0  dHIT:          0  dMISS:          0  itACCESS:          0  itHIT:          0  itMISS:          0  dtACCESS:          0  dtHIT:          0  dtMISS:          0
cpu0_L1I RFO          ACCESS:          0  HIT:          0  MISS:          0  iACCESS:          0  iHIT:          0  iMISS:          0  dACCESS:          0  dHIT:          0  dMISS:          0  itACCESS:          0  itHIT:          0  itMISS:          0  dtACCESS:          0  dtHIT:          0  dtMISS:          0
cpu0_L1I PREFETCH     ACCESS:   28077875  HIT:   22143692  MISS:    5934183  iACCESS:   28077875  iHIT:   22143692  iMISS:    5934183  dACCESS:          0  dHIT:          0  dMISS:          0  itACCESS:          0  itHIT:          0  itMISS:          0  dtACCESS:          0  dtHIT:          0  dtMISS:          0
cpu0_L1I WRITE        ACCESS:          0  HIT:          0  MISS:          0  iACCESS:          0  iHIT:          0  iMISS:          0  dACCESS:          0  dHIT:          0  dMISS:          0  itACCESS:          0  itHIT:          0  itMISS:          0  dtACCESS:          0  dtHIT:          0  dtMISS:          0
cpu0_L1I TRANSLATION  ACCESS:          0  HIT:          0  MISS:          0  iACCESS:          0  iHIT:          0  iMISS:          0  dACCESS:          0  dHIT:          0  dMISS:          0  itACCESS:          0  itHIT:          0  itMISS:          0  dtACCESS:          0  dtHIT:          0  dtMISS:          0
cpu0_L1I PREFETCH  REQUESTED:   30881964  ISSUED:   30881961  CROSSED:          0  USEFUL:    2080273  USELESS:     716531
cpu0_L1I AVERAGE iMISS LATENCY: 23.7954 cycles
cpu0_L1I AVERAGE dMISS LATENCY: 0 cycles
cpu0_L1I AVERAGE itMISS LATENCY: 0 cycles
cpu0_L1I AVERAGE dtMISS LATENCY: 0 cycles
cpu0_L1I PAGE CROSSINGS (TLB HIT):         0 
cpu0_L1I PAGE CROSSINGS (TLB MISS):         0 
cpu0_L1I AVERAGE MISS LATENCY: 23.7954 cycles
cpu0_ITLB TOTAL       ACCESS:   33528435  HIT:   31447693  MISS:    2080742  iACCESS:   33528435  iHIT:   31447693  iMISS:    2080742  dACCESS:          0  dHIT:          0  dMISS:          0  itACCESS:          0  itHIT:          0  itMISS:          0  dtACCESS:          0  dtHIT:          0  dtMISS:          0
cpu0_ITLB LOAD         ACCESS:   33528435  HIT:   31447693  MISS:    2080742  iACCESS:   33528435  iHIT:   31447693  iMISS:    2080742  dACCESS:          0  dHIT:          0  dMISS:          0  itACCESS:          0  itHIT:          0  itMISS:          0  dtACCESS:          0  dtHIT:          0  dtMISS:          0
cpu0_ITLB RFO          ACCESS:          0  HIT:          0  MISS:          0  iACCESS:          0  iHIT:          0  iMISS:          0  dACCESS:          0  dHIT:          0  dMISS:          0  itACCESS:          0  itHIT:          0  itMISS:          0  dtACCESS:          0  dtHIT:          0  dtMISS:          0
cpu0_ITLB PREFETCH     ACCESS:          0  HIT:          0  MISS:          0  iACCESS:          0  iHIT:          0  iMISS:          0  dACCESS:          0  dHIT:          0  dMISS:          0  itACCESS:          0  itHIT:          0  itMISS:          0  dtACCESS:          0  dtHIT:          0  dtMISS:          0
cpu0_ITLB WRITE        ACCESS:          0  HIT:          0  MISS:          0  iACCESS:          0  iHIT:          0  iMISS:          0  dACCESS:          0  dHIT:          0  dMISS:          0  itACCESS:          0  itHIT:          0  itMISS:          0  dtACCESS:          0  dtHIT:          0  dtMISS:          0
cpu0_ITLB TRANSLATION  ACCESS:          0  HIT:          0  MISS:          0  iACCESS:          0  iHIT:          0  iMISS:          0  dACCESS:          0  dHIT:          0  dMISS:          0  itACCESS:          0  itHIT:          0  itMISS:          0  dtACCESS:          0  dtHIT:          0  dtMISS:          0
cpu0_ITLB PREFETCH  REQUESTED:          0  ISSUED:          0  CROSSED:          0  USEFUL:     366111  USELESS:      75559
cpu0_ITLB AVERAGE iMISS LATENCY: 10.471 cycles
cpu0_ITLB AVERAGE dMISS LATENCY: 0 cycles
cpu0_ITLB AVERAGE itMISS LATENCY: 0 cycles
cpu0_ITLB AVERAGE dtMISS LATENCY: 0 cycles
cpu0_ITLB PAGE CROSSINGS (TLB HIT):         0 
cpu0_ITLB PAGE CROSSINGS (TLB MISS):         0 
cpu0_ITLB AVERAGE MISS LATENCY: 10.471 cycles
cpu0_DTLB TOTAL       ACCESS:   29779388  HIT:   25138555  MISS:    4640833  iACCESS:          0  iHIT:          0  iMISS:          0  dACCESS:   29779388  dHIT:   25138555  dMISS:    4640833  itACCESS:          0  itHIT:          0  itMISS:          0  dtACCESS:          0  dtHIT:          0  dtMISS:          0
cpu0_DTLB LOAD         ACCESS:   29779388  HIT:   25138555  MISS:    4640833  iACCESS:          0  iHIT:          0  iMISS:          0  dACCESS:   29779388  dHIT:   25138555  dMISS:    4640833  itACCESS:          0  itHIT:          0  itMISS:          0  dtACCESS:          0  dtHIT:          0  dtMISS:          0
cpu0_DTLB RFO          ACCESS:          0  HIT:          0  MISS:          0  iACCESS:          0  iHIT:          0  iMISS:          0  dACCESS:          0  dHIT:          0  dMISS:          0  itACCESS:          0  itHIT:          0  itMISS:          0  dtACCESS:          0  dtHIT:          0  dtMISS:          0
cpu0_DTLB PREFETCH     ACCESS:          0  HIT:          0  MISS:          0  iACCESS:          0  iHIT:          0  iMISS:          0  dACCESS:          0  dHIT:          0  dMISS:          0  itACCESS:          0  itHIT:          0  itMISS:          0  dtACCESS:          0  dtHIT:          0  dtMISS:          0
cpu0_DTLB WRITE        ACCESS:          0  HIT:          0  MISS:          0  iACCESS:          0  iHIT:          0  iMISS:          0  dACCESS:          0  dHIT:          0  dMISS:          0  itACCESS:          0  itHIT:          0  itMISS:          0  dtACCESS:          0  dtHIT:          0  dtMISS:          0
cpu0_DTLB TRANSLATION  ACCESS:          0  HIT:          0  MISS:          0  iACCESS:          0  iHIT:          0  iMISS:          0  dACCESS:          0  dHIT:          0  dMISS:          0  itACCESS:          0  itHIT:          0  itMISS:          0  dtACCESS:          0  dtHIT:          0  dtMISS:          0
cpu0_DTLB PREFETCH  REQUESTED:          0  ISSUED:          0  CROSSED:          0  USEFUL:          0  USELESS:          0
cpu0_DTLB AVERAGE iMISS LATENCY: 0 cycles
cpu0_DTLB AVERAGE dMISS LATENCY: 18.6311 cycles
cpu0_DTLB AVERAGE itMISS LATENCY: 0 cycles
cpu0_DTLB AVERAGE dtMISS LATENCY: 0 cycles
cpu0_DTLB PAGE CROSSINGS (TLB HIT):         0 
cpu0_DTLB PAGE CROSSINGS (TLB MISS):         0 
cpu0_DTLB AVERAGE MISS LATENCY: 18.6311 cycles
cpu0_STLB TOTAL       ACCESS:    3004235  HIT:    2661960  MISS:     342275  iACCESS:     441676  iHIT:     334632  iMISS:     107044  dACCESS:    2562559  dHIT:    2327328  dMISS:     235231  itACCESS:          0  itHIT:          0  itMISS:          0  dtACCESS:          0  dtHIT:          0  dtMISS:          0
cpu0_STLB LOAD         ACCESS:    3004235  HIT:    2661960  MISS:     342275  iACCESS:     441676  iHIT:     334632  iMISS:     107044  dACCESS:    2562559  dHIT:    2327328  dMISS:     235231  itACCESS:          0  itHIT:          0  itMISS:          0  dtACCESS:          0  dtHIT:          0  dtMISS:          0
cpu0_STLB RFO          ACCESS:          0  HIT:          0  MISS:          0  iACCESS:          0  iHIT:          0  iMISS:          0  dACCESS:          0  dHIT:          0  dMISS:          0  itACCESS:          0  itHIT:          0  itMISS:          0  dtACCESS:          0  dtHIT:          0  dtMISS:          0
cpu0_STLB PREFETCH     ACCESS:          0  HIT:          0  MISS:          0  iACCESS:          0  iHIT:          0  iMISS:          0  dACCESS:          0  dHIT:          0  dMISS:          0  itACCESS:          0  itHIT:          0  itMISS:          0  dtACCESS:          0  dtHIT:          0  dtMISS:          0
cpu0_STLB WRITE        ACCESS:          0  HIT:          0  MISS:          0  iACCESS:          0  iHIT:          0  iMISS:          0  dACCESS:          0  dHIT:          0  dMISS:          0  itACCESS:          0  itHIT:          0  itMISS:          0  dtACCESS:          0  dtHIT:          0  dtMISS:          0
cpu0_STLB TRANSLATION  ACCESS:          0  HIT:          0  MISS:          0  iACCESS:          0  iHIT:          0  iMISS:          0  dACCESS:          0  dHIT:          0  dMISS:          0  itACCESS:          0  itHIT:          0  itMISS:          0  dtACCESS:          0  dtHIT:          0  dtMISS:          0
cpu0_STLB PREFETCH  REQUESTED:          0  ISSUED:          0  CROSSED:          0  USEFUL:          0  USELESS:          0
cpu0_STLB AVERAGE iMISS LATENCY: 53.334 cycles
cpu0_STLB AVERAGE dMISS LATENCY: 192.198 cycles
cpu0_STLB AVERAGE itMISS LATENCY: 0 cycles
cpu0_STLB AVERAGE dtMISS LATENCY: 0 cycles
cpu0_STLB PAGE CROSSINGS (TLB HIT):         0 
cpu0_STLB PAGE CROSSINGS (TLB MISS):         0 
cpu0_STLB AVERAGE MISS LATENCY: 245.532 cycles
cpu0_L1D TOTAL       ACCESS:   45887410  HIT:   39593964  MISS:    6293446  iACCESS:          0  iHIT:          0  iMISS:          0  dACCESS:   45382060  dHIT:   39563658  dMISS:    5818402  itACCESS:     120275  itHIT:      13084  itMISS:     107191  dtACCESS:     385075  dtHIT:      17222  dtMISS:     367853
cpu0_L1D LOAD         ACCESS:   21234028  HIT:   18277957  MISS:    2956071  iACCESS:          0  iHIT:          0  iMISS:          0  dACCESS:   21234028  dHIT:   18277957  dMISS:    2956071  itACCESS:          0  itHIT:          0  itMISS:          0  dtACCESS:          0  dtHIT:          0  dtMISS:          0
cpu0_L1D RFO          ACCESS:          0  HIT:          0  MISS:          0  iACCESS:          0  iHIT:          0  iMISS:          0  dACCESS:          0  dHIT:          0  dMISS:          0  itACCESS:          0  itHIT:          0  itMISS:          0  dtACCESS:          0  dtHIT:          0  dtMISS:          0
cpu0_L1D PREFETCH     ACCESS:   14100757  HIT:   11785426  MISS:    2315331  iACCESS:          0  iHIT:          0  iMISS:          0  dACCESS:   14100757  dHIT:   11785426  dMISS:    2315331  itACCESS:          0  itHIT:          0  itMISS:          0  dtACCESS:          0  dtHIT:          0  dtMISS:          0
cpu0_L1D WRITE        ACCESS:   10047275  HIT:    9500275  MISS:     547000  iACCESS:          0  iHIT:          0  iMISS:          0  dACCESS:   10047275  dHIT:    9500275  dMISS:     547000  itACCESS:          0  itHIT:          0  itMISS:          0  dtACCESS:          0  dtHIT:          0  dtMISS:          0
cpu0_L1D TRANSLATION  ACCESS:     505350  HIT:      30306  MISS:     475044  iACCESS:          0  iHIT:          0  iMISS:          0  dACCESS:          0  dHIT:          0  dMISS:          0  itACCESS:     120275  itHIT:      13084  itMISS:     107191  dtACCESS:     385075  dtHIT:      17222  dtMISS:     367853
cpu0_L1D PREFETCH  REQUESTED:   21234028  ISSUED:   18719154  CROSSED:          0  USEFUL:     344048  USELESS:    1021288
cpu0_L1D AVERAGE iMISS LATENCY: 0 cycles
cpu0_L1D AVERAGE dMISS LATENCY: 42.1501 cycles
cpu0_L1D AVERAGE itMISS LATENCY: 2.72783 cycles
cpu0_L1D AVERAGE dtMISS LATENCY: 9.63023 cycles
cpu0_L1D PAGE CROSSINGS (TLB HIT):         0 
cpu0_L1D PAGE CROSSINGS (TLB MISS):         0 
cpu0_L1D AVERAGE MISS LATENCY: 54.5082 cycles
cpu0_L2C TOTAL       ACCESS:    9032214  HIT:    4841225  MISS:    4190989  iACCESS:    3547545  iHIT:    2113364  iMISS:    1434181  dACCESS:    5039507  dHIT:    2671651  dMISS:    2367856  itACCESS:     106614  itHIT:      18002  itMISS:      88612  dtACCESS:     338548  dtHIT:      38208  dtMISS:     300340
cpu0_L2C LOAD         ACCESS:    2681133  HIT:    1692184  MISS:     988949  iACCESS:     787008  iHIT:     488016  iMISS:     298992  dACCESS:    1894125  dHIT:    1204168  dMISS:     689957  itACCESS:          0  itHIT:          0  itMISS:          0  dtACCESS:          0  dtHIT:          0  dtMISS:          0
cpu0_L2C RFO          ACCESS:     216506  HIT:      92953  MISS:     123553  iACCESS:          0  iHIT:          0  iMISS:          0  dACCESS:     216506  dHIT:      92953  dMISS:     123553  itACCESS:          0  itHIT:          0  itMISS:          0  dtACCESS:          0  dtHIT:          0  dtMISS:          0
cpu0_L2C PREFETCH     ACCESS:    5359838  HIT:    2680628  MISS:    2679210  iACCESS:    2760537  iHIT:    1625348  iMISS:    1135189  dACCESS:    2599301  dHIT:    1055280  dMISS:    1544021  itACCESS:          0  itHIT:          0  itMISS:          0  dtACCESS:          0  dtHIT:          0  dtMISS:          0
cpu0_L2C WRITE        ACCESS:     329575  HIT:     319250  MISS:      10325  iACCESS:          0  iHIT:          0  iMISS:          0  dACCESS:     329575  dHIT:     319250  dMISS:      10325  itACCESS:          0  itHIT:          0  itMISS:          0  dtACCESS:          0  dtHIT:          0  dtMISS:          0
cpu0_L2C TRANSLATION  ACCESS:     445162  HIT:      56210  MISS:     388952  iACCESS:          0  iHIT:          0  iMISS:          0  dACCESS:          0  dHIT:          0  dMISS:          0  itACCESS:     106614  itHIT:      18002  itMISS:      88612  dtACCESS:     338548  dtHIT:      38208  dtMISS:     300340
cpu0_L2C PREFETCH  REQUESTED:    1453621  ISSUED:    1453585  CROSSED:          0  USEFUL:     343675  USELESS:     311848
cpu0_L2C AVERAGE iMISS LATENCY: 39.1642 cycles
cpu0_L2C AVERAGE dMISS LATENCY: 75.3541 cycles
cpu0_L2C AVERAGE itMISS LATENCY: 3.84549 cycles
cpu0_L2C AVERAGE dtMISS LATENCY: 13.6582 cycles
cpu0_L2C PAGE CROSSINGS (TLB HIT):         0 
cpu0_L2C PAGE CROSSINGS (TLB MISS):         0 
cpu0_L2C AVERAGE MISS LATENCY: 132.022 cycles
LLC TOTAL       ACCESS:    4180726  HIT:    1372249  MISS:    2808477  iACCESS:    1348460  iHIT:     462976  iMISS:     885484  dACCESS:    2443314  dHIT:     869844  dMISS:    1573470  itACCESS:      88612  itHIT:       7249  itMISS:      81363  dtACCESS:     300340  dtHIT:      32180  dtMISS:     268160
LLC LOAD         ACCESS:     984087  HIT:     345141  MISS:     638946  iACCESS:     297745  iHIT:     109130  iMISS:     188615  dACCESS:     686342  dHIT:     236011  dMISS:     450331  itACCESS:          0  itHIT:          0  itMISS:          0  dtACCESS:          0  dtHIT:          0  dtMISS:          0
LLC RFO          ACCESS:     123549  HIT:      41114  MISS:      82435  iACCESS:          0  iHIT:          0  iMISS:          0  dACCESS:     123549  dHIT:      41114  dMISS:      82435  itACCESS:          0  itHIT:          0  itMISS:          0  dtACCESS:          0  dtHIT:          0  dtMISS:          0
LLC PREFETCH     ACCESS:    2485462  HIT:     757087  MISS:    1728375  iACCESS:    1050715  iHIT:     353846  iMISS:     696869  dACCESS:    1434747  dHIT:     403241  dMISS:    1031506  itACCESS:          0  itHIT:          0  itMISS:          0  dtACCESS:          0  dtHIT:          0  dtMISS:          0
LLC WRITE        ACCESS:     198676  HIT:     189478  MISS:       9198  iACCESS:          0  iHIT:          0  iMISS:          0  dACCESS:     198676  dHIT:     189478  dMISS:       9198  itACCESS:          0  itHIT:          0  itMISS:          0  dtACCESS:          0  dtHIT:          0  dtMISS:          0
LLC TRANSLATION  ACCESS:     388952  HIT:      39429  MISS:     349523  iACCESS:          0  iHIT:          0  iMISS:          0  dACCESS:          0  dHIT:          0  dMISS:          0  itACCESS:      88612  itHIT:       7249  itMISS:      81363  dtACCESS:     300340  dtHIT:      32180  dtMISS:     268160
LLC PREFETCH  REQUESTED:          0  ISSUED:          0  CROSSED:          0  USEFUL:          0  USELESS:          0
LLC AVERAGE iMISS LATENCY: 48.9928 cycles
LLC AVERAGE dMISS LATENCY: 97.3691 cycles
LLC AVERAGE itMISS LATENCY: 5.11276 cycles
LLC AVERAGE dtMISS LATENCY: 18.268 cycles
LLC PAGE CROSSINGS (TLB HIT):         0 
LLC PAGE CROSSINGS (TLB MISS):         0 
LLC AVERAGE MISS LATENCY: 169.743 cycles

PageTableWalker TOTAL       ACCESS:     156036  
PageTableWalker AVERAGE LATENCY: 6.43961 cycles
PageTableWalker TOTAL LATENCY: 1004810 cycles

DRAM Statistics
Channel 0
 RQ ROW_BUFFER_HIT:     633389
  ROW_BUFFER_MISS:    2156309
 AVG DBUS CONGESTED CYCLE:    3.64555
 WQ ROW_BUFFER_HIT:      59041
  ROW_BUFFER_MISS:      48565  FULL:          0

