last_page:0x200000000000000
VMEM_RES_CAP:0x100000
PAGE_SIZE:4096
LOG2_PAGE_SIZE:12
LOG2_PAGE_TABLE_SIZE:9
page_table_levels:5
WARNING: physical memory size is smaller than virtual memory size
FDiP enabled with aggresivity 16

*** ChampSim Multicore Out-of-Order Simulator ***

Warmup Instructions: 50000000
Simulation Instructions: 100000000
Number of CPUs: 1
Small page size: 4096
Large page size: 2097152

CPU 0 Bimodal branch predictor
Basic BTB sets: 1024 ways: 8 indirect buffer size: 4096 RAS size: 64
Instruction page size distrubution: 0
Loading instruction page size distribution from /home/bsc/bsc018186/scratch/itp_asplos25_AE/dump/smt_srv207_ap_srv128_ap_1024i.pdst
Data page size distrubution: 0
Loading data page size distribution from /home/bsc/bsc018186/scratch/itp_asplos25_AE/dump/smt_srv207_ap_srv128_ap_1024i.pdst
cpu0_L2C IP-based stride prefetcher
cpu0_L2C is using PTP replacement policy:
	TLB_STRESS_THRESHOLD:0
	PTE_EVICTION_RATIO:0
cpu0_L1D next line prefetcher
cpu0_L1I next line prefetcher
Off-chip DRAM Size: 4 GiB Channels: 1 Width: 64-bit Data Rate: 3200 MT/s
Heartbeat CPU 0 instructions: 10000001 cycles: 2500676 heartbeat IPC: 3.99892 cumulative IPC: 3.99892 (Simulation time: 0 hr 0 min 45 sec) 
Heartbeat CPU 0 instructions: 20000001 cycles: 5090702 heartbeat IPC: 3.86097 cumulative IPC: 3.92874 (Simulation time: 0 hr 1 min 32 sec) 
Heartbeat CPU 0 instructions: 30000002 cycles: 7658061 heartbeat IPC: 3.89506 cumulative IPC: 3.91745 (Simulation time: 0 hr 2 min 20 sec) 
Heartbeat CPU 0 instructions: 40000000 cycles: 10213144 heartbeat IPC: 3.91377 cumulative IPC: 3.91653 (Simulation time: 0 hr 3 min 9 sec) 
Heartbeat CPU 0 instructions: 50000003 cycles: 12713579 heartbeat IPC: 3.99931 cumulative IPC: 3.93281 (Simulation time: 0 hr 3 min 57 sec) 
Warmup finished CPU 0 instructions: 50000003 cycles: 12713580 cumulative IPC: 3.93281 (Simulation time: 0 hr 3 min 57 sec) 

Warmup complete CPU 0 instructions: 50000003 cycles: 12713580 (Simulation time: 0 hr 3 min 57 sec) 

Heartbeat CPU 0 instructions: 60000000 cycles: 44054581 heartbeat IPC: 0.319071 cumulative IPC: 0.319071 (Simulation time: 0 hr 5 min 37 sec) 
Heartbeat CPU 0 instructions: 70000000 cycles: 75078266 heartbeat IPC: 0.322335 cumulative IPC: 0.320695 (Simulation time: 0 hr 7 min 14 sec) 
Heartbeat CPU 0 instructions: 80000000 cycles: 107495380 heartbeat IPC: 0.30848 cumulative IPC: 0.316517 (Simulation time: 0 hr 8 min 56 sec) 
Heartbeat CPU 0 instructions: 90000000 cycles: 138224896 heartbeat IPC: 0.325421 cumulative IPC: 0.318697 (Simulation time: 0 hr 10 min 35 sec) 
Heartbeat CPU 0 instructions: 100000004 cycles: 169496545 heartbeat IPC: 0.319779 cumulative IPC: 0.318913 (Simulation time: 0 hr 12 min 15 sec) 
Heartbeat CPU 0 instructions: 110000000 cycles: 200405514 heartbeat IPC: 0.323531 cumulative IPC: 0.319673 (Simulation time: 0 hr 13 min 55 sec) 
Heartbeat CPU 0 instructions: 120000000 cycles: 231517521 heartbeat IPC: 0.32142 cumulative IPC: 0.319922 (Simulation time: 0 hr 15 min 35 sec) 
Heartbeat CPU 0 instructions: 130000000 cycles: 261187125 heartbeat IPC: 0.337046 cumulative IPC: 0.321966 (Simulation time: 0 hr 17 min 1 sec) 
Heartbeat CPU 0 instructions: 140000002 cycles: 293324160 heartbeat IPC: 0.311168 cumulative IPC: 0.32073 (Simulation time: 0 hr 18 min 30 sec) 
Heartbeat CPU 0 instructions: 150000000 cycles: 324356145 heartbeat IPC: 0.322249 cumulative IPC: 0.320881 (Simulation time: 0 hr 19 min 57 sec) 
Simulation finished CPU 0 instructions: 100000002 cycles: 311642567 cumulative IPC: 0.320881 (Simulation time: 0 hr 19 min 57 sec) 

Simulation complete CPU 0 instructions: 100000002 cycles: 311642567 (Simulation time: 0 hr 19 min 57 sec) 


ChampSim completed all CPUs

Saving instructions large page distribution to /home/bsc/bsc018186/scratch/itp_asplos25_AE/dump/smt_srv207_ap_srv128_ap_1024i.pdst...
Saving data large page distribution to /home/bsc/bsc018186/scratch/itp_asplos25_AE/dump/smt_srv207_ap_srv128_ap_1024i.pdst...
=== Simulation ===
CPU 0 runs /gpfs/projects/bsc18/MN4/bsc18/romol/ChampSim/traces/qualcomm_srv/smt_srv207_ap_srv128_ap_1024i.champsimtrace.xz

Region of Interest Statistics

CPU 0 cumulative IPC: 0.320881 instructions: 100000002 cycles: 311642567
CPU 0 Branch Prediction Accuracy: 74.6379% MPKI: 45.7035 Average ROB Occupancy at Mispredict: 10.8275
Branch type MPKI
BRANCH_DIRECT_JUMP: 1.4268
BRANCH_INDIRECT: 24.0043
BRANCH_CONDITIONAL: 12.9435
BRANCH_DIRECT_CALL: 2.70895
BRANCH_INDIRECT_CALL: 1.0328
BRANCH_RETURN: 3.58727

Instructions large pages: 0
Instructions small pages: 11526
Large page distribution for instructions: 0%

Data large pages: 0
Data small pages: 9998
Large page distribution for data: 0%

cpu0_L1I TOTAL       ACCESS:   39134858  HIT:   30387620  MISS:    8747238  iACCESS:   39134858  iHIT:   30387620  iMISS:    8747238  dACCESS:          0  dHIT:          0  dMISS:          0  itACCESS:          0  itHIT:          0  itMISS:          0  dtACCESS:          0  dtHIT:          0  dtMISS:          0
cpu0_L1I LOAD         ACCESS:   11590407  HIT:    9205584  MISS:    2384823  iACCESS:   11590407  iHIT:    9205584  iMISS:    2384823  dACCESS:          0  dHIT:          0  dMISS:          0  itACCESS:          0  itHIT:          0  itMISS:          0  dtACCESS:          0  dtHIT:          0  dtMISS:          0
cpu0_L1I RFO          ACCESS:          0  HIT:          0  MISS:          0  iACCESS:          0  iHIT:          0  iMISS:          0  dACCESS:          0  dHIT:          0  dMISS:          0  itACCESS:          0  itHIT:          0  itMISS:          0  dtACCESS:          0  dtHIT:          0  dtMISS:          0
cpu0_L1I PREFETCH     ACCESS:   27544451  HIT:   21182036  MISS:    6362415  iACCESS:   27544451  iHIT:   21182036  iMISS:    6362415  dACCESS:          0  dHIT:          0  dMISS:          0  itACCESS:          0  itHIT:          0  itMISS:          0  dtACCESS:          0  dtHIT:          0  dtMISS:          0
cpu0_L1I WRITE        ACCESS:          0  HIT:          0  MISS:          0  iACCESS:          0  iHIT:          0  iMISS:          0  dACCESS:          0  dHIT:          0  dMISS:          0  itACCESS:          0  itHIT:          0  itMISS:          0  dtACCESS:          0  dtHIT:          0  dtMISS:          0
cpu0_L1I TRANSLATION  ACCESS:          0  HIT:          0  MISS:          0  iACCESS:          0  iHIT:          0  iMISS:          0  dACCESS:          0  dHIT:          0  dMISS:          0  itACCESS:          0  itHIT:          0  itMISS:          0  dtACCESS:          0  dtHIT:          0  dtMISS:          0
cpu0_L1I PREFETCH  REQUESTED:   30275268  ISSUED:   30275118  CROSSED:          0  USEFUL:    2209495  USELESS:     796448
cpu0_L1I AVERAGE iMISS LATENCY: 25.2207 cycles
cpu0_L1I AVERAGE dMISS LATENCY: 0 cycles
cpu0_L1I AVERAGE itMISS LATENCY: 0 cycles
cpu0_L1I AVERAGE dtMISS LATENCY: 0 cycles
cpu0_L1I PAGE CROSSINGS (TLB HIT):         0 
cpu0_L1I PAGE CROSSINGS (TLB MISS):         0 
cpu0_L1I AVERAGE MISS LATENCY: 25.2207 cycles
cpu0_ITLB TOTAL       ACCESS:   33230354  HIT:   30952540  MISS:    2277814  iACCESS:   33230354  iHIT:   30952540  iMISS:    2277814  dACCESS:          0  dHIT:          0  dMISS:          0  itACCESS:          0  itHIT:          0  itMISS:          0  dtACCESS:          0  dtHIT:          0  dtMISS:          0
cpu0_ITLB LOAD         ACCESS:   33230354  HIT:   30952540  MISS:    2277814  iACCESS:   33230354  iHIT:   30952540  iMISS:    2277814  dACCESS:          0  dHIT:          0  dMISS:          0  itACCESS:          0  itHIT:          0  itMISS:          0  dtACCESS:          0  dtHIT:          0  dtMISS:          0
cpu0_ITLB RFO          ACCESS:          0  HIT:          0  MISS:          0  iACCESS:          0  iHIT:          0  iMISS:          0  dACCESS:          0  dHIT:          0  dMISS:          0  itACCESS:          0  itHIT:          0  itMISS:          0  dtACCESS:          0  dtHIT:          0  dtMISS:          0
cpu0_ITLB PREFETCH     ACCESS:          0  HIT:          0  MISS:          0  iACCESS:          0  iHIT:          0  iMISS:          0  dACCESS:          0  dHIT:          0  dMISS:          0  itACCESS:          0  itHIT:          0  itMISS:          0  dtACCESS:          0  dtHIT:          0  dtMISS:          0
cpu0_ITLB WRITE        ACCESS:          0  HIT:          0  MISS:          0  iACCESS:          0  iHIT:          0  iMISS:          0  dACCESS:          0  dHIT:          0  dMISS:          0  itACCESS:          0  itHIT:          0  itMISS:          0  dtACCESS:          0  dtHIT:          0  dtMISS:          0
cpu0_ITLB TRANSLATION  ACCESS:          0  HIT:          0  MISS:          0  iACCESS:          0  iHIT:          0  iMISS:          0  dACCESS:          0  dHIT:          0  dMISS:          0  itACCESS:          0  itHIT:          0  itMISS:          0  dtACCESS:          0  dtHIT:          0  dtMISS:          0
cpu0_ITLB PREFETCH  REQUESTED:          0  ISSUED:          0  CROSSED:          0  USEFUL:     400164  USELESS:      82603
cpu0_ITLB AVERAGE iMISS LATENCY: 10.6658 cycles
cpu0_ITLB AVERAGE dMISS LATENCY: 0 cycles
cpu0_ITLB AVERAGE itMISS LATENCY: 0 cycles
cpu0_ITLB AVERAGE dtMISS LATENCY: 0 cycles
cpu0_ITLB PAGE CROSSINGS (TLB HIT):         0 
cpu0_ITLB PAGE CROSSINGS (TLB MISS):         0 
cpu0_ITLB AVERAGE MISS LATENCY: 10.6658 cycles
cpu0_DTLB TOTAL       ACCESS:   29211323  HIT:   25706597  MISS:    3504726  iACCESS:          0  iHIT:          0  iMISS:          0  dACCESS:   29211323  dHIT:   25706597  dMISS:    3504726  itACCESS:          0  itHIT:          0  itMISS:          0  dtACCESS:          0  dtHIT:          0  dtMISS:          0
cpu0_DTLB LOAD         ACCESS:   29211323  HIT:   25706597  MISS:    3504726  iACCESS:          0  iHIT:          0  iMISS:          0  dACCESS:   29211323  dHIT:   25706597  dMISS:    3504726  itACCESS:          0  itHIT:          0  itMISS:          0  dtACCESS:          0  dtHIT:          0  dtMISS:          0
cpu0_DTLB RFO          ACCESS:          0  HIT:          0  MISS:          0  iACCESS:          0  iHIT:          0  iMISS:          0  dACCESS:          0  dHIT:          0  dMISS:          0  itACCESS:          0  itHIT:          0  itMISS:          0  dtACCESS:          0  dtHIT:          0  dtMISS:          0
cpu0_DTLB PREFETCH     ACCESS:          0  HIT:          0  MISS:          0  iACCESS:          0  iHIT:          0  iMISS:          0  dACCESS:          0  dHIT:          0  dMISS:          0  itACCESS:          0  itHIT:          0  itMISS:          0  dtACCESS:          0  dtHIT:          0  dtMISS:          0
cpu0_DTLB WRITE        ACCESS:          0  HIT:          0  MISS:          0  iACCESS:          0  iHIT:          0  iMISS:          0  dACCESS:          0  dHIT:          0  dMISS:          0  itACCESS:          0  itHIT:          0  itMISS:          0  dtACCESS:          0  dtHIT:          0  dtMISS:          0
cpu0_DTLB TRANSLATION  ACCESS:          0  HIT:          0  MISS:          0  iACCESS:          0  iHIT:          0  iMISS:          0  dACCESS:          0  dHIT:          0  dMISS:          0  itACCESS:          0  itHIT:          0  itMISS:          0  dtACCESS:          0  dtHIT:          0  dtMISS:          0
cpu0_DTLB PREFETCH  REQUESTED:          0  ISSUED:          0  CROSSED:          0  USEFUL:          0  USELESS:          0
cpu0_DTLB AVERAGE iMISS LATENCY: 0 cycles
cpu0_DTLB AVERAGE dMISS LATENCY: 26.4965 cycles
cpu0_DTLB AVERAGE itMISS LATENCY: 0 cycles
cpu0_DTLB AVERAGE dtMISS LATENCY: 0 cycles
cpu0_DTLB PAGE CROSSINGS (TLB HIT):         0 
cpu0_DTLB PAGE CROSSINGS (TLB MISS):         0 
cpu0_DTLB AVERAGE MISS LATENCY: 26.4965 cycles
cpu0_STLB TOTAL       ACCESS:    2556491  HIT:    2166798  MISS:     389693  iACCESS:     482771  iHIT:     363933  iMISS:     118838  dACCESS:    2073720  dHIT:    1802865  dMISS:     270855  itACCESS:          0  itHIT:          0  itMISS:          0  dtACCESS:          0  dtHIT:          0  dtMISS:          0
cpu0_STLB LOAD         ACCESS:    2556491  HIT:    2166798  MISS:     389693  iACCESS:     482771  iHIT:     363933  iMISS:     118838  dACCESS:    2073720  dHIT:    1802865  dMISS:     270855  itACCESS:          0  itHIT:          0  itMISS:          0  dtACCESS:          0  dtHIT:          0  dtMISS:          0
cpu0_STLB RFO          ACCESS:          0  HIT:          0  MISS:          0  iACCESS:          0  iHIT:          0  iMISS:          0  dACCESS:          0  dHIT:          0  dMISS:          0  itACCESS:          0  itHIT:          0  itMISS:          0  dtACCESS:          0  dtHIT:          0  dtMISS:          0
cpu0_STLB PREFETCH     ACCESS:          0  HIT:          0  MISS:          0  iACCESS:          0  iHIT:          0  iMISS:          0  dACCESS:          0  dHIT:          0  dMISS:          0  itACCESS:          0  itHIT:          0  itMISS:          0  dtACCESS:          0  dtHIT:          0  dtMISS:          0
cpu0_STLB WRITE        ACCESS:          0  HIT:          0  MISS:          0  iACCESS:          0  iHIT:          0  iMISS:          0  dACCESS:          0  dHIT:          0  dMISS:          0  itACCESS:          0  itHIT:          0  itMISS:          0  dtACCESS:          0  dtHIT:          0  dtMISS:          0
cpu0_STLB TRANSLATION  ACCESS:          0  HIT:          0  MISS:          0  iACCESS:          0  iHIT:          0  iMISS:          0  dACCESS:          0  dHIT:          0  dMISS:          0  itACCESS:          0  itHIT:          0  itMISS:          0  dtACCESS:          0  dtHIT:          0  dtMISS:          0
cpu0_STLB PREFETCH  REQUESTED:          0  ISSUED:          0  CROSSED:          0  USEFUL:          0  USELESS:          0
cpu0_STLB AVERAGE iMISS LATENCY: 52.4291 cycles
cpu0_STLB AVERAGE dMISS LATENCY: 195.44 cycles
cpu0_STLB AVERAGE itMISS LATENCY: 0 cycles
cpu0_STLB AVERAGE dtMISS LATENCY: 0 cycles
cpu0_STLB PAGE CROSSINGS (TLB HIT):         0 
cpu0_STLB PAGE CROSSINGS (TLB MISS):         0 
cpu0_STLB AVERAGE MISS LATENCY: 247.869 cycles
cpu0_L1D TOTAL       ACCESS:   45749157  HIT:   39680592  MISS:    6068565  iACCESS:          0  iHIT:          0  iMISS:          0  dACCESS:   45181712  dHIT:   39647660  dMISS:    5534052  itACCESS:     133082  itHIT:      13876  itMISS:     119206  dtACCESS:     434363  dtHIT:      19056  dtMISS:     415307
cpu0_L1D LOAD         ACCESS:   20689694  HIT:   18195417  MISS:    2494277  iACCESS:          0  iHIT:          0  iMISS:          0  dACCESS:   20689694  dHIT:   18195417  dMISS:    2494277  itACCESS:          0  itHIT:          0  itMISS:          0  dtACCESS:          0  dtHIT:          0  dtMISS:          0
cpu0_L1D RFO          ACCESS:          0  HIT:          0  MISS:          0  iACCESS:          0  iHIT:          0  iMISS:          0  dACCESS:          0  dHIT:          0  dMISS:          0  itACCESS:          0  itHIT:          0  itMISS:          0  dtACCESS:          0  dtHIT:          0  dtMISS:          0
cpu0_L1D PREFETCH     ACCESS:   14354776  HIT:   11915889  MISS:    2438887  iACCESS:          0  iHIT:          0  iMISS:          0  dACCESS:   14354776  dHIT:   11915889  dMISS:    2438887  itACCESS:          0  itHIT:          0  itMISS:          0  dtACCESS:          0  dtHIT:          0  dtMISS:          0
cpu0_L1D WRITE        ACCESS:   10137242  HIT:    9536354  MISS:     600888  iACCESS:          0  iHIT:          0  iMISS:          0  dACCESS:   10137242  dHIT:    9536354  dMISS:     600888  itACCESS:          0  itHIT:          0  itMISS:          0  dtACCESS:          0  dtHIT:          0  dtMISS:          0
cpu0_L1D TRANSLATION  ACCESS:     567445  HIT:      32932  MISS:     534513  iACCESS:          0  iHIT:          0  iMISS:          0  dACCESS:          0  dHIT:          0  dMISS:          0  itACCESS:     133082  itHIT:      13876  itMISS:     119206  dtACCESS:     434363  dtHIT:      19056  dtMISS:     415307
cpu0_L1D PREFETCH  REQUESTED:   20689694  ISSUED:   18854079  CROSSED:          0  USEFUL:     377466  USELESS:     959132
cpu0_L1D AVERAGE iMISS LATENCY: 0 cycles
cpu0_L1D AVERAGE dMISS LATENCY: 49.5788 cycles
cpu0_L1D AVERAGE itMISS LATENCY: 3.18324 cycles
cpu0_L1D AVERAGE dtMISS LATENCY: 11.7858 cycles
cpu0_L1D PAGE CROSSINGS (TLB HIT):         0 
cpu0_L1D PAGE CROSSINGS (TLB MISS):         0 
cpu0_L1D AVERAGE MISS LATENCY: 64.5478 cycles
cpu0_L2C TOTAL       ACCESS:    8779619  HIT:    4227944  MISS:    4551675  iACCESS:    3830885  iHIT:    2301192  iMISS:    1529693  dACCESS:    4447105  dHIT:    1867102  dMISS:    2580003  itACCESS:     118587  itHIT:      21100  itMISS:      97487  dtACCESS:     383042  dtHIT:      38550  dtMISS:     344492
cpu0_L2C LOAD         ACCESS:    2114028  HIT:    1023531  MISS:    1090497  iACCESS:     859847  iHIT:     541605  iMISS:     318242  dACCESS:    1254181  dHIT:     481926  dMISS:     772255  itACCESS:          0  itHIT:          0  itMISS:          0  dtACCESS:          0  dtHIT:          0  dtMISS:          0
cpu0_L2C RFO          ACCESS:     225648  HIT:      90325  MISS:     135323  iACCESS:          0  iHIT:          0  iMISS:          0  dACCESS:     225648  dHIT:      90325  dMISS:     135323  itACCESS:          0  itHIT:          0  itMISS:          0  dtACCESS:          0  dtHIT:          0  dtMISS:          0
cpu0_L2C PREFETCH     ACCESS:    5588466  HIT:    2708437  MISS:    2880029  iACCESS:    2971038  iHIT:    1759587  iMISS:    1211451  dACCESS:    2617428  dHIT:     948850  dMISS:    1668578  itACCESS:          0  itHIT:          0  itMISS:          0  dtACCESS:          0  dtHIT:          0  dtMISS:          0
cpu0_L2C WRITE        ACCESS:     349848  HIT:     346001  MISS:       3847  iACCESS:          0  iHIT:          0  iMISS:          0  dACCESS:     349848  dHIT:     346001  dMISS:       3847  itACCESS:          0  itHIT:          0  itMISS:          0  dtACCESS:          0  dtHIT:          0  dtMISS:          0
cpu0_L2C TRANSLATION  ACCESS:     501629  HIT:      59650  MISS:     441979  iACCESS:          0  iHIT:          0  iMISS:          0  dACCESS:          0  dHIT:          0  dMISS:          0  itACCESS:     118587  itHIT:      21100  itMISS:      97487  dtACCESS:     383042  dtHIT:      38550  dtMISS:     344492
cpu0_L2C PREFETCH  REQUESTED:    1518385  ISSUED:    1518381  CROSSED:          0  USEFUL:     349272  USELESS:     328514
cpu0_L2C AVERAGE iMISS LATENCY: 41.4782 cycles
cpu0_L2C AVERAGE dMISS LATENCY: 81.6644 cycles
cpu0_L2C AVERAGE itMISS LATENCY: 3.98737 cycles
cpu0_L2C AVERAGE dtMISS LATENCY: 14.8756 cycles
cpu0_L2C PAGE CROSSINGS (TLB HIT):         0 
cpu0_L2C PAGE CROSSINGS (TLB MISS):         0 
cpu0_L2C AVERAGE MISS LATENCY: 142.006 cycles
LLC TOTAL       ACCESS:    4546794  HIT:    1312036  MISS:    3234758  iACCESS:    1442919  iHIT:     439051  iMISS:    1003868  dACCESS:    2661896  dHIT:     835154  dMISS:    1826742  itACCESS:      97487  itHIT:       6915  itMISS:      90572  dtACCESS:     344492  dtHIT:      30916  dtMISS:     313576
LLC LOAD         ACCESS:    1082523  HIT:     326978  MISS:     755545  iACCESS:     317057  iHIT:     102663  iMISS:     214394  dACCESS:     765466  dHIT:     224315  dMISS:     541151  itACCESS:          0  itHIT:          0  itMISS:          0  dtACCESS:          0  dtHIT:          0  dtMISS:          0
LLC RFO          ACCESS:     135318  HIT:      39377  MISS:      95941  iACCESS:          0  iHIT:          0  iMISS:          0  dACCESS:     135318  dHIT:      39377  dMISS:      95941  itACCESS:          0  itHIT:          0  itMISS:          0  dtACCESS:          0  dtHIT:          0  dtMISS:          0
LLC PREFETCH     ACCESS:    2674803  HIT:     706248  MISS:    1968555  iACCESS:    1125862  iHIT:     336388  iMISS:     789474  dACCESS:    1548941  dHIT:     369860  dMISS:    1179081  itACCESS:          0  itHIT:          0  itMISS:          0  dtACCESS:          0  dtHIT:          0  dtMISS:          0
LLC WRITE        ACCESS:     212171  HIT:     201602  MISS:      10569  iACCESS:          0  iHIT:          0  iMISS:          0  dACCESS:     212171  dHIT:     201602  dMISS:      10569  itACCESS:          0  itHIT:          0  itMISS:          0  dtACCESS:          0  dtHIT:          0  dtMISS:          0
LLC TRANSLATION  ACCESS:     441979  HIT:      37831  MISS:     404148  iACCESS:          0  iHIT:          0  iMISS:          0  dACCESS:          0  dHIT:          0  dMISS:          0  itACCESS:      97487  itHIT:       6915  itMISS:      90572  dtACCESS:     344492  dtHIT:      30916  dtMISS:     313576
LLC PREFETCH  REQUESTED:          0  ISSUED:          0  CROSSED:          0  USEFUL:          0  USELESS:          0
LLC AVERAGE iMISS LATENCY: 49.5725 cycles
LLC AVERAGE dMISS LATENCY: 100.934 cycles
LLC AVERAGE itMISS LATENCY: 5.01283 cycles
LLC AVERAGE dtMISS LATENCY: 18.8249 cycles
LLC PAGE CROSSINGS (TLB HIT):         0 
LLC PAGE CROSSINGS (TLB MISS):         0 
LLC AVERAGE MISS LATENCY: 174.344 cycles

PageTableWalker TOTAL       ACCESS:     143548  
PageTableWalker AVERAGE LATENCY: 6.48096 cycles
PageTableWalker TOTAL LATENCY: 930328 cycles

DRAM Statistics
Channel 0
 RQ ROW_BUFFER_HIT:     654485
  ROW_BUFFER_MISS:    2549644
 AVG DBUS CONGESTED CYCLE:    3.65166
 WQ ROW_BUFFER_HIT:      67629
  ROW_BUFFER_MISS:      58599  FULL:          0

