last_page:0x200000000000000
VMEM_RES_CAP:0x100000
PAGE_SIZE:4096
LOG2_PAGE_SIZE:12
LOG2_PAGE_TABLE_SIZE:9
page_table_levels:5
WARNING: physical memory size is smaller than virtual memory size
FDiP enabled with aggresivity 16

*** ChampSim Multicore Out-of-Order Simulator ***

Warmup Instructions: 50000000
Simulation Instructions: 100000000
Number of CPUs: 1
Small page size: 4096
Large page size: 2097152

CPU 0 Bimodal branch predictor
Basic BTB sets: 1024 ways: 8 indirect buffer size: 4096 RAS size: 64
Instruction page size distrubution: 0
Loading instruction page size distribution from /home/bsc/bsc018186/scratch/itp_asplos25_AE/dump/smt_srv537_ap_srv697_ap_1024i.pdst
Data page size distrubution: 0
Loading data page size distribution from /home/bsc/bsc018186/scratch/itp_asplos25_AE/dump/smt_srv537_ap_srv697_ap_1024i.pdst
cpu0_L2C IP-based stride prefetcher
cpu0_L2C is using PTP replacement policy:
	TLB_STRESS_THRESHOLD:0
	PTE_EVICTION_RATIO:0
cpu0_L1D next line prefetcher
CHiRPing...
cpu0_L1I next line prefetcher
Off-chip DRAM Size: 4 GiB Channels: 1 Width: 64-bit Data Rate: 3200 MT/s
Heartbeat CPU 0 instructions: 10000000 cycles: 2500549 heartbeat IPC: 3.99913 cumulative IPC: 3.99913 (Simulation time: 0 hr 0 min 36 sec) 
Heartbeat CPU 0 instructions: 20000003 cycles: 5000696 heartbeat IPC: 3.99977 cumulative IPC: 3.99945 (Simulation time: 0 hr 1 min 14 sec) 
Heartbeat CPU 0 instructions: 30000000 cycles: 7500872 heartbeat IPC: 3.99972 cumulative IPC: 3.99954 (Simulation time: 0 hr 1 min 52 sec) 
Heartbeat CPU 0 instructions: 40000003 cycles: 10001078 heartbeat IPC: 3.99968 cumulative IPC: 3.99957 (Simulation time: 0 hr 2 min 31 sec) 
Heartbeat CPU 0 instructions: 50000001 cycles: 12501434 heartbeat IPC: 3.99943 cumulative IPC: 3.99955 (Simulation time: 0 hr 3 min 9 sec) 
Warmup finished CPU 0 instructions: 50000001 cycles: 12501435 cumulative IPC: 3.99955 (Simulation time: 0 hr 3 min 9 sec) 

Warmup complete CPU 0 instructions: 50000001 cycles: 12501435 (Simulation time: 0 hr 3 min 9 sec) 

Heartbeat CPU 0 instructions: 60000003 cycles: 41914487 heartbeat IPC: 0.339986 cumulative IPC: 0.339986 (Simulation time: 0 hr 4 min 30 sec) 
Heartbeat CPU 0 instructions: 70000002 cycles: 69860775 heartbeat IPC: 0.35783 cumulative IPC: 0.34868 (Simulation time: 0 hr 5 min 49 sec) 
Heartbeat CPU 0 instructions: 80000002 cycles: 97850749 heartbeat IPC: 0.357271 cumulative IPC: 0.351497 (Simulation time: 0 hr 7 min 7 sec) 
Heartbeat CPU 0 instructions: 90000000 cycles: 126615036 heartbeat IPC: 0.347654 cumulative IPC: 0.350528 (Simulation time: 0 hr 8 min 27 sec) 
Heartbeat CPU 0 instructions: 100000003 cycles: 154987267 heartbeat IPC: 0.352458 cumulative IPC: 0.350913 (Simulation time: 0 hr 9 min 47 sec) 
Heartbeat CPU 0 instructions: 110000002 cycles: 183649902 heartbeat IPC: 0.348887 cumulative IPC: 0.350573 (Simulation time: 0 hr 11 min 7 sec) 
Heartbeat CPU 0 instructions: 120000001 cycles: 211890457 heartbeat IPC: 0.354101 cumulative IPC: 0.351073 (Simulation time: 0 hr 12 min 26 sec) 
Heartbeat CPU 0 instructions: 130000004 cycles: 239772107 heartbeat IPC: 0.358659 cumulative IPC: 0.352004 (Simulation time: 0 hr 13 min 45 sec) 
Heartbeat CPU 0 instructions: 140000000 cycles: 267409012 heartbeat IPC: 0.361835 cumulative IPC: 0.35307 (Simulation time: 0 hr 15 min 4 sec) 
Heartbeat CPU 0 instructions: 150000003 cycles: 296418446 heartbeat IPC: 0.344716 cumulative IPC: 0.352216 (Simulation time: 0 hr 16 min 25 sec) 
Simulation finished CPU 0 instructions: 100000002 cycles: 283917012 cumulative IPC: 0.352216 (Simulation time: 0 hr 16 min 25 sec) 

Simulation complete CPU 0 instructions: 100000002 cycles: 283917012 (Simulation time: 0 hr 16 min 25 sec) 


ChampSim completed all CPUs

Saving instructions large page distribution to /home/bsc/bsc018186/scratch/itp_asplos25_AE/dump/smt_srv537_ap_srv697_ap_1024i.pdst...
Saving data large page distribution to /home/bsc/bsc018186/scratch/itp_asplos25_AE/dump/smt_srv537_ap_srv697_ap_1024i.pdst...
=== Simulation ===
CPU 0 runs /gpfs/projects/bsc18/MN4/bsc18/romol/ChampSim/traces/qualcomm_srv/smt_srv537_ap_srv697_ap_1024i.champsimtrace.xz

Region of Interest Statistics

CPU 0 cumulative IPC: 0.352216 instructions: 100000002 cycles: 283917012
CPU 0 Branch Prediction Accuracy: 76.0748% MPKI: 43.0951 Average ROB Occupancy at Mispredict: 11.3441
Branch type MPKI
BRANCH_DIRECT_JUMP: 1.29081
BRANCH_INDIRECT: 22.4002
BRANCH_CONDITIONAL: 12.5647
BRANCH_DIRECT_CALL: 2.48234
BRANCH_INDIRECT_CALL: 0.93561
BRANCH_RETURN: 3.4215

Instructions large pages: 0
Instructions small pages: 13574
Large page distribution for instructions: 0%

Data large pages: 0
Data small pages: 12278
Large page distribution for data: 0%

cpu0_L1I TOTAL       ACCESS:   39084159  HIT:   30419249  MISS:    8664910  iACCESS:   39084159  iHIT:   30419249  iMISS:    8664910  dACCESS:          0  dHIT:          0  dMISS:          0  itACCESS:          0  itHIT:          0  itMISS:          0  dtACCESS:          0  dtHIT:          0  dtMISS:          0
cpu0_L1I LOAD         ACCESS:   11756761  HIT:    9390393  MISS:    2366368  iACCESS:   11756761  iHIT:    9390393  iMISS:    2366368  dACCESS:          0  dHIT:          0  dMISS:          0  itACCESS:          0  itHIT:          0  itMISS:          0  dtACCESS:          0  dtHIT:          0  dtMISS:          0
cpu0_L1I RFO          ACCESS:          0  HIT:          0  MISS:          0  iACCESS:          0  iHIT:          0  iMISS:          0  dACCESS:          0  dHIT:          0  dMISS:          0  itACCESS:          0  itHIT:          0  itMISS:          0  dtACCESS:          0  dtHIT:          0  dtMISS:          0
cpu0_L1I PREFETCH     ACCESS:   27327398  HIT:   21028856  MISS:    6298542  iACCESS:   27327398  iHIT:   21028856  iMISS:    6298542  dACCESS:          0  dHIT:          0  dMISS:          0  itACCESS:          0  itHIT:          0  itMISS:          0  dtACCESS:          0  dtHIT:          0  dtMISS:          0
cpu0_L1I WRITE        ACCESS:          0  HIT:          0  MISS:          0  iACCESS:          0  iHIT:          0  iMISS:          0  dACCESS:          0  dHIT:          0  dMISS:          0  itACCESS:          0  itHIT:          0  itMISS:          0  dtACCESS:          0  dtHIT:          0  dtMISS:          0
cpu0_L1I TRANSLATION  ACCESS:          0  HIT:          0  MISS:          0  iACCESS:          0  iHIT:          0  iMISS:          0  dACCESS:          0  dHIT:          0  dMISS:          0  itACCESS:          0  itHIT:          0  itMISS:          0  dtACCESS:          0  dtHIT:          0  dtMISS:          0
cpu0_L1I PREFETCH  REQUESTED:   30214705  ISSUED:   30214666  CROSSED:          0  USEFUL:    2193925  USELESS:     751398
cpu0_L1I AVERAGE iMISS LATENCY: 22.9803 cycles
cpu0_L1I AVERAGE dMISS LATENCY: 0 cycles
cpu0_L1I AVERAGE itMISS LATENCY: 0 cycles
cpu0_L1I AVERAGE dtMISS LATENCY: 0 cycles
cpu0_L1I PAGE CROSSINGS (TLB HIT):         0 
cpu0_L1I PAGE CROSSINGS (TLB MISS):         0 
cpu0_L1I AVERAGE MISS LATENCY: 22.9803 cycles
cpu0_ITLB TOTAL       ACCESS:   32981068  HIT:   30775660  MISS:    2205408  iACCESS:   32981068  iHIT:   30775660  iMISS:    2205408  dACCESS:          0  dHIT:          0  dMISS:          0  itACCESS:          0  itHIT:          0  itMISS:          0  dtACCESS:          0  dtHIT:          0  dtMISS:          0
cpu0_ITLB LOAD         ACCESS:   32981068  HIT:   30775660  MISS:    2205408  iACCESS:   32981068  iHIT:   30775660  iMISS:    2205408  dACCESS:          0  dHIT:          0  dMISS:          0  itACCESS:          0  itHIT:          0  itMISS:          0  dtACCESS:          0  dtHIT:          0  dtMISS:          0
cpu0_ITLB RFO          ACCESS:          0  HIT:          0  MISS:          0  iACCESS:          0  iHIT:          0  iMISS:          0  dACCESS:          0  dHIT:          0  dMISS:          0  itACCESS:          0  itHIT:          0  itMISS:          0  dtACCESS:          0  dtHIT:          0  dtMISS:          0
cpu0_ITLB PREFETCH     ACCESS:          0  HIT:          0  MISS:          0  iACCESS:          0  iHIT:          0  iMISS:          0  dACCESS:          0  dHIT:          0  dMISS:          0  itACCESS:          0  itHIT:          0  itMISS:          0  dtACCESS:          0  dtHIT:          0  dtMISS:          0
cpu0_ITLB WRITE        ACCESS:          0  HIT:          0  MISS:          0  iACCESS:          0  iHIT:          0  iMISS:          0  dACCESS:          0  dHIT:          0  dMISS:          0  itACCESS:          0  itHIT:          0  itMISS:          0  dtACCESS:          0  dtHIT:          0  dtMISS:          0
cpu0_ITLB TRANSLATION  ACCESS:          0  HIT:          0  MISS:          0  iACCESS:          0  iHIT:          0  iMISS:          0  dACCESS:          0  dHIT:          0  dMISS:          0  itACCESS:          0  itHIT:          0  itMISS:          0  dtACCESS:          0  dtHIT:          0  dtMISS:          0
cpu0_ITLB PREFETCH  REQUESTED:          0  ISSUED:          0  CROSSED:          0  USEFUL:     383345  USELESS:      77478
cpu0_ITLB AVERAGE iMISS LATENCY: 9.46882 cycles
cpu0_ITLB AVERAGE dMISS LATENCY: 0 cycles
cpu0_ITLB AVERAGE itMISS LATENCY: 0 cycles
cpu0_ITLB AVERAGE dtMISS LATENCY: 0 cycles
cpu0_ITLB PAGE CROSSINGS (TLB HIT):         0 
cpu0_ITLB PAGE CROSSINGS (TLB MISS):         0 
cpu0_ITLB AVERAGE MISS LATENCY: 9.46882 cycles
cpu0_DTLB TOTAL       ACCESS:   28734569  HIT:   25266207  MISS:    3468362  iACCESS:          0  iHIT:          0  iMISS:          0  dACCESS:   28734569  dHIT:   25266207  dMISS:    3468362  itACCESS:          0  itHIT:          0  itMISS:          0  dtACCESS:          0  dtHIT:          0  dtMISS:          0
cpu0_DTLB LOAD         ACCESS:   28734569  HIT:   25266207  MISS:    3468362  iACCESS:          0  iHIT:          0  iMISS:          0  dACCESS:   28734569  dHIT:   25266207  dMISS:    3468362  itACCESS:          0  itHIT:          0  itMISS:          0  dtACCESS:          0  dtHIT:          0  dtMISS:          0
cpu0_DTLB RFO          ACCESS:          0  HIT:          0  MISS:          0  iACCESS:          0  iHIT:          0  iMISS:          0  dACCESS:          0  dHIT:          0  dMISS:          0  itACCESS:          0  itHIT:          0  itMISS:          0  dtACCESS:          0  dtHIT:          0  dtMISS:          0
cpu0_DTLB PREFETCH     ACCESS:          0  HIT:          0  MISS:          0  iACCESS:          0  iHIT:          0  iMISS:          0  dACCESS:          0  dHIT:          0  dMISS:          0  itACCESS:          0  itHIT:          0  itMISS:          0  dtACCESS:          0  dtHIT:          0  dtMISS:          0
cpu0_DTLB WRITE        ACCESS:          0  HIT:          0  MISS:          0  iACCESS:          0  iHIT:          0  iMISS:          0  dACCESS:          0  dHIT:          0  dMISS:          0  itACCESS:          0  itHIT:          0  itMISS:          0  dtACCESS:          0  dtHIT:          0  dtMISS:          0
cpu0_DTLB TRANSLATION  ACCESS:          0  HIT:          0  MISS:          0  iACCESS:          0  iHIT:          0  iMISS:          0  dACCESS:          0  dHIT:          0  dMISS:          0  itACCESS:          0  itHIT:          0  itMISS:          0  dtACCESS:          0  dtHIT:          0  dtMISS:          0
cpu0_DTLB PREFETCH  REQUESTED:          0  ISSUED:          0  CROSSED:          0  USEFUL:          0  USELESS:          0
cpu0_DTLB AVERAGE iMISS LATENCY: 0 cycles
cpu0_DTLB AVERAGE dMISS LATENCY: 24.2257 cycles
cpu0_DTLB AVERAGE itMISS LATENCY: 0 cycles
cpu0_DTLB AVERAGE dtMISS LATENCY: 0 cycles
cpu0_DTLB PAGE CROSSINGS (TLB HIT):         0 
cpu0_DTLB PAGE CROSSINGS (TLB MISS):         0 
cpu0_DTLB AVERAGE MISS LATENCY: 24.2257 cycles
cpu0_STLB TOTAL       ACCESS:    2429569  HIT:    2082347  MISS:     347222  iACCESS:     460828  iHIT:     354233  iMISS:     106595  dACCESS:    1968741  dHIT:    1728114  dMISS:     240627  itACCESS:          0  itHIT:          0  itMISS:          0  dtACCESS:          0  dtHIT:          0  dtMISS:          0
cpu0_STLB LOAD         ACCESS:    2429569  HIT:    2082347  MISS:     347222  iACCESS:     460828  iHIT:     354233  iMISS:     106595  dACCESS:    1968741  dHIT:    1728114  dMISS:     240627  itACCESS:          0  itHIT:          0  itMISS:          0  dtACCESS:          0  dtHIT:          0  dtMISS:          0
cpu0_STLB RFO          ACCESS:          0  HIT:          0  MISS:          0  iACCESS:          0  iHIT:          0  iMISS:          0  dACCESS:          0  dHIT:          0  dMISS:          0  itACCESS:          0  itHIT:          0  itMISS:          0  dtACCESS:          0  dtHIT:          0  dtMISS:          0
cpu0_STLB PREFETCH     ACCESS:          0  HIT:          0  MISS:          0  iACCESS:          0  iHIT:          0  iMISS:          0  dACCESS:          0  dHIT:          0  dMISS:          0  itACCESS:          0  itHIT:          0  itMISS:          0  dtACCESS:          0  dtHIT:          0  dtMISS:          0
cpu0_STLB WRITE        ACCESS:          0  HIT:          0  MISS:          0  iACCESS:          0  iHIT:          0  iMISS:          0  dACCESS:          0  dHIT:          0  dMISS:          0  itACCESS:          0  itHIT:          0  itMISS:          0  dtACCESS:          0  dtHIT:          0  dtMISS:          0
cpu0_STLB TRANSLATION  ACCESS:          0  HIT:          0  MISS:          0  iACCESS:          0  iHIT:          0  iMISS:          0  dACCESS:          0  dHIT:          0  dMISS:          0  itACCESS:          0  itHIT:          0  itMISS:          0  dtACCESS:          0  dtHIT:          0  dtMISS:          0
cpu0_STLB PREFETCH  REQUESTED:          0  ISSUED:          0  CROSSED:          0  USEFUL:          0  USELESS:          0
cpu0_STLB AVERAGE iMISS LATENCY: 49.5454 cycles
cpu0_STLB AVERAGE dMISS LATENCY: 196.43 cycles
cpu0_STLB AVERAGE itMISS LATENCY: 0 cycles
cpu0_STLB AVERAGE dtMISS LATENCY: 0 cycles
cpu0_STLB PAGE CROSSINGS (TLB HIT):         0 
cpu0_STLB PAGE CROSSINGS (TLB MISS):         0 
cpu0_STLB AVERAGE MISS LATENCY: 245.975 cycles
cpu0_L1D TOTAL       ACCESS:   44195885  HIT:   39072482  MISS:    5123403  iACCESS:          0  iHIT:          0  iMISS:          0  dACCESS:   43681721  dHIT:   39038478  dMISS:    4643243  itACCESS:     118547  itHIT:      15783  itMISS:     102764  dtACCESS:     395617  dtHIT:      18221  dtMISS:     377396
cpu0_L1D LOAD         ACCESS:   19919622  HIT:   17842217  MISS:    2077405  iACCESS:          0  iHIT:          0  iMISS:          0  dACCESS:   19919622  dHIT:   17842217  dMISS:    2077405  itACCESS:          0  itHIT:          0  itMISS:          0  dtACCESS:          0  dtHIT:          0  dtMISS:          0
cpu0_L1D RFO          ACCESS:          0  HIT:          0  MISS:          0  iACCESS:          0  iHIT:          0  iMISS:          0  dACCESS:          0  dHIT:          0  dMISS:          0  itACCESS:          0  itHIT:          0  itMISS:          0  dtACCESS:          0  dtHIT:          0  dtMISS:          0
cpu0_L1D PREFETCH     ACCESS:   13600726  HIT:   11570942  MISS:    2029784  iACCESS:          0  iHIT:          0  iMISS:          0  dACCESS:   13600726  dHIT:   11570942  dMISS:    2029784  itACCESS:          0  itHIT:          0  itMISS:          0  dtACCESS:          0  dtHIT:          0  dtMISS:          0
cpu0_L1D WRITE        ACCESS:   10161373  HIT:    9625319  MISS:     536054  iACCESS:          0  iHIT:          0  iMISS:          0  dACCESS:   10161373  dHIT:    9625319  dMISS:     536054  itACCESS:          0  itHIT:          0  itMISS:          0  dtACCESS:          0  dtHIT:          0  dtMISS:          0
cpu0_L1D TRANSLATION  ACCESS:     514164  HIT:      34004  MISS:     480160  iACCESS:          0  iHIT:          0  iMISS:          0  dACCESS:          0  dHIT:          0  dMISS:          0  itACCESS:     118547  itHIT:      15783  itMISS:     102764  dtACCESS:     395617  dtHIT:      18221  dtMISS:     377396
cpu0_L1D PREFETCH  REQUESTED:   19919622  ISSUED:   18225217  CROSSED:          0  USEFUL:     369248  USELESS:     905409
cpu0_L1D AVERAGE iMISS LATENCY: 0 cycles
cpu0_L1D AVERAGE dMISS LATENCY: 51.2594 cycles
cpu0_L1D AVERAGE itMISS LATENCY: 3.16248 cycles
cpu0_L1D AVERAGE dtMISS LATENCY: 12.2851 cycles
cpu0_L1D PAGE CROSSINGS (TLB HIT):         0 
cpu0_L1D PAGE CROSSINGS (TLB MISS):         0 
cpu0_L1D AVERAGE MISS LATENCY: 66.707 cycles
cpu0_L2C TOTAL       ACCESS:    8479108  HIT:    4166005  MISS:    4313103  iACCESS:    3749811  iHIT:    2298447  iMISS:    1451364  dACCESS:    4277871  dHIT:    1810341  dMISS:    2467530  itACCESS:     102683  itHIT:      19446  itMISS:      83237  dtACCESS:     348743  dtHIT:      37771  dtMISS:     310972
cpu0_L2C LOAD         ACCESS:    2034471  HIT:    1013187  MISS:    1021284  iACCESS:     843686  iHIT:     543662  iMISS:     300024  dACCESS:    1190785  dHIT:     469525  dMISS:     721260  itACCESS:          0  itHIT:          0  itMISS:          0  dtACCESS:          0  dtHIT:          0  dtMISS:          0
cpu0_L2C RFO          ACCESS:     208025  HIT:      79735  MISS:     128290  iACCESS:          0  iHIT:          0  iMISS:          0  dACCESS:     208025  dHIT:      79735  dMISS:     128290  itACCESS:          0  itHIT:          0  itMISS:          0  dtACCESS:          0  dtHIT:          0  dtMISS:          0
cpu0_L2C PREFETCH     ACCESS:    5438921  HIT:    2678922  MISS:    2759999  iACCESS:    2906125  iHIT:    1754785  iMISS:    1151340  dACCESS:    2532796  dHIT:     924137  dMISS:    1608659  itACCESS:          0  itHIT:          0  itMISS:          0  dtACCESS:          0  dtHIT:          0  dtMISS:          0
cpu0_L2C WRITE        ACCESS:     346265  HIT:     336944  MISS:       9321  iACCESS:          0  iHIT:          0  iMISS:          0  dACCESS:     346265  dHIT:     336944  dMISS:       9321  itACCESS:          0  itHIT:          0  itMISS:          0  dtACCESS:          0  dtHIT:          0  dtMISS:          0
cpu0_L2C TRANSLATION  ACCESS:     451426  HIT:      57217  MISS:     394209  iACCESS:          0  iHIT:          0  iMISS:          0  dACCESS:          0  dHIT:          0  dMISS:          0  itACCESS:     102683  itHIT:      19446  itMISS:      83237  dtACCESS:     348743  dtHIT:      37771  dtMISS:     310972
cpu0_L2C PREFETCH  REQUESTED:    1504621  ISSUED:    1504619  CROSSED:          0  USEFUL:     359287  USELESS:     315371
cpu0_L2C AVERAGE iMISS LATENCY: 38.7079 cycles
cpu0_L2C AVERAGE dMISS LATENCY: 75.9447 cycles
cpu0_L2C AVERAGE itMISS LATENCY: 3.52239 cycles
cpu0_L2C AVERAGE dtMISS LATENCY: 13.7885 cycles
cpu0_L2C PAGE CROSSINGS (TLB HIT):         0 
cpu0_L2C PAGE CROSSINGS (TLB MISS):         0 
cpu0_L2C AVERAGE MISS LATENCY: 131.964 cycles
LLC TOTAL       ACCESS:    4310198  HIT:    1444472  MISS:    2865726  iACCESS:    1360990  iHIT:     472716  iMISS:     888274  dACCESS:    2554999  dHIT:     930992  dMISS:    1624007  itACCESS:      83237  itHIT:       7490  itMISS:      75747  dtACCESS:     310972  dtHIT:      33274  dtMISS:     277698
LLC LOAD         ACCESS:    1016395  HIT:     360646  MISS:     655749  iACCESS:     298852  iHIT:     109798  iMISS:     189054  dACCESS:     717543  dHIT:     250848  dMISS:     466695  itACCESS:          0  itHIT:          0  itMISS:          0  dtACCESS:          0  dtHIT:          0  dtMISS:          0
LLC RFO          ACCESS:     128286  HIT:      42644  MISS:      85642  iACCESS:          0  iHIT:          0  iMISS:          0  dACCESS:     128286  dHIT:      42644  dMISS:      85642  itACCESS:          0  itHIT:          0  itMISS:          0  dtACCESS:          0  dtHIT:          0  dtMISS:          0
LLC PREFETCH     ACCESS:    2556224  HIT:     796495  MISS:    1759729  iACCESS:    1062138  iHIT:     362918  iMISS:     699220  dACCESS:    1494086  dHIT:     433577  dMISS:    1060509  itACCESS:          0  itHIT:          0  itMISS:          0  dtACCESS:          0  dtHIT:          0  dtMISS:          0
LLC WRITE        ACCESS:     215084  HIT:     203923  MISS:      11161  iACCESS:          0  iHIT:          0  iMISS:          0  dACCESS:     215084  dHIT:     203923  dMISS:      11161  itACCESS:          0  itHIT:          0  itMISS:          0  dtACCESS:          0  dtHIT:          0  dtMISS:          0
LLC TRANSLATION  ACCESS:     394209  HIT:      40764  MISS:     353445  iACCESS:          0  iHIT:          0  iMISS:          0  dACCESS:          0  dHIT:          0  dMISS:          0  itACCESS:      83237  itHIT:       7490  itMISS:      75747  dtACCESS:     310972  dtHIT:      33274  dtMISS:     277698
LLC PREFETCH  REQUESTED:          0  ISSUED:          0  CROSSED:          0  USEFUL:          0  USELESS:          0
LLC AVERAGE iMISS LATENCY: 48.9134 cycles
LLC AVERAGE dMISS LATENCY: 98.7641 cycles
LLC AVERAGE itMISS LATENCY: 4.72583 cycles
LLC AVERAGE dtMISS LATENCY: 18.6074 cycles
LLC PAGE CROSSINGS (TLB HIT):         0 
LLC PAGE CROSSINGS (TLB MISS):         0 
LLC AVERAGE MISS LATENCY: 171.011 cycles

PageTableWalker TOTAL       ACCESS:     172871  
PageTableWalker AVERAGE LATENCY: 6.4003 cycles
PageTableWalker TOTAL LATENCY: 1106426 cycles

DRAM Statistics
Channel 0
 RQ ROW_BUFFER_HIT:     606094
  ROW_BUFFER_MISS:    2239126
 AVG DBUS CONGESTED CYCLE:    3.64849
 WQ ROW_BUFFER_HIT:      62038
  ROW_BUFFER_MISS:      54565  FULL:          0

