last_page:0x200000000000000
VMEM_RES_CAP:0x100000
PAGE_SIZE:4096
LOG2_PAGE_SIZE:12
LOG2_PAGE_TABLE_SIZE:9
page_table_levels:5
WARNING: physical memory size is smaller than virtual memory size
FDiP enabled with aggresivity 16

*** ChampSim Multicore Out-of-Order Simulator ***

Warmup Instructions: 50000000
Simulation Instructions: 100000000
Number of CPUs: 1
Small page size: 4096
Large page size: 2097152

CPU 0 Bimodal branch predictor
Basic BTB sets: 1024 ways: 8 indirect buffer size: 4096 RAS size: 64
Instruction page size distrubution: 0
Loading instruction page size distribution from /home/bsc/bsc018186/scratch/itp_asplos25_AE/dump/smt_srv85_ap_srv551_ap_1024i.pdst
Data page size distrubution: 0
Loading data page size distribution from /home/bsc/bsc018186/scratch/itp_asplos25_AE/dump/smt_srv85_ap_srv551_ap_1024i.pdst
cpu0_L2C IP-based stride prefetcher
cpu0_L1D next line prefetcher
cpu0_L1I next line prefetcher
Off-chip DRAM Size: 4 GiB Channels: 1 Width: 64-bit Data Rate: 3200 MT/s
Heartbeat CPU 0 instructions: 10000003 cycles: 2500453 heartbeat IPC: 3.99928 cumulative IPC: 3.99928 (Simulation time: 0 hr 0 min 46 sec) 
Heartbeat CPU 0 instructions: 20000001 cycles: 5000743 heartbeat IPC: 3.99954 cumulative IPC: 3.99941 (Simulation time: 0 hr 1 min 34 sec) 
Heartbeat CPU 0 instructions: 30000002 cycles: 7501183 heartbeat IPC: 3.9993 cumulative IPC: 3.99937 (Simulation time: 0 hr 2 min 23 sec) 
Heartbeat CPU 0 instructions: 40000001 cycles: 10001626 heartbeat IPC: 3.9993 cumulative IPC: 3.99935 (Simulation time: 0 hr 3 min 12 sec) 
Heartbeat CPU 0 instructions: 50000003 cycles: 12502215 heartbeat IPC: 3.99906 cumulative IPC: 3.9993 (Simulation time: 0 hr 4 min 1 sec) 
Warmup finished CPU 0 instructions: 50000003 cycles: 12502216 cumulative IPC: 3.9993 (Simulation time: 0 hr 4 min 1 sec) 

Warmup complete CPU 0 instructions: 50000003 cycles: 12502216 (Simulation time: 0 hr 4 min 1 sec) 

Heartbeat CPU 0 instructions: 60000000 cycles: 40801755 heartbeat IPC: 0.353363 cumulative IPC: 0.353363 (Simulation time: 0 hr 5 min 38 sec) 
Heartbeat CPU 0 instructions: 70000000 cycles: 69803055 heartbeat IPC: 0.344813 cumulative IPC: 0.349035 (Simulation time: 0 hr 7 min 16 sec) 
Heartbeat CPU 0 instructions: 80000003 cycles: 97945430 heartbeat IPC: 0.355337 cumulative IPC: 0.351111 (Simulation time: 0 hr 8 min 55 sec) 
Heartbeat CPU 0 instructions: 90000002 cycles: 126510757 heartbeat IPC: 0.350075 cumulative IPC: 0.350851 (Simulation time: 0 hr 10 min 34 sec) 
Heartbeat CPU 0 instructions: 100000000 cycles: 155447018 heartbeat IPC: 0.345588 cumulative IPC: 0.349786 (Simulation time: 0 hr 12 min 14 sec) 
Heartbeat CPU 0 instructions: 110000000 cycles: 183196453 heartbeat IPC: 0.360368 cumulative IPC: 0.351506 (Simulation time: 0 hr 13 min 52 sec) 
Heartbeat CPU 0 instructions: 120000000 cycles: 207539744 heartbeat IPC: 0.410791 cumulative IPC: 0.358906 (Simulation time: 0 hr 15 min 22 sec) 
Heartbeat CPU 0 instructions: 130000001 cycles: 225152743 heartbeat IPC: 0.567763 cumulative IPC: 0.376205 (Simulation time: 0 hr 16 min 39 sec) 
Heartbeat CPU 0 instructions: 140000004 cycles: 243338503 heartbeat IPC: 0.549881 cumulative IPC: 0.389887 (Simulation time: 0 hr 17 min 54 sec) 
Heartbeat CPU 0 instructions: 150000000 cycles: 273286802 heartbeat IPC: 0.333909 cumulative IPC: 0.383459 (Simulation time: 0 hr 19 min 24 sec) 
Simulation finished CPU 0 instructions: 100000002 cycles: 260784588 cumulative IPC: 0.383459 (Simulation time: 0 hr 19 min 24 sec) 

Simulation complete CPU 0 instructions: 100000002 cycles: 260784588 (Simulation time: 0 hr 19 min 24 sec) 


ChampSim completed all CPUs

Saving instructions large page distribution to /home/bsc/bsc018186/scratch/itp_asplos25_AE/dump/smt_srv85_ap_srv551_ap_1024i.pdst...
Saving data large page distribution to /home/bsc/bsc018186/scratch/itp_asplos25_AE/dump/smt_srv85_ap_srv551_ap_1024i.pdst...
=== Simulation ===
CPU 0 runs /gpfs/projects/bsc18/MN4/bsc18/romol/ChampSim/traces/qualcomm_srv/smt_srv85_ap_srv551_ap_1024i.champsimtrace.xz

Region of Interest Statistics

CPU 0 cumulative IPC: 0.383459 instructions: 100000002 cycles: 260784588
CPU 0 Branch Prediction Accuracy: 77.8805% MPKI: 42.6554 Average ROB Occupancy at Mispredict: 11.4572
Branch type MPKI
BRANCH_DIRECT_JUMP: 1.24167
BRANCH_INDIRECT: 23.0029
BRANCH_CONDITIONAL: 11.689
BRANCH_DIRECT_CALL: 2.35968
BRANCH_INDIRECT_CALL: 1.06193
BRANCH_RETURN: 3.30024

Instructions large pages: 0
Instructions small pages: 10447
Large page distribution for instructions: 0%

Data large pages: 0
Data small pages: 8982
Large page distribution for data: 0%

cpu0_L1I TOTAL       ACCESS:   40101205  HIT:   31899014  MISS:    8202191  iACCESS:   40101205  iHIT:   31899014  iMISS:    8202191  dACCESS:          0  dHIT:          0  dMISS:          0  itACCESS:          0  itHIT:          0  itMISS:          0  dtACCESS:          0  dtHIT:          0  dtMISS:          0
cpu0_L1I LOAD         ACCESS:   11446656  HIT:    9218340  MISS:    2228316  iACCESS:   11446656  iHIT:    9218340  iMISS:    2228316  dACCESS:          0  dHIT:          0  dMISS:          0  itACCESS:          0  itHIT:          0  itMISS:          0  dtACCESS:          0  dtHIT:          0  dtMISS:          0
cpu0_L1I RFO          ACCESS:          0  HIT:          0  MISS:          0  iACCESS:          0  iHIT:          0  iMISS:          0  dACCESS:          0  dHIT:          0  dMISS:          0  itACCESS:          0  itHIT:          0  itMISS:          0  dtACCESS:          0  dtHIT:          0  dtMISS:          0
cpu0_L1I PREFETCH     ACCESS:   28654549  HIT:   22680674  MISS:    5973875  iACCESS:   28654549  iHIT:   22680674  iMISS:    5973875  dACCESS:          0  dHIT:          0  dMISS:          0  itACCESS:          0  itHIT:          0  itMISS:          0  dtACCESS:          0  dtHIT:          0  dtMISS:          0
cpu0_L1I WRITE        ACCESS:          0  HIT:          0  MISS:          0  iACCESS:          0  iHIT:          0  iMISS:          0  dACCESS:          0  dHIT:          0  dMISS:          0  itACCESS:          0  itHIT:          0  itMISS:          0  dtACCESS:          0  dtHIT:          0  dtMISS:          0
cpu0_L1I TRANSLATION  ACCESS:          0  HIT:          0  MISS:          0  iACCESS:          0  iHIT:          0  iMISS:          0  dACCESS:          0  dHIT:          0  dMISS:          0  itACCESS:          0  itHIT:          0  itMISS:          0  dtACCESS:          0  dtHIT:          0  dtMISS:          0
cpu0_L1I PREFETCH  REQUESTED:   31168247  ISSUED:   31166821  CROSSED:          0  USEFUL:    1972831  USELESS:     683576
cpu0_L1I AVERAGE iMISS LATENCY: 24.363 cycles
cpu0_L1I AVERAGE dMISS LATENCY: 0 cycles
cpu0_L1I AVERAGE itMISS LATENCY: 0 cycles
cpu0_L1I AVERAGE dtMISS LATENCY: 0 cycles
cpu0_L1I PAGE CROSSINGS (TLB HIT):         0 
cpu0_L1I PAGE CROSSINGS (TLB MISS):         0 
cpu0_L1I AVERAGE MISS LATENCY: 24.363 cycles
cpu0_ITLB TOTAL       ACCESS:   33546697  HIT:   31564783  MISS:    1981914  iACCESS:   33546697  iHIT:   31564783  iMISS:    1981914  dACCESS:          0  dHIT:          0  dMISS:          0  itACCESS:          0  itHIT:          0  itMISS:          0  dtACCESS:          0  dtHIT:          0  dtMISS:          0
cpu0_ITLB LOAD         ACCESS:   33546697  HIT:   31564783  MISS:    1981914  iACCESS:   33546697  iHIT:   31564783  iMISS:    1981914  dACCESS:          0  dHIT:          0  dMISS:          0  itACCESS:          0  itHIT:          0  itMISS:          0  dtACCESS:          0  dtHIT:          0  dtMISS:          0
cpu0_ITLB RFO          ACCESS:          0  HIT:          0  MISS:          0  iACCESS:          0  iHIT:          0  iMISS:          0  dACCESS:          0  dHIT:          0  dMISS:          0  itACCESS:          0  itHIT:          0  itMISS:          0  dtACCESS:          0  dtHIT:          0  dtMISS:          0
cpu0_ITLB PREFETCH     ACCESS:          0  HIT:          0  MISS:          0  iACCESS:          0  iHIT:          0  iMISS:          0  dACCESS:          0  dHIT:          0  dMISS:          0  itACCESS:          0  itHIT:          0  itMISS:          0  dtACCESS:          0  dtHIT:          0  dtMISS:          0
cpu0_ITLB WRITE        ACCESS:          0  HIT:          0  MISS:          0  iACCESS:          0  iHIT:          0  iMISS:          0  dACCESS:          0  dHIT:          0  dMISS:          0  itACCESS:          0  itHIT:          0  itMISS:          0  dtACCESS:          0  dtHIT:          0  dtMISS:          0
cpu0_ITLB TRANSLATION  ACCESS:          0  HIT:          0  MISS:          0  iACCESS:          0  iHIT:          0  iMISS:          0  dACCESS:          0  dHIT:          0  dMISS:          0  itACCESS:          0  itHIT:          0  itMISS:          0  dtACCESS:          0  dtHIT:          0  dtMISS:          0
cpu0_ITLB PREFETCH  REQUESTED:          0  ISSUED:          0  CROSSED:          0  USEFUL:     347718  USELESS:      71136
cpu0_ITLB AVERAGE iMISS LATENCY: 8.09394 cycles
cpu0_ITLB AVERAGE dMISS LATENCY: 0 cycles
cpu0_ITLB AVERAGE itMISS LATENCY: 0 cycles
cpu0_ITLB AVERAGE dtMISS LATENCY: 0 cycles
cpu0_ITLB PAGE CROSSINGS (TLB HIT):         0 
cpu0_ITLB PAGE CROSSINGS (TLB MISS):         0 
cpu0_ITLB AVERAGE MISS LATENCY: 8.09394 cycles
cpu0_DTLB TOTAL       ACCESS:   30798982  HIT:   24715917  MISS:    6083065  iACCESS:          0  iHIT:          0  iMISS:          0  dACCESS:   30798982  dHIT:   24715917  dMISS:    6083065  itACCESS:          0  itHIT:          0  itMISS:          0  dtACCESS:          0  dtHIT:          0  dtMISS:          0
cpu0_DTLB LOAD         ACCESS:   30798982  HIT:   24715917  MISS:    6083065  iACCESS:          0  iHIT:          0  iMISS:          0  dACCESS:   30798982  dHIT:   24715917  dMISS:    6083065  itACCESS:          0  itHIT:          0  itMISS:          0  dtACCESS:          0  dtHIT:          0  dtMISS:          0
cpu0_DTLB RFO          ACCESS:          0  HIT:          0  MISS:          0  iACCESS:          0  iHIT:          0  iMISS:          0  dACCESS:          0  dHIT:          0  dMISS:          0  itACCESS:          0  itHIT:          0  itMISS:          0  dtACCESS:          0  dtHIT:          0  dtMISS:          0
cpu0_DTLB PREFETCH     ACCESS:          0  HIT:          0  MISS:          0  iACCESS:          0  iHIT:          0  iMISS:          0  dACCESS:          0  dHIT:          0  dMISS:          0  itACCESS:          0  itHIT:          0  itMISS:          0  dtACCESS:          0  dtHIT:          0  dtMISS:          0
cpu0_DTLB WRITE        ACCESS:          0  HIT:          0  MISS:          0  iACCESS:          0  iHIT:          0  iMISS:          0  dACCESS:          0  dHIT:          0  dMISS:          0  itACCESS:          0  itHIT:          0  itMISS:          0  dtACCESS:          0  dtHIT:          0  dtMISS:          0
cpu0_DTLB TRANSLATION  ACCESS:          0  HIT:          0  MISS:          0  iACCESS:          0  iHIT:          0  iMISS:          0  dACCESS:          0  dHIT:          0  dMISS:          0  itACCESS:          0  itHIT:          0  itMISS:          0  dtACCESS:          0  dtHIT:          0  dtMISS:          0
cpu0_DTLB PREFETCH  REQUESTED:          0  ISSUED:          0  CROSSED:          0  USEFUL:          0  USELESS:          0
cpu0_DTLB AVERAGE iMISS LATENCY: 0 cycles
cpu0_DTLB AVERAGE dMISS LATENCY: 10.8527 cycles
cpu0_DTLB AVERAGE itMISS LATENCY: 0 cycles
cpu0_DTLB AVERAGE dtMISS LATENCY: 0 cycles
cpu0_DTLB PAGE CROSSINGS (TLB HIT):         0 
cpu0_DTLB PAGE CROSSINGS (TLB MISS):         0 
cpu0_DTLB AVERAGE MISS LATENCY: 10.8527 cycles
cpu0_STLB TOTAL       ACCESS:    3691559  HIT:    3354290  MISS:     337269  iACCESS:     418868  iHIT:     314872  iMISS:     103996  dACCESS:    3272691  dHIT:    3039418  dMISS:     233273  itACCESS:          0  itHIT:          0  itMISS:          0  dtACCESS:          0  dtHIT:          0  dtMISS:          0
cpu0_STLB LOAD         ACCESS:    3691559  HIT:    3354290  MISS:     337269  iACCESS:     418868  iHIT:     314872  iMISS:     103996  dACCESS:    3272691  dHIT:    3039418  dMISS:     233273  itACCESS:          0  itHIT:          0  itMISS:          0  dtACCESS:          0  dtHIT:          0  dtMISS:          0
cpu0_STLB RFO          ACCESS:          0  HIT:          0  MISS:          0  iACCESS:          0  iHIT:          0  iMISS:          0  dACCESS:          0  dHIT:          0  dMISS:          0  itACCESS:          0  itHIT:          0  itMISS:          0  dtACCESS:          0  dtHIT:          0  dtMISS:          0
cpu0_STLB PREFETCH     ACCESS:          0  HIT:          0  MISS:          0  iACCESS:          0  iHIT:          0  iMISS:          0  dACCESS:          0  dHIT:          0  dMISS:          0  itACCESS:          0  itHIT:          0  itMISS:          0  dtACCESS:          0  dtHIT:          0  dtMISS:          0
cpu0_STLB WRITE        ACCESS:          0  HIT:          0  MISS:          0  iACCESS:          0  iHIT:          0  iMISS:          0  dACCESS:          0  dHIT:          0  dMISS:          0  itACCESS:          0  itHIT:          0  itMISS:          0  dtACCESS:          0  dtHIT:          0  dtMISS:          0
cpu0_STLB TRANSLATION  ACCESS:          0  HIT:          0  MISS:          0  iACCESS:          0  iHIT:          0  iMISS:          0  dACCESS:          0  dHIT:          0  dMISS:          0  itACCESS:          0  itHIT:          0  itMISS:          0  dtACCESS:          0  dtHIT:          0  dtMISS:          0
cpu0_STLB PREFETCH  REQUESTED:          0  ISSUED:          0  CROSSED:          0  USEFUL:          0  USELESS:          0
cpu0_STLB AVERAGE iMISS LATENCY: 37.6308 cycles
cpu0_STLB AVERAGE dMISS LATENCY: 117.306 cycles
cpu0_STLB AVERAGE itMISS LATENCY: 0 cycles
cpu0_STLB AVERAGE dtMISS LATENCY: 0 cycles
cpu0_STLB PAGE CROSSINGS (TLB HIT):         0 
cpu0_STLB PAGE CROSSINGS (TLB MISS):         0 
cpu0_STLB AVERAGE MISS LATENCY: 154.937 cycles
cpu0_L1D TOTAL       ACCESS:   49480979  HIT:   39692301  MISS:    9788678  iACCESS:          0  iHIT:          0  iMISS:          0  dACCESS:   48993446  dHIT:   39663916  dMISS:    9329530  itACCESS:     116252  itHIT:      12630  itMISS:     103622  dtACCESS:     371281  dtHIT:      15755  dtMISS:     355526
cpu0_L1D LOAD         ACCESS:   23583966  HIT:   18419562  MISS:    5164404  iACCESS:          0  iHIT:          0  iMISS:          0  dACCESS:   23583966  dHIT:   18419562  dMISS:    5164404  itACCESS:          0  itHIT:          0  itMISS:          0  dtACCESS:          0  dtHIT:          0  dtMISS:          0
cpu0_L1D RFO          ACCESS:          0  HIT:          0  MISS:          0  iACCESS:          0  iHIT:          0  iMISS:          0  dACCESS:          0  dHIT:          0  dMISS:          0  itACCESS:          0  itHIT:          0  itMISS:          0  dtACCESS:          0  dtHIT:          0  dtMISS:          0
cpu0_L1D PREFETCH     ACCESS:   15626245  HIT:   12046070  MISS:    3580175  iACCESS:          0  iHIT:          0  iMISS:          0  dACCESS:   15626245  dHIT:   12046070  dMISS:    3580175  itACCESS:          0  itHIT:          0  itMISS:          0  dtACCESS:          0  dtHIT:          0  dtMISS:          0
cpu0_L1D WRITE        ACCESS:    9783235  HIT:    9198284  MISS:     584951  iACCESS:          0  iHIT:          0  iMISS:          0  dACCESS:    9783235  dHIT:    9198284  dMISS:     584951  itACCESS:          0  itHIT:          0  itMISS:          0  dtACCESS:          0  dtHIT:          0  dtMISS:          0
cpu0_L1D TRANSLATION  ACCESS:     487533  HIT:      28385  MISS:     459148  iACCESS:          0  iHIT:          0  iMISS:          0  dACCESS:          0  dHIT:          0  dMISS:          0  itACCESS:     116252  itHIT:      12630  itMISS:     103622  dtACCESS:     371281  dtHIT:      15755  dtMISS:     355526
cpu0_L1D PREFETCH  REQUESTED:   23583966  ISSUED:   18977364  CROSSED:          0  USEFUL:     328685  USELESS:    1061602
cpu0_L1D AVERAGE iMISS LATENCY: 0 cycles
cpu0_L1D AVERAGE dMISS LATENCY: 31.112 cycles
cpu0_L1D AVERAGE itMISS LATENCY: 1.19481 cycles
cpu0_L1D AVERAGE dtMISS LATENCY: 3.61681 cycles
cpu0_L1D PAGE CROSSINGS (TLB HIT):         0 
cpu0_L1D PAGE CROSSINGS (TLB MISS):         0 
cpu0_L1D AVERAGE MISS LATENCY: 35.9237 cycles
cpu0_L2C TOTAL       ACCESS:    9782641  HIT:    2073239  MISS:    7709402  iACCESS:    3369826  iHIT:     704056  iMISS:    2665770  dACCESS:    5978983  dHIT:    1199718  dMISS:    4779265  itACCESS:     103328  itHIT:      34404  itMISS:      68924  dtACCESS:     330504  dtHIT:     135061  dtMISS:     195443
cpu0_L2C LOAD         ACCESS:    3614144  HIT:     782624  MISS:    2831520  iACCESS:     744553  iHIT:     102090  iMISS:     642463  dACCESS:    2869591  dHIT:     680534  dMISS:    2189057  itACCESS:          0  itHIT:          0  itMISS:          0  dtACCESS:          0  dtHIT:          0  dtMISS:          0
cpu0_L2C RFO          ACCESS:     225168  HIT:      44670  MISS:     180498  iACCESS:          0  iHIT:          0  iMISS:          0  dACCESS:     225168  dHIT:      44670  dMISS:     180498  itACCESS:          0  itHIT:          0  itMISS:          0  dtACCESS:          0  dtHIT:          0  dtMISS:          0
cpu0_L2C PREFETCH     ACCESS:    5185033  HIT:     974035  MISS:    4210998  iACCESS:    2625273  iHIT:     601966  iMISS:    2023307  dACCESS:    2559760  dHIT:     372069  dMISS:    2187691  itACCESS:          0  itHIT:          0  itMISS:          0  dtACCESS:          0  dtHIT:          0  dtMISS:          0
cpu0_L2C WRITE        ACCESS:     324464  HIT:     102445  MISS:     222019  iACCESS:          0  iHIT:          0  iMISS:          0  dACCESS:     324464  dHIT:     102445  dMISS:     222019  itACCESS:          0  itHIT:          0  itMISS:          0  dtACCESS:          0  dtHIT:          0  dtMISS:          0
cpu0_L2C TRANSLATION  ACCESS:     433832  HIT:     169465  MISS:     264367  iACCESS:          0  iHIT:          0  iMISS:          0  dACCESS:          0  dHIT:          0  dMISS:          0  itACCESS:     103328  itHIT:      34404  itMISS:      68924  dtACCESS:     330504  dtHIT:     135061  dtMISS:     195443
cpu0_L2C PREFETCH  REQUESTED:    1383425  ISSUED:    1383418  CROSSED:          0  USEFUL:     363373  USELESS:     440154
cpu0_L2C AVERAGE iMISS LATENCY: 22.2336 cycles
cpu0_L2C AVERAGE dMISS LATENCY: 44.5538 cycles
cpu0_L2C AVERAGE itMISS LATENCY: 1.38713 cycles
cpu0_L2C AVERAGE dtMISS LATENCY: 4.17927 cycles
cpu0_L2C PAGE CROSSINGS (TLB HIT):         0 
cpu0_L2C PAGE CROSSINGS (TLB MISS):         0 
cpu0_L2C AVERAGE MISS LATENCY: 72.3538 cycles
LLC TOTAL       ACCESS:    7538807  HIT:    5093925  MISS:    2444882  iACCESS:    2584147  iHIT:    1808551  iMISS:     775596  dACCESS:    4690293  dHIT:    3222149  dMISS:    1468144  itACCESS:      68924  itHIT:      16527  itMISS:      52397  dtACCESS:     195443  dtHIT:      46698  dtMISS:     148745
LLC LOAD         ACCESS:    2823860  HIT:    2234397  MISS:     589463  iACCESS:     641243  iHIT:     478787  iMISS:     162456  dACCESS:    2182617  dHIT:    1755610  dMISS:     427007  itACCESS:          0  itHIT:          0  itMISS:          0  dtACCESS:          0  dtHIT:          0  dtMISS:          0
LLC RFO          ACCESS:     180472  HIT:      99466  MISS:      81006  iACCESS:          0  iHIT:          0  iMISS:          0  dACCESS:     180472  dHIT:      99466  dMISS:      81006  itACCESS:          0  itHIT:          0  itMISS:          0  dtACCESS:          0  dtHIT:          0  dtMISS:          0
LLC PREFETCH     ACCESS:    4016427  HIT:    2448494  MISS:    1567933  iACCESS:    1942904  iHIT:    1329764  iMISS:     613140  dACCESS:    2073523  dHIT:    1118730  dMISS:     954793  itACCESS:          0  itHIT:          0  itMISS:          0  dtACCESS:          0  dtHIT:          0  dtMISS:          0
LLC WRITE        ACCESS:     253681  HIT:     248343  MISS:       5338  iACCESS:          0  iHIT:          0  iMISS:          0  dACCESS:     253681  dHIT:     248343  dMISS:       5338  itACCESS:          0  itHIT:          0  itMISS:          0  dtACCESS:          0  dtHIT:          0  dtMISS:          0
LLC TRANSLATION  ACCESS:     264367  HIT:      63225  MISS:     201142  iACCESS:          0  iHIT:          0  iMISS:          0  dACCESS:          0  dHIT:          0  dMISS:          0  itACCESS:      68924  itHIT:      16527  itMISS:      52397  dtACCESS:     195443  dtHIT:      46698  dtMISS:     148745
LLC PREFETCH  REQUESTED:          0  ISSUED:          0  CROSSED:          0  USEFUL:          0  USELESS:          0
LLC AVERAGE iMISS LATENCY: 49.583 cycles
LLC AVERAGE dMISS LATENCY: 106.08 cycles
LLC AVERAGE itMISS LATENCY: 3.81872 cycles
LLC AVERAGE dtMISS LATENCY: 11.6045 cycles
LLC PAGE CROSSINGS (TLB HIT):         0 
LLC PAGE CROSSINGS (TLB MISS):         0 
LLC AVERAGE MISS LATENCY: 171.086 cycles

PageTableWalker TOTAL       ACCESS:     197266  
PageTableWalker AVERAGE LATENCY: 5.89422 cycles
PageTableWalker TOTAL LATENCY: 1162729 cycles

DRAM Statistics
Channel 0
 RQ ROW_BUFFER_HIT:     554519
  ROW_BUFFER_MISS:    1867774
 AVG DBUS CONGESTED CYCLE:    3.65549
 WQ ROW_BUFFER_HIT:      59499
  ROW_BUFFER_MISS:      55950  FULL:          0

