last_page:0x200000000000000
VMEM_RES_CAP:0x100000
PAGE_SIZE:4096
LOG2_PAGE_SIZE:12
LOG2_PAGE_TABLE_SIZE:9
page_table_levels:5
WARNING: physical memory size is smaller than virtual memory size
FDiP enabled with aggresivity 16

*** ChampSim Multicore Out-of-Order Simulator ***

Warmup Instructions: 50000000
Simulation Instructions: 100000000
Number of CPUs: 1
Small page size: 4096
Large page size: 2097152

CPU 0 Bimodal branch predictor
Basic BTB sets: 1024 ways: 8 indirect buffer size: 4096 RAS size: 64
Instruction page size distrubution: 0
Loading instruction page size distribution from /home/bsc/bsc018186/scratch/itp_asplos25_AE/dump/smt_srv12_ap_srv727_ap_1024i.pdst
Data page size distrubution: 0
Loading data page size distribution from /home/bsc/bsc018186/scratch/itp_asplos25_AE/dump/smt_srv12_ap_srv727_ap_1024i.pdst
cpu0_L2C IP-based stride prefetcher
cpu0_L1D next line prefetcher
cpu0_STLB using iTP with max lru@8
cpu0_STLB using iTP with instr@0 and data@2
Init sat counter with 3 bits (max:50).
cpu0_L1I next line prefetcher
Off-chip DRAM Size: 4 GiB Channels: 1 Width: 64-bit Data Rate: 3200 MT/s
Heartbeat CPU 0 instructions: 10000001 cycles: 2500547 heartbeat IPC: 3.99913 cumulative IPC: 3.99913 (Simulation time: 0 hr 0 min 38 sec) 
Heartbeat CPU 0 instructions: 20000003 cycles: 5000740 heartbeat IPC: 3.9997 cumulative IPC: 3.99941 (Simulation time: 0 hr 1 min 18 sec) 
Heartbeat CPU 0 instructions: 30000001 cycles: 7501306 heartbeat IPC: 3.9991 cumulative IPC: 3.99931 (Simulation time: 0 hr 1 min 59 sec) 
Heartbeat CPU 0 instructions: 40000000 cycles: 10001434 heartbeat IPC: 3.9998 cumulative IPC: 3.99943 (Simulation time: 0 hr 2 min 40 sec) 
Heartbeat CPU 0 instructions: 50000002 cycles: 12501516 heartbeat IPC: 3.99987 cumulative IPC: 3.99952 (Simulation time: 0 hr 3 min 23 sec) 
Warmup finished CPU 0 instructions: 50000002 cycles: 12501517 cumulative IPC: 3.99952 (Simulation time: 0 hr 3 min 23 sec) 

Warmup complete CPU 0 instructions: 50000002 cycles: 12501517 (Simulation time: 0 hr 3 min 23 sec) 

Heartbeat CPU 0 instructions: 60000004 cycles: 43033381 heartbeat IPC: 0.327527 cumulative IPC: 0.327527 (Simulation time: 0 hr 4 min 52 sec) 
Heartbeat CPU 0 instructions: 70000001 cycles: 73781342 heartbeat IPC: 0.325225 cumulative IPC: 0.326372 (Simulation time: 0 hr 6 min 24 sec) 
Heartbeat CPU 0 instructions: 80000001 cycles: 105483135 heartbeat IPC: 0.31544 cumulative IPC: 0.322645 (Simulation time: 0 hr 7 min 57 sec) 
Heartbeat CPU 0 instructions: 90000003 cycles: 132963141 heartbeat IPC: 0.363902 cumulative IPC: 0.332056 (Simulation time: 0 hr 9 min 23 sec) 
Heartbeat CPU 0 instructions: 100000000 cycles: 164011052 heartbeat IPC: 0.322083 cumulative IPC: 0.330013 (Simulation time: 0 hr 10 min 53 sec) 
Heartbeat CPU 0 instructions: 110000000 cycles: 195896444 heartbeat IPC: 0.313624 cumulative IPC: 0.327163 (Simulation time: 0 hr 12 min 24 sec) 
Heartbeat CPU 0 instructions: 120000002 cycles: 226130488 heartbeat IPC: 0.330754 cumulative IPC: 0.327671 (Simulation time: 0 hr 13 min 50 sec) 
Heartbeat CPU 0 instructions: 130000000 cycles: 257293234 heartbeat IPC: 0.320896 cumulative IPC: 0.326809 (Simulation time: 0 hr 15 min 16 sec) 
Heartbeat CPU 0 instructions: 140000000 cycles: 289062934 heartbeat IPC: 0.314766 cumulative IPC: 0.325425 (Simulation time: 0 hr 16 min 42 sec) 
Heartbeat CPU 0 instructions: 150000002 cycles: 320319581 heartbeat IPC: 0.319933 cumulative IPC: 0.324868 (Simulation time: 0 hr 18 min 7 sec) 
Simulation finished CPU 0 instructions: 100000000 cycles: 307818065 cumulative IPC: 0.324868 (Simulation time: 0 hr 18 min 7 sec) 

Simulation complete CPU 0 instructions: 100000000 cycles: 307818065 (Simulation time: 0 hr 18 min 7 sec) 


ChampSim completed all CPUs

Saving instructions large page distribution to /home/bsc/bsc018186/scratch/itp_asplos25_AE/dump/smt_srv12_ap_srv727_ap_1024i.pdst...
Saving data large page distribution to /home/bsc/bsc018186/scratch/itp_asplos25_AE/dump/smt_srv12_ap_srv727_ap_1024i.pdst...
=== Simulation ===
CPU 0 runs /gpfs/projects/bsc18/MN4/bsc18/romol/ChampSim/traces/qualcomm_srv/smt_srv12_ap_srv727_ap_1024i.champsimtrace.xz

Region of Interest Statistics

CPU 0 cumulative IPC: 0.324868 instructions: 100000000 cycles: 307818065
CPU 0 Branch Prediction Accuracy: 74.6726% MPKI: 45.8504 Average ROB Occupancy at Mispredict: 10.6784
Branch type MPKI
BRANCH_DIRECT_JUMP: 1.44036
BRANCH_INDIRECT: 23.3874
BRANCH_CONDITIONAL: 13.5391
BRANCH_DIRECT_CALL: 2.79709
BRANCH_INDIRECT_CALL: 1.12405
BRANCH_RETURN: 3.56237

Instructions large pages: 0
Instructions small pages: 11302
Large page distribution for instructions: 0%

Data large pages: 0
Data small pages: 9440
Large page distribution for data: 0%

cpu0_L1I TOTAL       ACCESS:   39116627  HIT:   30460780  MISS:    8655847  iACCESS:   39116627  iHIT:   30460780  iMISS:    8655847  dACCESS:          0  dHIT:          0  dMISS:          0  itACCESS:          0  itHIT:          0  itMISS:          0  dtACCESS:          0  dtHIT:          0  dtMISS:          0
cpu0_L1I LOAD         ACCESS:   11614009  HIT:    9267389  MISS:    2346620  iACCESS:   11614009  iHIT:    9267389  iMISS:    2346620  dACCESS:          0  dHIT:          0  dMISS:          0  itACCESS:          0  itHIT:          0  itMISS:          0  dtACCESS:          0  dtHIT:          0  dtMISS:          0
cpu0_L1I RFO          ACCESS:          0  HIT:          0  MISS:          0  iACCESS:          0  iHIT:          0  iMISS:          0  dACCESS:          0  dHIT:          0  dMISS:          0  itACCESS:          0  itHIT:          0  itMISS:          0  dtACCESS:          0  dtHIT:          0  dtMISS:          0
cpu0_L1I PREFETCH     ACCESS:   27502618  HIT:   21193391  MISS:    6309227  iACCESS:   27502618  iHIT:   21193391  iMISS:    6309227  dACCESS:          0  dHIT:          0  dMISS:          0  itACCESS:          0  itHIT:          0  itMISS:          0  dtACCESS:          0  dtHIT:          0  dtMISS:          0
cpu0_L1I WRITE        ACCESS:          0  HIT:          0  MISS:          0  iACCESS:          0  iHIT:          0  iMISS:          0  dACCESS:          0  dHIT:          0  dMISS:          0  itACCESS:          0  itHIT:          0  itMISS:          0  dtACCESS:          0  dtHIT:          0  dtMISS:          0
cpu0_L1I TRANSLATION  ACCESS:          0  HIT:          0  MISS:          0  iACCESS:          0  iHIT:          0  iMISS:          0  dACCESS:          0  dHIT:          0  dMISS:          0  itACCESS:          0  itHIT:          0  itMISS:          0  dtACCESS:          0  dtHIT:          0  dtMISS:          0
cpu0_L1I PREFETCH  REQUESTED:   30231797  ISSUED:   30231668  CROSSED:          0  USEFUL:    2209054  USELESS:     771470
cpu0_L1I AVERAGE iMISS LATENCY: 25.5535 cycles
cpu0_L1I AVERAGE dMISS LATENCY: 0 cycles
cpu0_L1I AVERAGE itMISS LATENCY: 0 cycles
cpu0_L1I AVERAGE dtMISS LATENCY: 0 cycles
cpu0_L1I PAGE CROSSINGS (TLB HIT):         0 
cpu0_L1I PAGE CROSSINGS (TLB MISS):         0 
cpu0_L1I AVERAGE MISS LATENCY: 25.5535 cycles
cpu0_ITLB TOTAL       ACCESS:   33220100  HIT:   30988402  MISS:    2231698  iACCESS:   33220100  iHIT:   30988402  iMISS:    2231698  dACCESS:          0  dHIT:          0  dMISS:          0  itACCESS:          0  itHIT:          0  itMISS:          0  dtACCESS:          0  dtHIT:          0  dtMISS:          0
cpu0_ITLB LOAD         ACCESS:   33220100  HIT:   30988402  MISS:    2231698  iACCESS:   33220100  iHIT:   30988402  iMISS:    2231698  dACCESS:          0  dHIT:          0  dMISS:          0  itACCESS:          0  itHIT:          0  itMISS:          0  dtACCESS:          0  dtHIT:          0  dtMISS:          0
cpu0_ITLB RFO          ACCESS:          0  HIT:          0  MISS:          0  iACCESS:          0  iHIT:          0  iMISS:          0  dACCESS:          0  dHIT:          0  dMISS:          0  itACCESS:          0  itHIT:          0  itMISS:          0  dtACCESS:          0  dtHIT:          0  dtMISS:          0
cpu0_ITLB PREFETCH     ACCESS:          0  HIT:          0  MISS:          0  iACCESS:          0  iHIT:          0  iMISS:          0  dACCESS:          0  dHIT:          0  dMISS:          0  itACCESS:          0  itHIT:          0  itMISS:          0  dtACCESS:          0  dtHIT:          0  dtMISS:          0
cpu0_ITLB WRITE        ACCESS:          0  HIT:          0  MISS:          0  iACCESS:          0  iHIT:          0  iMISS:          0  dACCESS:          0  dHIT:          0  dMISS:          0  itACCESS:          0  itHIT:          0  itMISS:          0  dtACCESS:          0  dtHIT:          0  dtMISS:          0
cpu0_ITLB TRANSLATION  ACCESS:          0  HIT:          0  MISS:          0  iACCESS:          0  iHIT:          0  iMISS:          0  dACCESS:          0  dHIT:          0  dMISS:          0  itACCESS:          0  itHIT:          0  itMISS:          0  dtACCESS:          0  dtHIT:          0  dtMISS:          0
cpu0_ITLB PREFETCH  REQUESTED:          0  ISSUED:          0  CROSSED:          0  USEFUL:     393624  USELESS:      80190
cpu0_ITLB AVERAGE iMISS LATENCY: 7.39347 cycles
cpu0_ITLB AVERAGE dMISS LATENCY: 0 cycles
cpu0_ITLB AVERAGE itMISS LATENCY: 0 cycles
cpu0_ITLB AVERAGE dtMISS LATENCY: 0 cycles
cpu0_ITLB PAGE CROSSINGS (TLB HIT):         0 
cpu0_ITLB PAGE CROSSINGS (TLB MISS):         0 
cpu0_ITLB AVERAGE MISS LATENCY: 7.39347 cycles
cpu0_DTLB TOTAL       ACCESS:   28981447  HIT:   25472518  MISS:    3508929  iACCESS:          0  iHIT:          0  iMISS:          0  dACCESS:   28981447  dHIT:   25472518  dMISS:    3508929  itACCESS:          0  itHIT:          0  itMISS:          0  dtACCESS:          0  dtHIT:          0  dtMISS:          0
cpu0_DTLB LOAD         ACCESS:   28981447  HIT:   25472518  MISS:    3508929  iACCESS:          0  iHIT:          0  iMISS:          0  dACCESS:   28981447  dHIT:   25472518  dMISS:    3508929  itACCESS:          0  itHIT:          0  itMISS:          0  dtACCESS:          0  dtHIT:          0  dtMISS:          0
cpu0_DTLB RFO          ACCESS:          0  HIT:          0  MISS:          0  iACCESS:          0  iHIT:          0  iMISS:          0  dACCESS:          0  dHIT:          0  dMISS:          0  itACCESS:          0  itHIT:          0  itMISS:          0  dtACCESS:          0  dtHIT:          0  dtMISS:          0
cpu0_DTLB PREFETCH     ACCESS:          0  HIT:          0  MISS:          0  iACCESS:          0  iHIT:          0  iMISS:          0  dACCESS:          0  dHIT:          0  dMISS:          0  itACCESS:          0  itHIT:          0  itMISS:          0  dtACCESS:          0  dtHIT:          0  dtMISS:          0
cpu0_DTLB WRITE        ACCESS:          0  HIT:          0  MISS:          0  iACCESS:          0  iHIT:          0  iMISS:          0  dACCESS:          0  dHIT:          0  dMISS:          0  itACCESS:          0  itHIT:          0  itMISS:          0  dtACCESS:          0  dtHIT:          0  dtMISS:          0
cpu0_DTLB TRANSLATION  ACCESS:          0  HIT:          0  MISS:          0  iACCESS:          0  iHIT:          0  iMISS:          0  dACCESS:          0  dHIT:          0  dMISS:          0  itACCESS:          0  itHIT:          0  itMISS:          0  dtACCESS:          0  dtHIT:          0  dtMISS:          0
cpu0_DTLB PREFETCH  REQUESTED:          0  ISSUED:          0  CROSSED:          0  USEFUL:          0  USELESS:          0
cpu0_DTLB AVERAGE iMISS LATENCY: 0 cycles
cpu0_DTLB AVERAGE dMISS LATENCY: 29.0149 cycles
cpu0_DTLB AVERAGE itMISS LATENCY: 0 cycles
cpu0_DTLB AVERAGE dtMISS LATENCY: 0 cycles
cpu0_DTLB PAGE CROSSINGS (TLB HIT):         0 
cpu0_DTLB PAGE CROSSINGS (TLB MISS):         0 
cpu0_DTLB AVERAGE MISS LATENCY: 29.0149 cycles
cpu0_STLB TOTAL       ACCESS:    2538046  HIT:    2157648  MISS:     380398  iACCESS:     473822  iHIT:     407899  iMISS:      65923  dACCESS:    2064224  dHIT:    1749749  dMISS:     314475  itACCESS:          0  itHIT:          0  itMISS:          0  dtACCESS:          0  dtHIT:          0  dtMISS:          0
cpu0_STLB LOAD         ACCESS:    2538046  HIT:    2157648  MISS:     380398  iACCESS:     473822  iHIT:     407899  iMISS:      65923  dACCESS:    2064224  dHIT:    1749749  dMISS:     314475  itACCESS:          0  itHIT:          0  itMISS:          0  dtACCESS:          0  dtHIT:          0  dtMISS:          0
cpu0_STLB RFO          ACCESS:          0  HIT:          0  MISS:          0  iACCESS:          0  iHIT:          0  iMISS:          0  dACCESS:          0  dHIT:          0  dMISS:          0  itACCESS:          0  itHIT:          0  itMISS:          0  dtACCESS:          0  dtHIT:          0  dtMISS:          0
cpu0_STLB PREFETCH     ACCESS:          0  HIT:          0  MISS:          0  iACCESS:          0  iHIT:          0  iMISS:          0  dACCESS:          0  dHIT:          0  dMISS:          0  itACCESS:          0  itHIT:          0  itMISS:          0  dtACCESS:          0  dtHIT:          0  dtMISS:          0
cpu0_STLB WRITE        ACCESS:          0  HIT:          0  MISS:          0  iACCESS:          0  iHIT:          0  iMISS:          0  dACCESS:          0  dHIT:          0  dMISS:          0  itACCESS:          0  itHIT:          0  itMISS:          0  dtACCESS:          0  dtHIT:          0  dtMISS:          0
cpu0_STLB TRANSLATION  ACCESS:          0  HIT:          0  MISS:          0  iACCESS:          0  iHIT:          0  iMISS:          0  dACCESS:          0  dHIT:          0  dMISS:          0  itACCESS:          0  itHIT:          0  itMISS:          0  dtACCESS:          0  dtHIT:          0  dtMISS:          0
cpu0_STLB PREFETCH  REQUESTED:          0  ISSUED:          0  CROSSED:          0  USEFUL:          0  USELESS:          0
cpu0_STLB AVERAGE iMISS LATENCY: 33.5526 cycles
cpu0_STLB AVERAGE dMISS LATENCY: 223.803 cycles
cpu0_STLB AVERAGE itMISS LATENCY: 0 cycles
cpu0_STLB AVERAGE dtMISS LATENCY: 0 cycles
cpu0_STLB PAGE CROSSINGS (TLB HIT):         0 
cpu0_STLB PAGE CROSSINGS (TLB MISS):         0 
cpu0_STLB AVERAGE MISS LATENCY: 257.356 cycles
cpu0_L1D TOTAL       ACCESS:   45096211  HIT:   39322619  MISS:    5773592  iACCESS:          0  iHIT:          0  iMISS:          0  dACCESS:   44507057  dHIT:   39293204  dMISS:    5213853  itACCESS:      76901  itHIT:       6319  itMISS:      70582  dtACCESS:     512253  dtHIT:      23096  dtMISS:     489157
cpu0_L1D LOAD         ACCESS:   20359328  HIT:   18030009  MISS:    2329319  iACCESS:          0  iHIT:          0  iMISS:          0  dACCESS:   20359328  dHIT:   18030009  dMISS:    2329319  itACCESS:          0  itHIT:          0  itMISS:          0  dtACCESS:          0  dtHIT:          0  dtMISS:          0
cpu0_L1D RFO          ACCESS:          0  HIT:          0  MISS:          0  iACCESS:          0  iHIT:          0  iMISS:          0  dACCESS:          0  dHIT:          0  dMISS:          0  itACCESS:          0  itHIT:          0  itMISS:          0  dtACCESS:          0  dtHIT:          0  dtMISS:          0
cpu0_L1D PREFETCH     ACCESS:   13977052  HIT:   11678602  MISS:    2298450  iACCESS:          0  iHIT:          0  iMISS:          0  dACCESS:   13977052  dHIT:   11678602  dMISS:    2298450  itACCESS:          0  itHIT:          0  itMISS:          0  dtACCESS:          0  dtHIT:          0  dtMISS:          0
cpu0_L1D WRITE        ACCESS:   10170677  HIT:    9584593  MISS:     586084  iACCESS:          0  iHIT:          0  iMISS:          0  dACCESS:   10170677  dHIT:    9584593  dMISS:     586084  itACCESS:          0  itHIT:          0  itMISS:          0  dtACCESS:          0  dtHIT:          0  dtMISS:          0
cpu0_L1D TRANSLATION  ACCESS:     589154  HIT:      29415  MISS:     559739  iACCESS:          0  iHIT:          0  iMISS:          0  dACCESS:          0  dHIT:          0  dMISS:          0  itACCESS:      76901  itHIT:       6319  itMISS:      70582  dtACCESS:     512253  dtHIT:      23096  dtMISS:     489157
cpu0_L1D PREFETCH  REQUESTED:   20359328  ISSUED:   18552762  CROSSED:          0  USEFUL:     362094  USELESS:     937277
cpu0_L1D AVERAGE iMISS LATENCY: 0 cycles
cpu0_L1D AVERAGE dMISS LATENCY: 50.0773 cycles
cpu0_L1D AVERAGE itMISS LATENCY: 2.07932 cycles
cpu0_L1D AVERAGE dtMISS LATENCY: 13.815 cycles
cpu0_L1D PAGE CROSSINGS (TLB HIT):         0 
cpu0_L1D PAGE CROSSINGS (TLB MISS):         0 
cpu0_L1D AVERAGE MISS LATENCY: 65.9715 cycles
cpu0_L2C TOTAL       ACCESS:    8685528  HIT:    4171263  MISS:    4514265  iACCESS:    3784472  iHIT:    2262190  iMISS:    1522282  dACCESS:    4379392  dHIT:    1842003  dMISS:    2537389  itACCESS:      70188  itHIT:      10159  itMISS:      60029  dtACCESS:     451476  dtHIT:      56911  dtMISS:     394565
cpu0_L2C LOAD         ACCESS:    2056630  HIT:    1004011  MISS:    1052619  iACCESS:     841322  iHIT:     526918  iMISS:     314404  dACCESS:    1215308  dHIT:     477093  dMISS:     738215  itACCESS:          0  itHIT:          0  itMISS:          0  dtACCESS:          0  dtHIT:          0  dtMISS:          0
cpu0_L2C RFO          ACCESS:     215958  HIT:      81479  MISS:     134479  iACCESS:          0  iHIT:          0  iMISS:          0  dACCESS:     215958  dHIT:      81479  dMISS:     134479  itACCESS:          0  itHIT:          0  itMISS:          0  dtACCESS:          0  dtHIT:          0  dtMISS:          0
cpu0_L2C PREFETCH     ACCESS:    5549456  HIT:    2680699  MISS:    2868757  iACCESS:    2943150  iHIT:    1735272  iMISS:    1207878  dACCESS:    2606306  dHIT:     945427  dMISS:    1660879  itACCESS:          0  itHIT:          0  itMISS:          0  dtACCESS:          0  dtHIT:          0  dtMISS:          0
cpu0_L2C WRITE        ACCESS:     341820  HIT:     338004  MISS:       3816  iACCESS:          0  iHIT:          0  iMISS:          0  dACCESS:     341820  dHIT:     338004  dMISS:       3816  itACCESS:          0  itHIT:          0  itMISS:          0  dtACCESS:          0  dtHIT:          0  dtMISS:          0
cpu0_L2C TRANSLATION  ACCESS:     521664  HIT:      67070  MISS:     454594  iACCESS:          0  iHIT:          0  iMISS:          0  dACCESS:          0  dHIT:          0  dMISS:          0  itACCESS:      70188  itHIT:      10159  itMISS:      60029  dtACCESS:     451476  dtHIT:      56911  dtMISS:     394565
cpu0_L2C PREFETCH  REQUESTED:    1542236  ISSUED:    1542235  CROSSED:          0  USEFUL:     362223  USELESS:     331889
cpu0_L2C AVERAGE iMISS LATENCY: 42.0665 cycles
cpu0_L2C AVERAGE dMISS LATENCY: 80.3312 cycles
cpu0_L2C AVERAGE itMISS LATENCY: 2.50567 cycles
cpu0_L2C AVERAGE dtMISS LATENCY: 16.6756 cycles
cpu0_L2C PAGE CROSSINGS (TLB HIT):         0 
cpu0_L2C PAGE CROSSINGS (TLB MISS):         0 
cpu0_L2C AVERAGE MISS LATENCY: 141.579 cycles
LLC TOTAL       ACCESS:    4495988  HIT:    1263343  MISS:    3232645  iACCESS:    1429584  iHIT:     407061  iMISS:    1022523  dACCESS:    2611810  dHIT:     805509  dMISS:    1806301  itACCESS:      60029  itHIT:       3605  itMISS:      56424  dtACCESS:     394565  dtHIT:      47168  dtMISS:     347397
LLC LOAD         ACCESS:    1046026  HIT:     309983  MISS:     736043  iACCESS:     313222  iHIT:      96806  iMISS:     216416  dACCESS:     732804  dHIT:     213177  dMISS:     519627  itACCESS:          0  itHIT:          0  itMISS:          0  dtACCESS:          0  dtHIT:          0  dtMISS:          0
LLC RFO          ACCESS:     134462  HIT:      38776  MISS:      95686  iACCESS:          0  iHIT:          0  iMISS:          0  dACCESS:     134462  dHIT:      38776  dMISS:      95686  itACCESS:          0  itHIT:          0  itMISS:          0  dtACCESS:          0  dtHIT:          0  dtMISS:          0
LLC PREFETCH     ACCESS:    2650688  HIT:     664134  MISS:    1986554  iACCESS:    1116362  iHIT:     310255  iMISS:     806107  dACCESS:    1534326  dHIT:     353879  dMISS:    1180447  itACCESS:          0  itHIT:          0  itMISS:          0  dtACCESS:          0  dtHIT:          0  dtMISS:          0
LLC WRITE        ACCESS:     210218  HIT:     199677  MISS:      10541  iACCESS:          0  iHIT:          0  iMISS:          0  dACCESS:     210218  dHIT:     199677  dMISS:      10541  itACCESS:          0  itHIT:          0  itMISS:          0  dtACCESS:          0  dtHIT:          0  dtMISS:          0
LLC TRANSLATION  ACCESS:     454594  HIT:      50773  MISS:     403821  iACCESS:          0  iHIT:          0  iMISS:          0  dACCESS:          0  dHIT:          0  dMISS:          0  itACCESS:      60029  itHIT:       3605  itMISS:      56424  dtACCESS:     394565  dtHIT:      47168  dtMISS:     347397
LLC PREFETCH  REQUESTED:          0  ISSUED:          0  CROSSED:          0  USEFUL:          0  USELESS:          0
LLC AVERAGE iMISS LATENCY: 50.0285 cycles
LLC AVERAGE dMISS LATENCY: 98.3848 cycles
LLC AVERAGE itMISS LATENCY: 3.13059 cycles
LLC AVERAGE dtMISS LATENCY: 20.8748 cycles
LLC PAGE CROSSINGS (TLB HIT):         0 
LLC PAGE CROSSINGS (TLB MISS):         0 
LLC AVERAGE MISS LATENCY: 172.419 cycles

PageTableWalker TOTAL       ACCESS:     182065  
PageTableWalker AVERAGE LATENCY: 6.82908 cycles
PageTableWalker TOTAL LATENCY: 1243336 cycles

DRAM Statistics
Channel 0
 RQ ROW_BUFFER_HIT:     701089
  ROW_BUFFER_MISS:    2502175
 AVG DBUS CONGESTED CYCLE:    3.65342
 WQ ROW_BUFFER_HIT:      67765
  ROW_BUFFER_MISS:      57526  FULL:          0

