last_page:0x200000000000000
VMEM_RES_CAP:0x100000
PAGE_SIZE:4096
LOG2_PAGE_SIZE:12
LOG2_PAGE_TABLE_SIZE:9
page_table_levels:5
WARNING: physical memory size is smaller than virtual memory size
FDiP enabled with aggresivity 16

*** ChampSim Multicore Out-of-Order Simulator ***

Warmup Instructions: 50000000
Simulation Instructions: 100000000
Number of CPUs: 1
Small page size: 4096
Large page size: 2097152

CPU 0 Bimodal branch predictor
Basic BTB sets: 1024 ways: 8 indirect buffer size: 4096 RAS size: 64
Instruction page size distrubution: 0
Loading instruction page size distribution from /home/bsc/bsc018186/scratch/itp_asplos25_AE/dump/smt_srv12_ap_srv194_ap_1024i.pdst
Data page size distrubution: 0
Loading data page size distribution from /home/bsc/bsc018186/scratch/itp_asplos25_AE/dump/smt_srv12_ap_srv194_ap_1024i.pdst
cpu0_L2C IP-based stride prefetcher
cpu0_L1D next line prefetcher
cpu0_STLB using iTP with max lru@8
cpu0_STLB using iTP with instr@0 and data@2
Init sat counter with 3 bits (max:50).
cpu0_L1I next line prefetcher
Off-chip DRAM Size: 4 GiB Channels: 1 Width: 64-bit Data Rate: 3200 MT/s
Heartbeat CPU 0 instructions: 10000003 cycles: 2500482 heartbeat IPC: 3.99924 cumulative IPC: 3.99924 (Simulation time: 0 hr 0 min 38 sec) 
Heartbeat CPU 0 instructions: 20000002 cycles: 5000592 heartbeat IPC: 3.99983 cumulative IPC: 3.99953 (Simulation time: 0 hr 1 min 19 sec) 
Heartbeat CPU 0 instructions: 30000002 cycles: 7501239 heartbeat IPC: 3.99897 cumulative IPC: 3.99934 (Simulation time: 0 hr 2 min 1 sec) 
Heartbeat CPU 0 instructions: 40000000 cycles: 10001770 heartbeat IPC: 3.99915 cumulative IPC: 3.9993 (Simulation time: 0 hr 2 min 43 sec) 
Heartbeat CPU 0 instructions: 50000000 cycles: 12580711 heartbeat IPC: 3.87757 cumulative IPC: 3.97434 (Simulation time: 0 hr 3 min 25 sec) 
Warmup finished CPU 0 instructions: 50000000 cycles: 12580712 cumulative IPC: 3.97434 (Simulation time: 0 hr 3 min 25 sec) 

Warmup complete CPU 0 instructions: 50000000 cycles: 12580712 (Simulation time: 0 hr 3 min 25 sec) 

Heartbeat CPU 0 instructions: 60000004 cycles: 29994045 heartbeat IPC: 0.574273 cumulative IPC: 0.574273 (Simulation time: 0 hr 4 min 42 sec) 
Heartbeat CPU 0 instructions: 70000002 cycles: 51005374 heartbeat IPC: 0.475934 cumulative IPC: 0.5205 (Simulation time: 0 hr 6 min 4 sec) 
Heartbeat CPU 0 instructions: 80000001 cycles: 81406305 heartbeat IPC: 0.328938 cumulative IPC: 0.435885 (Simulation time: 0 hr 7 min 39 sec) 
Heartbeat CPU 0 instructions: 90000000 cycles: 108547059 heartbeat IPC: 0.36845 cumulative IPC: 0.416813 (Simulation time: 0 hr 9 min 7 sec) 
Heartbeat CPU 0 instructions: 100000000 cycles: 138049739 heartbeat IPC: 0.338953 cumulative IPC: 0.398505 (Simulation time: 0 hr 10 min 38 sec) 
Heartbeat CPU 0 instructions: 110000000 cycles: 167015355 heartbeat IPC: 0.345237 cumulative IPC: 0.388514 (Simulation time: 0 hr 12 min 9 sec) 
Heartbeat CPU 0 instructions: 120000003 cycles: 196702699 heartbeat IPC: 0.336844 cumulative IPC: 0.380183 (Simulation time: 0 hr 13 min 37 sec) 
Heartbeat CPU 0 instructions: 130000001 cycles: 226769320 heartbeat IPC: 0.332595 cumulative IPC: 0.373503 (Simulation time: 0 hr 15 min 3 sec) 
Heartbeat CPU 0 instructions: 140000004 cycles: 257218178 heartbeat IPC: 0.32842 cumulative IPC: 0.367892 (Simulation time: 0 hr 16 min 29 sec) 
Heartbeat CPU 0 instructions: 150000002 cycles: 287272441 heartbeat IPC: 0.332732 cumulative IPC: 0.364045 (Simulation time: 0 hr 17 min 54 sec) 
Simulation finished CPU 0 instructions: 100000002 cycles: 274691730 cumulative IPC: 0.364045 (Simulation time: 0 hr 17 min 54 sec) 

Simulation complete CPU 0 instructions: 100000002 cycles: 274691730 (Simulation time: 0 hr 17 min 54 sec) 


ChampSim completed all CPUs

Saving instructions large page distribution to /home/bsc/bsc018186/scratch/itp_asplos25_AE/dump/smt_srv12_ap_srv194_ap_1024i.pdst...
Saving data large page distribution to /home/bsc/bsc018186/scratch/itp_asplos25_AE/dump/smt_srv12_ap_srv194_ap_1024i.pdst...
=== Simulation ===
CPU 0 runs /gpfs/projects/bsc18/MN4/bsc18/romol/ChampSim/traces/qualcomm_srv/smt_srv12_ap_srv194_ap_1024i.champsimtrace.xz

Region of Interest Statistics

CPU 0 cumulative IPC: 0.364045 instructions: 100000002 cycles: 274691730
CPU 0 Branch Prediction Accuracy: 76.6532% MPKI: 44.6624 Average ROB Occupancy at Mispredict: 10.5311
Branch type MPKI
BRANCH_DIRECT_JUMP: 1.40131
BRANCH_INDIRECT: 23.3294
BRANCH_CONDITIONAL: 12.5869
BRANCH_DIRECT_CALL: 2.66418
BRANCH_INDIRECT_CALL: 1.22556
BRANCH_RETURN: 3.45501

Instructions large pages: 0
Instructions small pages: 12295
Large page distribution for instructions: 0%

Data large pages: 0
Data small pages: 10519
Large page distribution for data: 0%

cpu0_L1I TOTAL       ACCESS:   40115337  HIT:   31360561  MISS:    8754776  iACCESS:   40115337  iHIT:   31360561  iMISS:    8754776  dACCESS:          0  dHIT:          0  dMISS:          0  itACCESS:          0  itHIT:          0  itMISS:          0  dtACCESS:          0  dtHIT:          0  dtMISS:          0
cpu0_L1I LOAD         ACCESS:   11458489  HIT:    9075392  MISS:    2383097  iACCESS:   11458489  iHIT:    9075392  iMISS:    2383097  dACCESS:          0  dHIT:          0  dMISS:          0  itACCESS:          0  itHIT:          0  itMISS:          0  dtACCESS:          0  dtHIT:          0  dtMISS:          0
cpu0_L1I RFO          ACCESS:          0  HIT:          0  MISS:          0  iACCESS:          0  iHIT:          0  iMISS:          0  dACCESS:          0  dHIT:          0  dMISS:          0  itACCESS:          0  itHIT:          0  itMISS:          0  dtACCESS:          0  dtHIT:          0  dtMISS:          0
cpu0_L1I PREFETCH     ACCESS:   28656848  HIT:   22285169  MISS:    6371679  iACCESS:   28656848  iHIT:   22285169  iMISS:    6371679  dACCESS:          0  dHIT:          0  dMISS:          0  itACCESS:          0  itHIT:          0  itMISS:          0  dtACCESS:          0  dtHIT:          0  dtMISS:          0
cpu0_L1I WRITE        ACCESS:          0  HIT:          0  MISS:          0  iACCESS:          0  iHIT:          0  iMISS:          0  dACCESS:          0  dHIT:          0  dMISS:          0  itACCESS:          0  itHIT:          0  itMISS:          0  dtACCESS:          0  dtHIT:          0  dtMISS:          0
cpu0_L1I TRANSLATION  ACCESS:          0  HIT:          0  MISS:          0  iACCESS:          0  iHIT:          0  iMISS:          0  dACCESS:          0  dHIT:          0  dMISS:          0  itACCESS:          0  itHIT:          0  itMISS:          0  dtACCESS:          0  dtHIT:          0  dtMISS:          0
cpu0_L1I PREFETCH  REQUESTED:   31044896  ISSUED:   31043720  CROSSED:          0  USEFUL:    2088454  USELESS:     753127
cpu0_L1I AVERAGE iMISS LATENCY: 24.8917 cycles
cpu0_L1I AVERAGE dMISS LATENCY: 0 cycles
cpu0_L1I AVERAGE itMISS LATENCY: 0 cycles
cpu0_L1I AVERAGE dtMISS LATENCY: 0 cycles
cpu0_L1I PAGE CROSSINGS (TLB HIT):         0 
cpu0_L1I PAGE CROSSINGS (TLB MISS):         0 
cpu0_L1I AVERAGE MISS LATENCY: 24.8917 cycles
cpu0_ITLB TOTAL       ACCESS:   33768505  HIT:   31613883  MISS:    2154622  iACCESS:   33768505  iHIT:   31613883  iMISS:    2154622  dACCESS:          0  dHIT:          0  dMISS:          0  itACCESS:          0  itHIT:          0  itMISS:          0  dtACCESS:          0  dtHIT:          0  dtMISS:          0
cpu0_ITLB LOAD         ACCESS:   33768505  HIT:   31613883  MISS:    2154622  iACCESS:   33768505  iHIT:   31613883  iMISS:    2154622  dACCESS:          0  dHIT:          0  dMISS:          0  itACCESS:          0  itHIT:          0  itMISS:          0  dtACCESS:          0  dtHIT:          0  dtMISS:          0
cpu0_ITLB RFO          ACCESS:          0  HIT:          0  MISS:          0  iACCESS:          0  iHIT:          0  iMISS:          0  dACCESS:          0  dHIT:          0  dMISS:          0  itACCESS:          0  itHIT:          0  itMISS:          0  dtACCESS:          0  dtHIT:          0  dtMISS:          0
cpu0_ITLB PREFETCH     ACCESS:          0  HIT:          0  MISS:          0  iACCESS:          0  iHIT:          0  iMISS:          0  dACCESS:          0  dHIT:          0  dMISS:          0  itACCESS:          0  itHIT:          0  itMISS:          0  dtACCESS:          0  dtHIT:          0  dtMISS:          0
cpu0_ITLB WRITE        ACCESS:          0  HIT:          0  MISS:          0  iACCESS:          0  iHIT:          0  iMISS:          0  dACCESS:          0  dHIT:          0  dMISS:          0  itACCESS:          0  itHIT:          0  itMISS:          0  dtACCESS:          0  dtHIT:          0  dtMISS:          0
cpu0_ITLB TRANSLATION  ACCESS:          0  HIT:          0  MISS:          0  iACCESS:          0  iHIT:          0  iMISS:          0  dACCESS:          0  dHIT:          0  dMISS:          0  itACCESS:          0  itHIT:          0  itMISS:          0  dtACCESS:          0  dtHIT:          0  dtMISS:          0
cpu0_ITLB PREFETCH  REQUESTED:          0  ISSUED:          0  CROSSED:          0  USEFUL:     382310  USELESS:      81856
cpu0_ITLB AVERAGE iMISS LATENCY: 6.11625 cycles
cpu0_ITLB AVERAGE dMISS LATENCY: 0 cycles
cpu0_ITLB AVERAGE itMISS LATENCY: 0 cycles
cpu0_ITLB AVERAGE dtMISS LATENCY: 0 cycles
cpu0_ITLB PAGE CROSSINGS (TLB HIT):         0 
cpu0_ITLB PAGE CROSSINGS (TLB MISS):         0 
cpu0_ITLB AVERAGE MISS LATENCY: 6.11625 cycles
cpu0_DTLB TOTAL       ACCESS:   30433799  HIT:   25320943  MISS:    5112856  iACCESS:          0  iHIT:          0  iMISS:          0  dACCESS:   30433799  dHIT:   25320943  dMISS:    5112856  itACCESS:          0  itHIT:          0  itMISS:          0  dtACCESS:          0  dtHIT:          0  dtMISS:          0
cpu0_DTLB LOAD         ACCESS:   30433799  HIT:   25320943  MISS:    5112856  iACCESS:          0  iHIT:          0  iMISS:          0  dACCESS:   30433799  dHIT:   25320943  dMISS:    5112856  itACCESS:          0  itHIT:          0  itMISS:          0  dtACCESS:          0  dtHIT:          0  dtMISS:          0
cpu0_DTLB RFO          ACCESS:          0  HIT:          0  MISS:          0  iACCESS:          0  iHIT:          0  iMISS:          0  dACCESS:          0  dHIT:          0  dMISS:          0  itACCESS:          0  itHIT:          0  itMISS:          0  dtACCESS:          0  dtHIT:          0  dtMISS:          0
cpu0_DTLB PREFETCH     ACCESS:          0  HIT:          0  MISS:          0  iACCESS:          0  iHIT:          0  iMISS:          0  dACCESS:          0  dHIT:          0  dMISS:          0  itACCESS:          0  itHIT:          0  itMISS:          0  dtACCESS:          0  dtHIT:          0  dtMISS:          0
cpu0_DTLB WRITE        ACCESS:          0  HIT:          0  MISS:          0  iACCESS:          0  iHIT:          0  iMISS:          0  dACCESS:          0  dHIT:          0  dMISS:          0  itACCESS:          0  itHIT:          0  itMISS:          0  dtACCESS:          0  dtHIT:          0  dtMISS:          0
cpu0_DTLB TRANSLATION  ACCESS:          0  HIT:          0  MISS:          0  iACCESS:          0  iHIT:          0  iMISS:          0  dACCESS:          0  dHIT:          0  dMISS:          0  itACCESS:          0  itHIT:          0  itMISS:          0  dtACCESS:          0  dtHIT:          0  dtMISS:          0
cpu0_DTLB PREFETCH  REQUESTED:          0  ISSUED:          0  CROSSED:          0  USEFUL:          0  USELESS:          0
cpu0_DTLB AVERAGE iMISS LATENCY: 0 cycles
cpu0_DTLB AVERAGE dMISS LATENCY: 13.9481 cycles
cpu0_DTLB AVERAGE itMISS LATENCY: 0 cycles
cpu0_DTLB AVERAGE dtMISS LATENCY: 0 cycles
cpu0_DTLB PAGE CROSSINGS (TLB HIT):         0 
cpu0_DTLB PAGE CROSSINGS (TLB MISS):         0 
cpu0_DTLB AVERAGE MISS LATENCY: 13.9481 cycles
cpu0_STLB TOTAL       ACCESS:    3279514  HIT:    2932668  MISS:     346846  iACCESS:     464173  iHIT:     403041  iMISS:      61132  dACCESS:    2815341  dHIT:    2529627  dMISS:     285714  itACCESS:          0  itHIT:          0  itMISS:          0  dtACCESS:          0  dtHIT:          0  dtMISS:          0
cpu0_STLB LOAD         ACCESS:    3279514  HIT:    2932668  MISS:     346846  iACCESS:     464173  iHIT:     403041  iMISS:      61132  dACCESS:    2815341  dHIT:    2529627  dMISS:     285714  itACCESS:          0  itHIT:          0  itMISS:          0  dtACCESS:          0  dtHIT:          0  dtMISS:          0
cpu0_STLB RFO          ACCESS:          0  HIT:          0  MISS:          0  iACCESS:          0  iHIT:          0  iMISS:          0  dACCESS:          0  dHIT:          0  dMISS:          0  itACCESS:          0  itHIT:          0  itMISS:          0  dtACCESS:          0  dtHIT:          0  dtMISS:          0
cpu0_STLB PREFETCH     ACCESS:          0  HIT:          0  MISS:          0  iACCESS:          0  iHIT:          0  iMISS:          0  dACCESS:          0  dHIT:          0  dMISS:          0  itACCESS:          0  itHIT:          0  itMISS:          0  dtACCESS:          0  dtHIT:          0  dtMISS:          0
cpu0_STLB WRITE        ACCESS:          0  HIT:          0  MISS:          0  iACCESS:          0  iHIT:          0  iMISS:          0  dACCESS:          0  dHIT:          0  dMISS:          0  itACCESS:          0  itHIT:          0  itMISS:          0  dtACCESS:          0  dtHIT:          0  dtMISS:          0
cpu0_STLB TRANSLATION  ACCESS:          0  HIT:          0  MISS:          0  iACCESS:          0  iHIT:          0  iMISS:          0  dACCESS:          0  dHIT:          0  dMISS:          0  itACCESS:          0  itHIT:          0  itMISS:          0  dtACCESS:          0  dtHIT:          0  dtMISS:          0
cpu0_STLB PREFETCH  REQUESTED:          0  ISSUED:          0  CROSSED:          0  USEFUL:          0  USELESS:          0
cpu0_STLB AVERAGE iMISS LATENCY: 27.4641 cycles
cpu0_STLB AVERAGE dMISS LATENCY: 139.891 cycles
cpu0_STLB AVERAGE itMISS LATENCY: 0 cycles
cpu0_STLB AVERAGE dtMISS LATENCY: 0 cycles
cpu0_STLB PAGE CROSSINGS (TLB HIT):         0 
cpu0_STLB PAGE CROSSINGS (TLB MISS):         0 
cpu0_STLB AVERAGE MISS LATENCY: 167.355 cycles
cpu0_L1D TOTAL       ACCESS:   48213431  HIT:   39851815  MISS:    8361616  iACCESS:          0  iHIT:          0  iMISS:          0  dACCESS:   47682627  dHIT:   39825104  dMISS:    7857523  itACCESS:      71729  itHIT:       5830  itMISS:      65899  dtACCESS:     459075  dtHIT:      20881  dtMISS:     438194
cpu0_L1D LOAD         ACCESS:   22538777  HIT:   18365791  MISS:    4172986  iACCESS:          0  iHIT:          0  iMISS:          0  dACCESS:   22538777  dHIT:   18365791  dMISS:    4172986  itACCESS:          0  itHIT:          0  itMISS:          0  dtACCESS:          0  dtHIT:          0  dtMISS:          0
cpu0_L1D RFO          ACCESS:          0  HIT:          0  MISS:          0  iACCESS:          0  iHIT:          0  iMISS:          0  dACCESS:          0  dHIT:          0  dMISS:          0  itACCESS:          0  itHIT:          0  itMISS:          0  dtACCESS:          0  dtHIT:          0  dtMISS:          0
cpu0_L1D PREFETCH     ACCESS:   15057849  HIT:   11999065  MISS:    3058784  iACCESS:          0  iHIT:          0  iMISS:          0  dACCESS:   15057849  dHIT:   11999065  dMISS:    3058784  itACCESS:          0  itHIT:          0  itMISS:          0  dtACCESS:          0  dtHIT:          0  dtMISS:          0
cpu0_L1D WRITE        ACCESS:   10086001  HIT:    9460248  MISS:     625753  iACCESS:          0  iHIT:          0  iMISS:          0  dACCESS:   10086001  dHIT:    9460248  dMISS:     625753  itACCESS:          0  itHIT:          0  itMISS:          0  dtACCESS:          0  dtHIT:          0  dtMISS:          0
cpu0_L1D TRANSLATION  ACCESS:     530804  HIT:      26711  MISS:     504093  iACCESS:          0  iHIT:          0  iMISS:          0  dACCESS:          0  dHIT:          0  dMISS:          0  itACCESS:      71729  itHIT:       5830  itMISS:      65899  dtACCESS:     459075  dtHIT:      20881  dtMISS:     438194
cpu0_L1D PREFETCH  REQUESTED:   22538777  ISSUED:   18933424  CROSSED:          0  USEFUL:     336391  USELESS:     986974
cpu0_L1D AVERAGE iMISS LATENCY: 0 cycles
cpu0_L1D AVERAGE dMISS LATENCY: 36.9171 cycles
cpu0_L1D AVERAGE itMISS LATENCY: 1.06488 cycles
cpu0_L1D AVERAGE dtMISS LATENCY: 5.21909 cycles
cpu0_L1D PAGE CROSSINGS (TLB HIT):         0 
cpu0_L1D PAGE CROSSINGS (TLB MISS):         0 
cpu0_L1D AVERAGE MISS LATENCY: 43.2011 cycles
cpu0_L2C TOTAL       ACCESS:    9510759  HIT:    2034849  MISS:    7475910  iACCESS:    3620196  iHIT:     743605  iMISS:    2876591  dACCESS:    5417931  dHIT:    1113601  dMISS:    4304330  itACCESS:      65647  itHIT:      15135  itMISS:      50512  dtACCESS:     406985  dtHIT:     162508  dtMISS:     244477
cpu0_L2C LOAD         ACCESS:    3134859  HIT:     732352  MISS:    2402507  iACCESS:     809812  iHIT:     110262  iMISS:     699550  dACCESS:    2325047  dHIT:     622090  dMISS:    1702957  itACCESS:          0  itHIT:          0  itMISS:          0  dtACCESS:          0  dtHIT:          0  dtMISS:          0
cpu0_L2C RFO          ACCESS:     242130  HIT:      46207  MISS:     195923  iACCESS:          0  iHIT:          0  iMISS:          0  dACCESS:     242130  dHIT:      46207  dMISS:     195923  itACCESS:          0  itHIT:          0  itMISS:          0  dtACCESS:          0  dtHIT:          0  dtMISS:          0
cpu0_L2C PREFETCH     ACCESS:    5331451  HIT:     975332  MISS:    4356119  iACCESS:    2810384  iHIT:     633343  iMISS:    2177041  dACCESS:    2521067  dHIT:     341989  dMISS:    2179078  itACCESS:          0  itHIT:          0  itMISS:          0  dtACCESS:          0  dtHIT:          0  dtMISS:          0
cpu0_L2C WRITE        ACCESS:     329687  HIT:     103315  MISS:     226372  iACCESS:          0  iHIT:          0  iMISS:          0  dACCESS:     329687  dHIT:     103315  dMISS:     226372  itACCESS:          0  itHIT:          0  itMISS:          0  dtACCESS:          0  dtHIT:          0  dtMISS:          0
cpu0_L2C TRANSLATION  ACCESS:     472632  HIT:     177643  MISS:     294989  iACCESS:          0  iHIT:          0  iMISS:          0  dACCESS:          0  dHIT:          0  dMISS:          0  itACCESS:      65647  itHIT:      15135  itMISS:      50512  dtACCESS:     406985  dtHIT:     162508  dtMISS:     244477
cpu0_L2C PREFETCH  REQUESTED:    1407907  ISSUED:    1407898  CROSSED:          0  USEFUL:     370761  USELESS:     464777
cpu0_L2C AVERAGE iMISS LATENCY: 25.0599 cycles
cpu0_L2C AVERAGE dMISS LATENCY: 47.9405 cycles
cpu0_L2C AVERAGE itMISS LATENCY: 1.105 cycles
cpu0_L2C AVERAGE dtMISS LATENCY: 5.3123 cycles
cpu0_L2C PAGE CROSSINGS (TLB HIT):         0 
cpu0_L2C PAGE CROSSINGS (TLB MISS):         0 
cpu0_L2C AVERAGE MISS LATENCY: 79.4176 cycles
LLC TOTAL       ACCESS:    7297006  HIT:    4650840  MISS:    2646166  iACCESS:    2794288  iHIT:    1956662  iMISS:     837626  dACCESS:    4207729  dHIT:    2622075  dMISS:    1585654  itACCESS:      50512  itHIT:       9717  itMISS:      40795  dtACCESS:     244477  dtHIT:      62386  dtMISS:     182091
LLC LOAD         ACCESS:    2395316  HIT:    1755545  MISS:     639771  iACCESS:     698330  iHIT:     524507  iMISS:     173823  dACCESS:    1696986  dHIT:    1231038  dMISS:     465948  itACCESS:          0  itHIT:          0  itMISS:          0  dtACCESS:          0  dtHIT:          0  dtMISS:          0
LLC RFO          ACCESS:     195904  HIT:     102993  MISS:      92911  iACCESS:          0  iHIT:          0  iMISS:          0  dACCESS:     195904  dHIT:     102993  dMISS:      92911  itACCESS:          0  itHIT:          0  itMISS:          0  dtACCESS:          0  dtHIT:          0  dtMISS:          0
LLC PREFETCH     ACCESS:    4160196  HIT:    2476633  MISS:    1683563  iACCESS:    2095958  iHIT:    1432155  iMISS:     663803  dACCESS:    2064238  dHIT:    1044478  dMISS:    1019760  itACCESS:          0  itHIT:          0  itMISS:          0  dtACCESS:          0  dtHIT:          0  dtMISS:          0
LLC WRITE        ACCESS:     250601  HIT:     243566  MISS:       7035  iACCESS:          0  iHIT:          0  iMISS:          0  dACCESS:     250601  dHIT:     243566  dMISS:       7035  itACCESS:          0  itHIT:          0  itMISS:          0  dtACCESS:          0  dtHIT:          0  dtMISS:          0
LLC TRANSLATION  ACCESS:     294989  HIT:      72103  MISS:     222886  iACCESS:          0  iHIT:          0  iMISS:          0  dACCESS:          0  dHIT:          0  dMISS:          0  itACCESS:      50512  itHIT:       9717  itMISS:      40795  dtACCESS:     244477  dtHIT:      62386  dtMISS:     182091
LLC PREFETCH  REQUESTED:          0  ISSUED:          0  CROSSED:          0  USEFUL:          0  USELESS:          0
LLC AVERAGE iMISS LATENCY: 50.2918 cycles
LLC AVERAGE dMISS LATENCY: 107.19 cycles
LLC AVERAGE itMISS LATENCY: 2.74518 cycles
LLC AVERAGE dtMISS LATENCY: 13.1903 cycles
LLC PAGE CROSSINGS (TLB HIT):         0 
LLC PAGE CROSSINGS (TLB MISS):         0 
LLC AVERAGE MISS LATENCY: 173.417 cycles

PageTableWalker TOTAL       ACCESS:     165259  
PageTableWalker AVERAGE LATENCY: 6.2167 cycles
PageTableWalker TOTAL LATENCY: 1027364 cycles

DRAM Statistics
Channel 0
 RQ ROW_BUFFER_HIT:     575374
  ROW_BUFFER_MISS:    2046560
 AVG DBUS CONGESTED CYCLE:    3.65696
 WQ ROW_BUFFER_HIT:      62923
  ROW_BUFFER_MISS:      59657  FULL:          0

