last_page:0x200000000000000
VMEM_RES_CAP:0x100000
PAGE_SIZE:4096
LOG2_PAGE_SIZE:12
LOG2_PAGE_TABLE_SIZE:9
page_table_levels:5
WARNING: physical memory size is smaller than virtual memory size
FDiP enabled with aggresivity 16

*** ChampSim Multicore Out-of-Order Simulator ***

Warmup Instructions: 50000000
Simulation Instructions: 100000000
Number of CPUs: 1
Small page size: 4096
Large page size: 2097152

CPU 0 Bimodal branch predictor
Basic BTB sets: 1024 ways: 8 indirect buffer size: 4096 RAS size: 64
Instruction page size distrubution: 0
Loading instruction page size distribution from /home/bsc/bsc018186/scratch/itp_asplos25_AE/dump/smt_srv12_ap_srv298_ap_1024i.pdst
Data page size distrubution: 0
Loading data page size distribution from /home/bsc/bsc018186/scratch/itp_asplos25_AE/dump/smt_srv12_ap_srv298_ap_1024i.pdst
cpu0_L2C IP-based stride prefetcher
cpu0_L1D next line prefetcher
cpu0_L1I next line prefetcher
Off-chip DRAM Size: 4 GiB Channels: 1 Width: 64-bit Data Rate: 3200 MT/s
Heartbeat CPU 0 instructions: 10000003 cycles: 2500482 heartbeat IPC: 3.99924 cumulative IPC: 3.99924 (Simulation time: 0 hr 0 min 43 sec) 
Heartbeat CPU 0 instructions: 20000001 cycles: 5000615 heartbeat IPC: 3.99979 cumulative IPC: 3.99951 (Simulation time: 0 hr 1 min 28 sec) 
Heartbeat CPU 0 instructions: 30000001 cycles: 7501381 heartbeat IPC: 3.99878 cumulative IPC: 3.99927 (Simulation time: 0 hr 2 min 13 sec) 
Heartbeat CPU 0 instructions: 40000000 cycles: 10001558 heartbeat IPC: 3.99972 cumulative IPC: 3.99938 (Simulation time: 0 hr 2 min 58 sec) 
Heartbeat CPU 0 instructions: 50000001 cycles: 12501974 heartbeat IPC: 3.99934 cumulative IPC: 3.99937 (Simulation time: 0 hr 3 min 40 sec) 
Warmup finished CPU 0 instructions: 50000001 cycles: 12501975 cumulative IPC: 3.99937 (Simulation time: 0 hr 3 min 40 sec) 

Warmup complete CPU 0 instructions: 50000001 cycles: 12501975 (Simulation time: 0 hr 3 min 40 sec) 

Heartbeat CPU 0 instructions: 60000003 cycles: 42175245 heartbeat IPC: 0.337004 cumulative IPC: 0.337004 (Simulation time: 0 hr 5 min 10 sec) 
Heartbeat CPU 0 instructions: 70000001 cycles: 71478160 heartbeat IPC: 0.341263 cumulative IPC: 0.33912 (Simulation time: 0 hr 6 min 38 sec) 
Heartbeat CPU 0 instructions: 80000001 cycles: 100364845 heartbeat IPC: 0.346181 cumulative IPC: 0.341442 (Simulation time: 0 hr 8 min 3 sec) 
Heartbeat CPU 0 instructions: 90000003 cycles: 126283321 heartbeat IPC: 0.385826 cumulative IPC: 0.351552 (Simulation time: 0 hr 9 min 26 sec) 
Heartbeat CPU 0 instructions: 100000000 cycles: 155054563 heartbeat IPC: 0.34757 cumulative IPC: 0.350748 (Simulation time: 0 hr 10 min 54 sec) 
Heartbeat CPU 0 instructions: 110000003 cycles: 184411689 heartbeat IPC: 0.340633 cumulative IPC: 0.349021 (Simulation time: 0 hr 12 min 20 sec) 
Heartbeat CPU 0 instructions: 120000000 cycles: 212484699 heartbeat IPC: 0.356214 cumulative IPC: 0.350031 (Simulation time: 0 hr 13 min 46 sec) 
Heartbeat CPU 0 instructions: 130000003 cycles: 242803851 heartbeat IPC: 0.329825 cumulative IPC: 0.347371 (Simulation time: 0 hr 15 min 15 sec) 
Heartbeat CPU 0 instructions: 140000000 cycles: 272773467 heartbeat IPC: 0.333672 cumulative IPC: 0.345793 (Simulation time: 0 hr 16 min 44 sec) 
Heartbeat CPU 0 instructions: 150000002 cycles: 303028561 heartbeat IPC: 0.330523 cumulative IPC: 0.344203 (Simulation time: 0 hr 18 min 13 sec) 
Simulation finished CPU 0 instructions: 100000001 cycles: 290526587 cumulative IPC: 0.344203 (Simulation time: 0 hr 18 min 13 sec) 

Simulation complete CPU 0 instructions: 100000001 cycles: 290526587 (Simulation time: 0 hr 18 min 13 sec) 


ChampSim completed all CPUs

Saving instructions large page distribution to /home/bsc/bsc018186/scratch/itp_asplos25_AE/dump/smt_srv12_ap_srv298_ap_1024i.pdst...
Saving data large page distribution to /home/bsc/bsc018186/scratch/itp_asplos25_AE/dump/smt_srv12_ap_srv298_ap_1024i.pdst...
=== Simulation ===
CPU 0 runs /gpfs/projects/bsc18/MN4/bsc18/romol/ChampSim/traces/qualcomm_srv/smt_srv12_ap_srv298_ap_1024i.champsimtrace.xz

Region of Interest Statistics

CPU 0 cumulative IPC: 0.344203 instructions: 100000001 cycles: 290526587
CPU 0 Branch Prediction Accuracy: 75.6528% MPKI: 44.0521 Average ROB Occupancy at Mispredict: 11.1564
Branch type MPKI
BRANCH_DIRECT_JUMP: 1.33331
BRANCH_INDIRECT: 22.7364
BRANCH_CONDITIONAL: 12.9124
BRANCH_DIRECT_CALL: 2.56734
BRANCH_INDIRECT_CALL: 1.0555
BRANCH_RETURN: 3.44725

Instructions large pages: 0
Instructions small pages: 14944
Large page distribution for instructions: 0%

Data large pages: 0
Data small pages: 13231
Large page distribution for data: 0%

cpu0_L1I TOTAL       ACCESS:   38969481  HIT:   30329444  MISS:    8640037  iACCESS:   38969481  iHIT:   30329444  iMISS:    8640037  dACCESS:          0  dHIT:          0  dMISS:          0  itACCESS:          0  itHIT:          0  itMISS:          0  dtACCESS:          0  dtHIT:          0  dtMISS:          0
cpu0_L1I LOAD         ACCESS:   11627719  HIT:    9268044  MISS:    2359675  iACCESS:   11627719  iHIT:    9268044  iMISS:    2359675  dACCESS:          0  dHIT:          0  dMISS:          0  itACCESS:          0  itHIT:          0  itMISS:          0  dtACCESS:          0  dtHIT:          0  dtMISS:          0
cpu0_L1I RFO          ACCESS:          0  HIT:          0  MISS:          0  iACCESS:          0  iHIT:          0  iMISS:          0  dACCESS:          0  dHIT:          0  dMISS:          0  itACCESS:          0  itHIT:          0  itMISS:          0  dtACCESS:          0  dtHIT:          0  dtMISS:          0
cpu0_L1I PREFETCH     ACCESS:   27341762  HIT:   21061400  MISS:    6280362  iACCESS:   27341762  iHIT:   21061400  iMISS:    6280362  dACCESS:          0  dHIT:          0  dMISS:          0  itACCESS:          0  itHIT:          0  itMISS:          0  dtACCESS:          0  dtHIT:          0  dtMISS:          0
cpu0_L1I WRITE        ACCESS:          0  HIT:          0  MISS:          0  iACCESS:          0  iHIT:          0  iMISS:          0  dACCESS:          0  dHIT:          0  dMISS:          0  itACCESS:          0  itHIT:          0  itMISS:          0  dtACCESS:          0  dtHIT:          0  dtMISS:          0
cpu0_L1I TRANSLATION  ACCESS:          0  HIT:          0  MISS:          0  iACCESS:          0  iHIT:          0  iMISS:          0  dACCESS:          0  dHIT:          0  dMISS:          0  itACCESS:          0  itHIT:          0  itMISS:          0  dtACCESS:          0  dtHIT:          0  dtMISS:          0
cpu0_L1I PREFETCH  REQUESTED:   30134661  ISSUED:   30134468  CROSSED:          0  USEFUL:    2188193  USELESS:     759003
cpu0_L1I AVERAGE iMISS LATENCY: 23.6975 cycles
cpu0_L1I AVERAGE dMISS LATENCY: 0 cycles
cpu0_L1I AVERAGE itMISS LATENCY: 0 cycles
cpu0_L1I AVERAGE dtMISS LATENCY: 0 cycles
cpu0_L1I PAGE CROSSINGS (TLB HIT):         0 
cpu0_L1I PAGE CROSSINGS (TLB MISS):         0 
cpu0_L1I AVERAGE MISS LATENCY: 23.6975 cycles
cpu0_ITLB TOTAL       ACCESS:   32978962  HIT:   30774056  MISS:    2204906  iACCESS:   32978962  iHIT:   30774056  iMISS:    2204906  dACCESS:          0  dHIT:          0  dMISS:          0  itACCESS:          0  itHIT:          0  itMISS:          0  dtACCESS:          0  dtHIT:          0  dtMISS:          0
cpu0_ITLB LOAD         ACCESS:   32978962  HIT:   30774056  MISS:    2204906  iACCESS:   32978962  iHIT:   30774056  iMISS:    2204906  dACCESS:          0  dHIT:          0  dMISS:          0  itACCESS:          0  itHIT:          0  itMISS:          0  dtACCESS:          0  dtHIT:          0  dtMISS:          0
cpu0_ITLB RFO          ACCESS:          0  HIT:          0  MISS:          0  iACCESS:          0  iHIT:          0  iMISS:          0  dACCESS:          0  dHIT:          0  dMISS:          0  itACCESS:          0  itHIT:          0  itMISS:          0  dtACCESS:          0  dtHIT:          0  dtMISS:          0
cpu0_ITLB PREFETCH     ACCESS:          0  HIT:          0  MISS:          0  iACCESS:          0  iHIT:          0  iMISS:          0  dACCESS:          0  dHIT:          0  dMISS:          0  itACCESS:          0  itHIT:          0  itMISS:          0  dtACCESS:          0  dtHIT:          0  dtMISS:          0
cpu0_ITLB WRITE        ACCESS:          0  HIT:          0  MISS:          0  iACCESS:          0  iHIT:          0  iMISS:          0  dACCESS:          0  dHIT:          0  dMISS:          0  itACCESS:          0  itHIT:          0  itMISS:          0  dtACCESS:          0  dtHIT:          0  dtMISS:          0
cpu0_ITLB TRANSLATION  ACCESS:          0  HIT:          0  MISS:          0  iACCESS:          0  iHIT:          0  iMISS:          0  dACCESS:          0  dHIT:          0  dMISS:          0  itACCESS:          0  itHIT:          0  itMISS:          0  dtACCESS:          0  dtHIT:          0  dtMISS:          0
cpu0_ITLB PREFETCH  REQUESTED:          0  ISSUED:          0  CROSSED:          0  USEFUL:     386854  USELESS:      77789
cpu0_ITLB AVERAGE iMISS LATENCY: 10.0377 cycles
cpu0_ITLB AVERAGE dMISS LATENCY: 0 cycles
cpu0_ITLB AVERAGE itMISS LATENCY: 0 cycles
cpu0_ITLB AVERAGE dtMISS LATENCY: 0 cycles
cpu0_ITLB PAGE CROSSINGS (TLB HIT):         0 
cpu0_ITLB PAGE CROSSINGS (TLB MISS):         0 
cpu0_ITLB AVERAGE MISS LATENCY: 10.0377 cycles
cpu0_DTLB TOTAL       ACCESS:   28885652  HIT:   25272983  MISS:    3612669  iACCESS:          0  iHIT:          0  iMISS:          0  dACCESS:   28885652  dHIT:   25272983  dMISS:    3612669  itACCESS:          0  itHIT:          0  itMISS:          0  dtACCESS:          0  dtHIT:          0  dtMISS:          0
cpu0_DTLB LOAD         ACCESS:   28885652  HIT:   25272983  MISS:    3612669  iACCESS:          0  iHIT:          0  iMISS:          0  dACCESS:   28885652  dHIT:   25272983  dMISS:    3612669  itACCESS:          0  itHIT:          0  itMISS:          0  dtACCESS:          0  dtHIT:          0  dtMISS:          0
cpu0_DTLB RFO          ACCESS:          0  HIT:          0  MISS:          0  iACCESS:          0  iHIT:          0  iMISS:          0  dACCESS:          0  dHIT:          0  dMISS:          0  itACCESS:          0  itHIT:          0  itMISS:          0  dtACCESS:          0  dtHIT:          0  dtMISS:          0
cpu0_DTLB PREFETCH     ACCESS:          0  HIT:          0  MISS:          0  iACCESS:          0  iHIT:          0  iMISS:          0  dACCESS:          0  dHIT:          0  dMISS:          0  itACCESS:          0  itHIT:          0  itMISS:          0  dtACCESS:          0  dtHIT:          0  dtMISS:          0
cpu0_DTLB WRITE        ACCESS:          0  HIT:          0  MISS:          0  iACCESS:          0  iHIT:          0  iMISS:          0  dACCESS:          0  dHIT:          0  dMISS:          0  itACCESS:          0  itHIT:          0  itMISS:          0  dtACCESS:          0  dtHIT:          0  dtMISS:          0
cpu0_DTLB TRANSLATION  ACCESS:          0  HIT:          0  MISS:          0  iACCESS:          0  iHIT:          0  iMISS:          0  dACCESS:          0  dHIT:          0  dMISS:          0  itACCESS:          0  itHIT:          0  itMISS:          0  dtACCESS:          0  dtHIT:          0  dtMISS:          0
cpu0_DTLB PREFETCH  REQUESTED:          0  ISSUED:          0  CROSSED:          0  USEFUL:          0  USELESS:          0
cpu0_DTLB AVERAGE iMISS LATENCY: 0 cycles
cpu0_DTLB AVERAGE dMISS LATENCY: 24.1046 cycles
cpu0_DTLB AVERAGE itMISS LATENCY: 0 cycles
cpu0_DTLB AVERAGE dtMISS LATENCY: 0 cycles
cpu0_DTLB PAGE CROSSINGS (TLB HIT):         0 
cpu0_DTLB PAGE CROSSINGS (TLB MISS):         0 
cpu0_DTLB AVERAGE MISS LATENCY: 24.1046 cycles
cpu0_STLB TOTAL       ACCESS:    2560003  HIT:    2205523  MISS:     354480  iACCESS:     464647  iHIT:     356023  iMISS:     108624  dACCESS:    2095356  dHIT:    1849500  dMISS:     245856  itACCESS:          0  itHIT:          0  itMISS:          0  dtACCESS:          0  dtHIT:          0  dtMISS:          0
cpu0_STLB LOAD         ACCESS:    2560003  HIT:    2205523  MISS:     354480  iACCESS:     464647  iHIT:     356023  iMISS:     108624  dACCESS:    2095356  dHIT:    1849500  dMISS:     245856  itACCESS:          0  itHIT:          0  itMISS:          0  dtACCESS:          0  dtHIT:          0  dtMISS:          0
cpu0_STLB RFO          ACCESS:          0  HIT:          0  MISS:          0  iACCESS:          0  iHIT:          0  iMISS:          0  dACCESS:          0  dHIT:          0  dMISS:          0  itACCESS:          0  itHIT:          0  itMISS:          0  dtACCESS:          0  dtHIT:          0  dtMISS:          0
cpu0_STLB PREFETCH     ACCESS:          0  HIT:          0  MISS:          0  iACCESS:          0  iHIT:          0  iMISS:          0  dACCESS:          0  dHIT:          0  dMISS:          0  itACCESS:          0  itHIT:          0  itMISS:          0  dtACCESS:          0  dtHIT:          0  dtMISS:          0
cpu0_STLB WRITE        ACCESS:          0  HIT:          0  MISS:          0  iACCESS:          0  iHIT:          0  iMISS:          0  dACCESS:          0  dHIT:          0  dMISS:          0  itACCESS:          0  itHIT:          0  itMISS:          0  dtACCESS:          0  dtHIT:          0  dtMISS:          0
cpu0_STLB TRANSLATION  ACCESS:          0  HIT:          0  MISS:          0  iACCESS:          0  iHIT:          0  iMISS:          0  dACCESS:          0  dHIT:          0  dMISS:          0  itACCESS:          0  itHIT:          0  itMISS:          0  dtACCESS:          0  dtHIT:          0  dtMISS:          0
cpu0_STLB PREFETCH  REQUESTED:          0  ISSUED:          0  CROSSED:          0  USEFUL:          0  USELESS:          0
cpu0_STLB AVERAGE iMISS LATENCY: 51.9642 cycles
cpu0_STLB AVERAGE dMISS LATENCY: 198.109 cycles
cpu0_STLB AVERAGE itMISS LATENCY: 0 cycles
cpu0_STLB AVERAGE dtMISS LATENCY: 0 cycles
cpu0_STLB PAGE CROSSINGS (TLB HIT):         0 
cpu0_STLB PAGE CROSSINGS (TLB MISS):         0 
cpu0_STLB AVERAGE MISS LATENCY: 250.074 cycles
cpu0_L1D TOTAL       ACCESS:   44396440  HIT:   39178127  MISS:    5218313  iACCESS:          0  iHIT:          0  iMISS:          0  dACCESS:   43870112  dHIT:   39144103  dMISS:    4726009  itACCESS:     122259  itHIT:      15035  itMISS:     107224  dtACCESS:     404069  dtHIT:      18989  dtMISS:     385080
cpu0_L1D LOAD         ACCESS:   20043563  HIT:   17934062  MISS:    2109501  iACCESS:          0  iHIT:          0  iMISS:          0  dACCESS:   20043563  dHIT:   17934062  dMISS:    2109501  itACCESS:          0  itHIT:          0  itMISS:          0  dtACCESS:          0  dtHIT:          0  dtMISS:          0
cpu0_L1D RFO          ACCESS:          0  HIT:          0  MISS:          0  iACCESS:          0  iHIT:          0  iMISS:          0  dACCESS:          0  dHIT:          0  dMISS:          0  itACCESS:          0  itHIT:          0  itMISS:          0  dtACCESS:          0  dtHIT:          0  dtMISS:          0
cpu0_L1D PREFETCH     ACCESS:   13642144  HIT:   11579715  MISS:    2062429  iACCESS:          0  iHIT:          0  iMISS:          0  dACCESS:   13642144  dHIT:   11579715  dMISS:    2062429  itACCESS:          0  itHIT:          0  itMISS:          0  dtACCESS:          0  dtHIT:          0  dtMISS:          0
cpu0_L1D WRITE        ACCESS:   10184405  HIT:    9630326  MISS:     554079  iACCESS:          0  iHIT:          0  iMISS:          0  dACCESS:   10184405  dHIT:    9630326  dMISS:     554079  itACCESS:          0  itHIT:          0  itMISS:          0  dtACCESS:          0  dtHIT:          0  dtMISS:          0
cpu0_L1D TRANSLATION  ACCESS:     526328  HIT:      34024  MISS:     492304  iACCESS:          0  iHIT:          0  iMISS:          0  dACCESS:          0  dHIT:          0  dMISS:          0  itACCESS:     122259  itHIT:      15035  itMISS:     107224  dtACCESS:     404069  dtHIT:      18989  dtMISS:     385080
cpu0_L1D PREFETCH  REQUESTED:   20043563  ISSUED:   18373297  CROSSED:          0  USEFUL:     359437  USELESS:     926109
cpu0_L1D AVERAGE iMISS LATENCY: 0 cycles
cpu0_L1D AVERAGE dMISS LATENCY: 51.1743 cycles
cpu0_L1D AVERAGE itMISS LATENCY: 3.31857 cycles
cpu0_L1D AVERAGE dtMISS LATENCY: 12.4245 cycles
cpu0_L1D PAGE CROSSINGS (TLB HIT):         0 
cpu0_L1D PAGE CROSSINGS (TLB MISS):         0 
cpu0_L1D AVERAGE MISS LATENCY: 66.9174 cycles
cpu0_L2C TOTAL       ACCESS:    8503512  HIT:    4218988  MISS:    4284524  iACCESS:    3751032  iHIT:    2301983  iMISS:    1449049  dACCESS:    4290844  dHIT:    1860847  dMISS:    2429997  itACCESS:     106602  itHIT:      18637  itMISS:      87965  dtACCESS:     355034  dtHIT:      37521  dtMISS:     317513
cpu0_L2C LOAD         ACCESS:    2040410  HIT:    1030983  MISS:    1009427  iACCESS:     842323  iHIT:     543749  iMISS:     298574  dACCESS:    1198087  dHIT:     487234  dMISS:     710853  itACCESS:          0  itHIT:          0  itMISS:          0  dtACCESS:          0  dtHIT:          0  dtMISS:          0
cpu0_L2C RFO          ACCESS:     208635  HIT:      82593  MISS:     126042  iACCESS:          0  iHIT:          0  iMISS:          0  dACCESS:     208635  dHIT:      82593  dMISS:     126042  itACCESS:          0  itHIT:          0  itMISS:          0  dtACCESS:          0  dtHIT:          0  dtMISS:          0
cpu0_L2C PREFETCH     ACCESS:    5448481  HIT:    2709107  MISS:    2739374  iACCESS:    2908709  iHIT:    1758234  iMISS:    1150475  dACCESS:    2539772  dHIT:     950873  dMISS:    1588899  itACCESS:          0  itHIT:          0  itMISS:          0  dtACCESS:          0  dtHIT:          0  dtMISS:          0
cpu0_L2C WRITE        ACCESS:     344350  HIT:     340147  MISS:       4203  iACCESS:          0  iHIT:          0  iMISS:          0  dACCESS:     344350  dHIT:     340147  dMISS:       4203  itACCESS:          0  itHIT:          0  itMISS:          0  dtACCESS:          0  dtHIT:          0  dtMISS:          0
cpu0_L2C TRANSLATION  ACCESS:     461636  HIT:      56158  MISS:     405478  iACCESS:          0  iHIT:          0  iMISS:          0  dACCESS:          0  dHIT:          0  dMISS:          0  itACCESS:     106602  itHIT:      18637  itMISS:      87965  dtACCESS:     355034  dtHIT:      37521  dtMISS:     317513
cpu0_L2C PREFETCH  REQUESTED:    1492915  ISSUED:    1492915  CROSSED:          0  USEFUL:     354215  USELESS:     317177
cpu0_L2C AVERAGE iMISS LATENCY: 40.3736 cycles
cpu0_L2C AVERAGE dMISS LATENCY: 77.8367 cycles
cpu0_L2C AVERAGE itMISS LATENCY: 3.79665 cycles
cpu0_L2C AVERAGE dtMISS LATENCY: 14.3078 cycles
cpu0_L2C PAGE CROSSINGS (TLB HIT):         0 
cpu0_L2C PAGE CROSSINGS (TLB MISS):         0 
cpu0_L2C AVERAGE MISS LATENCY: 136.315 cycles
LLC TOTAL       ACCESS:    4281858  HIT:    1327287  MISS:    2954571  iACCESS:    1359630  iHIT:     428309  iMISS:     931321  dACCESS:    2516750  dHIT:     859310  dMISS:    1657440  itACCESS:      87965  itHIT:       6536  itMISS:      81429  dtACCESS:     317513  dtHIT:      33132  dtMISS:     284381
LLC LOAD         ACCESS:    1004587  HIT:     332450  MISS:     672137  iACCESS:     297402  iHIT:     100737  iMISS:     196665  dACCESS:     707185  dHIT:     231713  dMISS:     475472  itACCESS:          0  itHIT:          0  itMISS:          0  dtACCESS:          0  dtHIT:          0  dtMISS:          0
LLC RFO          ACCESS:     126031  HIT:      39620  MISS:      86411  iACCESS:          0  iHIT:          0  iMISS:          0  dACCESS:     126031  dHIT:      39620  dMISS:      86411  itACCESS:          0  itHIT:          0  itMISS:          0  dtACCESS:          0  dtHIT:          0  dtMISS:          0
LLC PREFETCH     ACCESS:    2539053  HIT:     719644  MISS:    1819409  iACCESS:    1062228  iHIT:     327572  iMISS:     734656  dACCESS:    1476825  dHIT:     392072  dMISS:    1084753  itACCESS:          0  itHIT:          0  itMISS:          0  dtACCESS:          0  dtHIT:          0  dtMISS:          0
LLC WRITE        ACCESS:     206709  HIT:     195905  MISS:      10804  iACCESS:          0  iHIT:          0  iMISS:          0  dACCESS:     206709  dHIT:     195905  dMISS:      10804  itACCESS:          0  itHIT:          0  itMISS:          0  dtACCESS:          0  dtHIT:          0  dtMISS:          0
LLC TRANSLATION  ACCESS:     405478  HIT:      39668  MISS:     365810  iACCESS:          0  iHIT:          0  iMISS:          0  dACCESS:          0  dHIT:          0  dMISS:          0  itACCESS:      87965  itHIT:       6536  itMISS:      81429  dtACCESS:     317513  dtHIT:      33132  dtMISS:     284381
LLC PREFETCH  REQUESTED:          0  ISSUED:          0  CROSSED:          0  USEFUL:          0  USELESS:          0
LLC AVERAGE iMISS LATENCY: 49.4807 cycles
LLC AVERAGE dMISS LATENCY: 98.0792 cycles
LLC AVERAGE itMISS LATENCY: 4.91525 cycles
LLC AVERAGE dtMISS LATENCY: 18.6239 cycles
LLC PAGE CROSSINGS (TLB HIT):         0 
LLC PAGE CROSSINGS (TLB MISS):         0 
LLC AVERAGE MISS LATENCY: 171.099 cycles

PageTableWalker TOTAL       ACCESS:     174048  
PageTableWalker AVERAGE LATENCY: 6.57585 cycles
PageTableWalker TOTAL LATENCY: 1144513 cycles

DRAM Statistics
Channel 0
 RQ ROW_BUFFER_HIT:     645326
  ROW_BUFFER_MISS:    2288848
 AVG DBUS CONGESTED CYCLE:    3.64739
 WQ ROW_BUFFER_HIT:      63477
  ROW_BUFFER_MISS:      52217  FULL:          0

