last_page:0x200000000000000
VMEM_RES_CAP:0x100000
PAGE_SIZE:4096
LOG2_PAGE_SIZE:12
LOG2_PAGE_TABLE_SIZE:9
page_table_levels:5
WARNING: physical memory size is smaller than virtual memory size
FDiP enabled with aggresivity 16

*** ChampSim Multicore Out-of-Order Simulator ***

Warmup Instructions: 50000000
Simulation Instructions: 100000000
Number of CPUs: 1
Small page size: 4096
Large page size: 2097152

CPU 0 Bimodal branch predictor
Basic BTB sets: 1024 ways: 8 indirect buffer size: 4096 RAS size: 64
Instruction page size distrubution: 0
Loading instruction page size distribution from /home/bsc/bsc018186/scratch/itp_asplos25_AE/dump/smt_srv12_ap_srv298_ap_1024i.pdst
Data page size distrubution: 0
Loading data page size distribution from /home/bsc/bsc018186/scratch/itp_asplos25_AE/dump/smt_srv12_ap_srv298_ap_1024i.pdst
cpu0_L2C IP-based stride prefetcher
cpu0_L1D next line prefetcher
cpu0_STLB using iTP with max lru@8
cpu0_STLB using iTP with instr@0 and data@2
Init sat counter with 3 bits (max:50).
cpu0_L1I next line prefetcher
Off-chip DRAM Size: 4 GiB Channels: 1 Width: 64-bit Data Rate: 3200 MT/s
Heartbeat CPU 0 instructions: 10000001 cycles: 2500322 heartbeat IPC: 3.99949 cumulative IPC: 3.99949 (Simulation time: 0 hr 0 min 36 sec) 
Heartbeat CPU 0 instructions: 20000003 cycles: 5000422 heartbeat IPC: 3.99985 cumulative IPC: 3.99967 (Simulation time: 0 hr 1 min 14 sec) 
Heartbeat CPU 0 instructions: 30000002 cycles: 7500973 heartbeat IPC: 3.99912 cumulative IPC: 3.99949 (Simulation time: 0 hr 1 min 53 sec) 
Heartbeat CPU 0 instructions: 40000003 cycles: 10001029 heartbeat IPC: 3.99992 cumulative IPC: 3.99959 (Simulation time: 0 hr 2 min 31 sec) 
Heartbeat CPU 0 instructions: 50000001 cycles: 12501212 heartbeat IPC: 3.99971 cumulative IPC: 3.99962 (Simulation time: 0 hr 3 min 10 sec) 
Warmup finished CPU 0 instructions: 50000001 cycles: 12501213 cumulative IPC: 3.99962 (Simulation time: 0 hr 3 min 10 sec) 

Warmup complete CPU 0 instructions: 50000001 cycles: 12501213 (Simulation time: 0 hr 3 min 10 sec) 

Heartbeat CPU 0 instructions: 60000003 cycles: 39444816 heartbeat IPC: 0.371146 cumulative IPC: 0.371146 (Simulation time: 0 hr 4 min 27 sec) 
Heartbeat CPU 0 instructions: 70000001 cycles: 66001092 heartbeat IPC: 0.376559 cumulative IPC: 0.373833 (Simulation time: 0 hr 5 min 45 sec) 
Heartbeat CPU 0 instructions: 80000001 cycles: 92784165 heartbeat IPC: 0.373371 cumulative IPC: 0.373679 (Simulation time: 0 hr 7 min 3 sec) 
Heartbeat CPU 0 instructions: 90000000 cycles: 117417120 heartbeat IPC: 0.405961 cumulative IPC: 0.381258 (Simulation time: 0 hr 8 min 17 sec) 
Heartbeat CPU 0 instructions: 100000000 cycles: 143956453 heartbeat IPC: 0.3768 cumulative IPC: 0.380358 (Simulation time: 0 hr 9 min 35 sec) 
Heartbeat CPU 0 instructions: 110000003 cycles: 170856756 heartbeat IPC: 0.371744 cumulative IPC: 0.378895 (Simulation time: 0 hr 10 min 53 sec) 
Heartbeat CPU 0 instructions: 120000000 cycles: 196924897 heartbeat IPC: 0.38361 cumulative IPC: 0.379561 (Simulation time: 0 hr 12 min 10 sec) 
Heartbeat CPU 0 instructions: 130000003 cycles: 224895431 heartbeat IPC: 0.35752 cumulative IPC: 0.376659 (Simulation time: 0 hr 13 min 30 sec) 
Heartbeat CPU 0 instructions: 140000000 cycles: 252358907 heartbeat IPC: 0.36412 cumulative IPC: 0.375223 (Simulation time: 0 hr 14 min 49 sec) 
Heartbeat CPU 0 instructions: 150000002 cycles: 280078475 heartbeat IPC: 0.360757 cumulative IPC: 0.373724 (Simulation time: 0 hr 16 min 9 sec) 
Simulation finished CPU 0 instructions: 100000001 cycles: 267577263 cumulative IPC: 0.373724 (Simulation time: 0 hr 16 min 9 sec) 

Simulation complete CPU 0 instructions: 100000001 cycles: 267577263 (Simulation time: 0 hr 16 min 9 sec) 


ChampSim completed all CPUs

Saving instructions large page distribution to /home/bsc/bsc018186/scratch/itp_asplos25_AE/dump/smt_srv12_ap_srv298_ap_1024i.pdst...
Saving data large page distribution to /home/bsc/bsc018186/scratch/itp_asplos25_AE/dump/smt_srv12_ap_srv298_ap_1024i.pdst...
=== Simulation ===
CPU 0 runs /gpfs/projects/bsc18/MN4/bsc18/romol/ChampSim/traces/qualcomm_srv/smt_srv12_ap_srv298_ap_1024i.champsimtrace.xz

Region of Interest Statistics

CPU 0 cumulative IPC: 0.373724 instructions: 100000001 cycles: 267577263
CPU 0 Branch Prediction Accuracy: 75.6528% MPKI: 44.0521 Average ROB Occupancy at Mispredict: 10.975
Branch type MPKI
BRANCH_DIRECT_JUMP: 1.33331
BRANCH_INDIRECT: 22.7363
BRANCH_CONDITIONAL: 12.9124
BRANCH_DIRECT_CALL: 2.56733
BRANCH_INDIRECT_CALL: 1.0555
BRANCH_RETURN: 3.44725

Instructions large pages: 0
Instructions small pages: 14944
Large page distribution for instructions: 0%

Data large pages: 0
Data small pages: 13231
Large page distribution for data: 0%

cpu0_L1I TOTAL       ACCESS:   39345796  HIT:   30199419  MISS:    9146377  iACCESS:   39345796  iHIT:   30199419  iMISS:    9146377  dACCESS:          0  dHIT:          0  dMISS:          0  itACCESS:          0  itHIT:          0  itMISS:          0  dtACCESS:          0  dtHIT:          0  dtMISS:          0
cpu0_L1I LOAD         ACCESS:   11720202  HIT:    9232457  MISS:    2487745  iACCESS:   11720202  iHIT:    9232457  iMISS:    2487745  dACCESS:          0  dHIT:          0  dMISS:          0  itACCESS:          0  itHIT:          0  itMISS:          0  dtACCESS:          0  dtHIT:          0  dtMISS:          0
cpu0_L1I RFO          ACCESS:          0  HIT:          0  MISS:          0  iACCESS:          0  iHIT:          0  iMISS:          0  dACCESS:          0  dHIT:          0  dMISS:          0  itACCESS:          0  itHIT:          0  itMISS:          0  dtACCESS:          0  dtHIT:          0  dtMISS:          0
cpu0_L1I PREFETCH     ACCESS:   27625594  HIT:   20966962  MISS:    6658632  iACCESS:   27625594  iHIT:   20966962  iMISS:    6658632  dACCESS:          0  dHIT:          0  dMISS:          0  itACCESS:          0  itHIT:          0  itMISS:          0  dtACCESS:          0  dtHIT:          0  dtMISS:          0
cpu0_L1I WRITE        ACCESS:          0  HIT:          0  MISS:          0  iACCESS:          0  iHIT:          0  iMISS:          0  dACCESS:          0  dHIT:          0  dMISS:          0  itACCESS:          0  itHIT:          0  itMISS:          0  dtACCESS:          0  dtHIT:          0  dtMISS:          0
cpu0_L1I TRANSLATION  ACCESS:          0  HIT:          0  MISS:          0  iACCESS:          0  iHIT:          0  iMISS:          0  dACCESS:          0  dHIT:          0  dMISS:          0  itACCESS:          0  itHIT:          0  itMISS:          0  dtACCESS:          0  dtHIT:          0  dtMISS:          0
cpu0_L1I PREFETCH  REQUESTED:   30215056  ISSUED:   30213460  CROSSED:          0  USEFUL:    2194005  USELESS:     756468
cpu0_L1I AVERAGE iMISS LATENCY: 23.5612 cycles
cpu0_L1I AVERAGE dMISS LATENCY: 0 cycles
cpu0_L1I AVERAGE itMISS LATENCY: 0 cycles
cpu0_L1I AVERAGE dtMISS LATENCY: 0 cycles
cpu0_L1I PAGE CROSSINGS (TLB HIT):         0 
cpu0_L1I PAGE CROSSINGS (TLB MISS):         0 
cpu0_L1I AVERAGE MISS LATENCY: 23.5612 cycles
cpu0_ITLB TOTAL       ACCESS:   33078059  HIT:   30885796  MISS:    2192263  iACCESS:   33078059  iHIT:   30885796  iMISS:    2192263  dACCESS:          0  dHIT:          0  dMISS:          0  itACCESS:          0  itHIT:          0  itMISS:          0  dtACCESS:          0  dtHIT:          0  dtMISS:          0
cpu0_ITLB LOAD         ACCESS:   33078059  HIT:   30885796  MISS:    2192263  iACCESS:   33078059  iHIT:   30885796  iMISS:    2192263  dACCESS:          0  dHIT:          0  dMISS:          0  itACCESS:          0  itHIT:          0  itMISS:          0  dtACCESS:          0  dtHIT:          0  dtMISS:          0
cpu0_ITLB RFO          ACCESS:          0  HIT:          0  MISS:          0  iACCESS:          0  iHIT:          0  iMISS:          0  dACCESS:          0  dHIT:          0  dMISS:          0  itACCESS:          0  itHIT:          0  itMISS:          0  dtACCESS:          0  dtHIT:          0  dtMISS:          0
cpu0_ITLB PREFETCH     ACCESS:          0  HIT:          0  MISS:          0  iACCESS:          0  iHIT:          0  iMISS:          0  dACCESS:          0  dHIT:          0  dMISS:          0  itACCESS:          0  itHIT:          0  itMISS:          0  dtACCESS:          0  dtHIT:          0  dtMISS:          0
cpu0_ITLB WRITE        ACCESS:          0  HIT:          0  MISS:          0  iACCESS:          0  iHIT:          0  iMISS:          0  dACCESS:          0  dHIT:          0  dMISS:          0  itACCESS:          0  itHIT:          0  itMISS:          0  dtACCESS:          0  dtHIT:          0  dtMISS:          0
cpu0_ITLB TRANSLATION  ACCESS:          0  HIT:          0  MISS:          0  iACCESS:          0  iHIT:          0  iMISS:          0  dACCESS:          0  dHIT:          0  dMISS:          0  itACCESS:          0  itHIT:          0  itMISS:          0  dtACCESS:          0  dtHIT:          0  dtMISS:          0
cpu0_ITLB PREFETCH  REQUESTED:          0  ISSUED:          0  CROSSED:          0  USEFUL:     386993  USELESS:      77629
cpu0_ITLB AVERAGE iMISS LATENCY: 5.487 cycles
cpu0_ITLB AVERAGE dMISS LATENCY: 0 cycles
cpu0_ITLB AVERAGE itMISS LATENCY: 0 cycles
cpu0_ITLB AVERAGE dtMISS LATENCY: 0 cycles
cpu0_ITLB PAGE CROSSINGS (TLB HIT):         0 
cpu0_ITLB PAGE CROSSINGS (TLB MISS):         0 
cpu0_ITLB AVERAGE MISS LATENCY: 5.487 cycles
cpu0_DTLB TOTAL       ACCESS:   28917693  HIT:   25306686  MISS:    3611007  iACCESS:          0  iHIT:          0  iMISS:          0  dACCESS:   28917693  dHIT:   25306686  dMISS:    3611007  itACCESS:          0  itHIT:          0  itMISS:          0  dtACCESS:          0  dtHIT:          0  dtMISS:          0
cpu0_DTLB LOAD         ACCESS:   28917693  HIT:   25306686  MISS:    3611007  iACCESS:          0  iHIT:          0  iMISS:          0  dACCESS:   28917693  dHIT:   25306686  dMISS:    3611007  itACCESS:          0  itHIT:          0  itMISS:          0  dtACCESS:          0  dtHIT:          0  dtMISS:          0
cpu0_DTLB RFO          ACCESS:          0  HIT:          0  MISS:          0  iACCESS:          0  iHIT:          0  iMISS:          0  dACCESS:          0  dHIT:          0  dMISS:          0  itACCESS:          0  itHIT:          0  itMISS:          0  dtACCESS:          0  dtHIT:          0  dtMISS:          0
cpu0_DTLB PREFETCH     ACCESS:          0  HIT:          0  MISS:          0  iACCESS:          0  iHIT:          0  iMISS:          0  dACCESS:          0  dHIT:          0  dMISS:          0  itACCESS:          0  itHIT:          0  itMISS:          0  dtACCESS:          0  dtHIT:          0  dtMISS:          0
cpu0_DTLB WRITE        ACCESS:          0  HIT:          0  MISS:          0  iACCESS:          0  iHIT:          0  iMISS:          0  dACCESS:          0  dHIT:          0  dMISS:          0  itACCESS:          0  itHIT:          0  itMISS:          0  dtACCESS:          0  dtHIT:          0  dtMISS:          0
cpu0_DTLB TRANSLATION  ACCESS:          0  HIT:          0  MISS:          0  iACCESS:          0  iHIT:          0  iMISS:          0  dACCESS:          0  dHIT:          0  dMISS:          0  itACCESS:          0  itHIT:          0  itMISS:          0  dtACCESS:          0  dtHIT:          0  dtMISS:          0
cpu0_DTLB PREFETCH  REQUESTED:          0  ISSUED:          0  CROSSED:          0  USEFUL:          0  USELESS:          0
cpu0_DTLB AVERAGE iMISS LATENCY: 0 cycles
cpu0_DTLB AVERAGE dMISS LATENCY: 18.2241 cycles
cpu0_DTLB AVERAGE itMISS LATENCY: 0 cycles
cpu0_DTLB AVERAGE dtMISS LATENCY: 0 cycles
cpu0_DTLB PAGE CROSSINGS (TLB HIT):         0 
cpu0_DTLB PAGE CROSSINGS (TLB MISS):         0 
cpu0_DTLB AVERAGE MISS LATENCY: 18.2241 cycles
cpu0_STLB TOTAL       ACCESS:    2560049  HIT:    2204803  MISS:     355246  iACCESS:     464637  iHIT:     409457  iMISS:      55180  dACCESS:    2095412  dHIT:    1795346  dMISS:     300066  itACCESS:          0  itHIT:          0  itMISS:          0  dtACCESS:          0  dtHIT:          0  dtMISS:          0
cpu0_STLB LOAD         ACCESS:    2560049  HIT:    2204803  MISS:     355246  iACCESS:     464637  iHIT:     409457  iMISS:      55180  dACCESS:    2095412  dHIT:    1795346  dMISS:     300066  itACCESS:          0  itHIT:          0  itMISS:          0  dtACCESS:          0  dtHIT:          0  dtMISS:          0
cpu0_STLB RFO          ACCESS:          0  HIT:          0  MISS:          0  iACCESS:          0  iHIT:          0  iMISS:          0  dACCESS:          0  dHIT:          0  dMISS:          0  itACCESS:          0  itHIT:          0  itMISS:          0  dtACCESS:          0  dtHIT:          0  dtMISS:          0
cpu0_STLB PREFETCH     ACCESS:          0  HIT:          0  MISS:          0  iACCESS:          0  iHIT:          0  iMISS:          0  dACCESS:          0  dHIT:          0  dMISS:          0  itACCESS:          0  itHIT:          0  itMISS:          0  dtACCESS:          0  dtHIT:          0  dtMISS:          0
cpu0_STLB WRITE        ACCESS:          0  HIT:          0  MISS:          0  iACCESS:          0  iHIT:          0  iMISS:          0  dACCESS:          0  dHIT:          0  dMISS:          0  itACCESS:          0  itHIT:          0  itMISS:          0  dtACCESS:          0  dtHIT:          0  dtMISS:          0
cpu0_STLB TRANSLATION  ACCESS:          0  HIT:          0  MISS:          0  iACCESS:          0  iHIT:          0  iMISS:          0  dACCESS:          0  dHIT:          0  dMISS:          0  itACCESS:          0  itHIT:          0  itMISS:          0  dtACCESS:          0  dtHIT:          0  dtMISS:          0
cpu0_STLB PREFETCH  REQUESTED:          0  ISSUED:          0  CROSSED:          0  USEFUL:          0  USELESS:          0
cpu0_STLB AVERAGE iMISS LATENCY: 23.5896 cycles
cpu0_STLB AVERAGE dMISS LATENCY: 137.722 cycles
cpu0_STLB AVERAGE itMISS LATENCY: 0 cycles
cpu0_STLB AVERAGE dtMISS LATENCY: 0 cycles
cpu0_STLB PAGE CROSSINGS (TLB HIT):         0 
cpu0_STLB PAGE CROSSINGS (TLB MISS):         0 
cpu0_STLB AVERAGE MISS LATENCY: 161.312 cycles
cpu0_L1D TOTAL       ACCESS:   44506837  HIT:   39183191  MISS:    5323646  iACCESS:          0  iHIT:          0  iMISS:          0  dACCESS:   43954155  dHIT:   39153802  dMISS:    4800353  itACCESS:      65879  itHIT:       5739  itMISS:      60140  dtACCESS:     486803  dtHIT:      23650  dtMISS:     463153
cpu0_L1D LOAD         ACCESS:   20077462  HIT:   17932936  MISS:    2144526  iACCESS:          0  iHIT:          0  iMISS:          0  dACCESS:   20077462  dHIT:   17932936  dMISS:    2144526  itACCESS:          0  itHIT:          0  itMISS:          0  dtACCESS:          0  dtHIT:          0  dtMISS:          0
cpu0_L1D RFO          ACCESS:          0  HIT:          0  MISS:          0  iACCESS:          0  iHIT:          0  iMISS:          0  dACCESS:          0  dHIT:          0  dMISS:          0  itACCESS:          0  itHIT:          0  itMISS:          0  dtACCESS:          0  dtHIT:          0  dtMISS:          0
cpu0_L1D PREFETCH     ACCESS:   13689587  HIT:   11596173  MISS:    2093414  iACCESS:          0  iHIT:          0  iMISS:          0  dACCESS:   13689587  dHIT:   11596173  dMISS:    2093414  itACCESS:          0  itHIT:          0  itMISS:          0  dtACCESS:          0  dtHIT:          0  dtMISS:          0
cpu0_L1D WRITE        ACCESS:   10187106  HIT:    9624693  MISS:     562413  iACCESS:          0  iHIT:          0  iMISS:          0  dACCESS:   10187106  dHIT:    9624693  dMISS:     562413  itACCESS:          0  itHIT:          0  itMISS:          0  dtACCESS:          0  dtHIT:          0  dtMISS:          0
cpu0_L1D TRANSLATION  ACCESS:     552682  HIT:      29389  MISS:     523293  iACCESS:          0  iHIT:          0  iMISS:          0  dACCESS:          0  dHIT:          0  dMISS:          0  itACCESS:      65879  itHIT:       5739  itMISS:      60140  dtACCESS:     486803  dtHIT:      23650  dtMISS:     463153
cpu0_L1D PREFETCH  REQUESTED:   20077462  ISSUED:   18416545  CROSSED:          0  USEFUL:     360534  USELESS:     928407
cpu0_L1D AVERAGE iMISS LATENCY: 0 cycles
cpu0_L1D AVERAGE dMISS LATENCY: 51.0787 cycles
cpu0_L1D AVERAGE itMISS LATENCY: 1.44941 cycles
cpu0_L1D AVERAGE dtMISS LATENCY: 8.06819 cycles
cpu0_L1D PAGE CROSSINGS (TLB HIT):         0 
cpu0_L1D PAGE CROSSINGS (TLB MISS):         0 
cpu0_L1D AVERAGE MISS LATENCY: 60.5963 cycles
cpu0_L2C TOTAL       ACCESS:    8544325  HIT:    1578245  MISS:    6966080  iACCESS:    3748694  iHIT:     818241  iMISS:    2930453  dACCESS:    4303169  dHIT:     558014  dMISS:    3745155  itACCESS:      59476  itHIT:      16181  itMISS:      43295  dtACCESS:     432986  dtHIT:     185809  dtMISS:     247177
cpu0_L2C LOAD         ACCESS:    2035775  HIT:     221264  MISS:    1814511  iACCESS:     835066  iHIT:     118030  iMISS:     717036  dACCESS:    1200709  dHIT:     103234  dMISS:    1097475  itACCESS:          0  itHIT:          0  itMISS:          0  dtACCESS:          0  dtHIT:          0  dtMISS:          0
cpu0_L2C RFO          ACCESS:     209167  HIT:      30162  MISS:     179005  iACCESS:          0  iHIT:          0  iMISS:          0  dACCESS:     209167  dHIT:      30162  dMISS:     179005  itACCESS:          0  itHIT:          0  itMISS:          0  dtACCESS:          0  dtHIT:          0  dtMISS:          0
cpu0_L2C PREFETCH     ACCESS:    5462490  HIT:    1019590  MISS:    4442900  iACCESS:    2913628  iHIT:     700211  iMISS:    2213417  dACCESS:    2548862  dHIT:     319379  dMISS:    2229483  itACCESS:          0  itHIT:          0  itMISS:          0  dtACCESS:          0  dtHIT:          0  dtMISS:          0
cpu0_L2C WRITE        ACCESS:     344431  HIT:     105239  MISS:     239192  iACCESS:          0  iHIT:          0  iMISS:          0  dACCESS:     344431  dHIT:     105239  dMISS:     239192  itACCESS:          0  itHIT:          0  itMISS:          0  dtACCESS:          0  dtHIT:          0  dtMISS:          0
cpu0_L2C TRANSLATION  ACCESS:     492462  HIT:     201990  MISS:     290472  iACCESS:          0  iHIT:          0  iMISS:          0  dACCESS:          0  dHIT:          0  dMISS:          0  itACCESS:      59476  itHIT:      16181  itMISS:      43295  dtACCESS:     432986  dtHIT:     185809  dtMISS:     247177
cpu0_L2C PREFETCH  REQUESTED:    1498798  ISSUED:    1498798  CROSSED:          0  USEFUL:     407970  USELESS:     482214
cpu0_L2C AVERAGE iMISS LATENCY: 26.3146 cycles
cpu0_L2C AVERAGE dMISS LATENCY: 48.1601 cycles
cpu0_L2C AVERAGE itMISS LATENCY: 1.0244 cycles
cpu0_L2C AVERAGE dtMISS LATENCY: 5.56829 cycles
cpu0_L2C PAGE CROSSINGS (TLB HIT):         0 
cpu0_L2C PAGE CROSSINGS (TLB MISS):         0 
cpu0_L2C AVERAGE MISS LATENCY: 81.0674 cycles
LLC TOTAL       ACCESS:    6781749  HIT:    4196539  MISS:    2585210  iACCESS:    2839870  iHIT:    2020927  iMISS:     818943  dACCESS:    3651407  dHIT:    2100761  dMISS:    1550646  itACCESS:      43295  itHIT:       8168  itMISS:      35127  dtACCESS:     247177  dtHIT:      66683  dtMISS:     180494
LLC LOAD         ACCESS:    1809079  HIT:    1193468  MISS:     615611  iACCESS:     715656  iHIT:     545107  iMISS:     170549  dACCESS:    1093423  dHIT:     648361  dMISS:     445062  itACCESS:          0  itHIT:          0  itMISS:          0  dtACCESS:          0  dtHIT:          0  dtMISS:          0
LLC RFO          ACCESS:     178995  HIT:      94770  MISS:      84225  iACCESS:          0  iHIT:          0  iMISS:          0  dACCESS:     178995  dHIT:      94770  dMISS:      84225  itACCESS:          0  itHIT:          0  itMISS:          0  dtACCESS:          0  dtHIT:          0  dtMISS:          0
LLC PREFETCH     ACCESS:    4237115  HIT:    2574993  MISS:    1662122  iACCESS:    2124214  iHIT:    1475820  iMISS:     648394  dACCESS:    2112901  dHIT:    1099173  dMISS:    1013728  itACCESS:          0  itHIT:          0  itMISS:          0  dtACCESS:          0  dtHIT:          0  dtMISS:          0
LLC WRITE        ACCESS:     266088  HIT:     258457  MISS:       7631  iACCESS:          0  iHIT:          0  iMISS:          0  dACCESS:     266088  dHIT:     258457  dMISS:       7631  itACCESS:          0  itHIT:          0  itMISS:          0  dtACCESS:          0  dtHIT:          0  dtMISS:          0
LLC TRANSLATION  ACCESS:     290472  HIT:      74851  MISS:     215621  iACCESS:          0  iHIT:          0  iMISS:          0  dACCESS:          0  dHIT:          0  dMISS:          0  itACCESS:      43295  itHIT:       8168  itMISS:      35127  dtACCESS:     247177  dtHIT:      66683  dtMISS:     180494
LLC PREFETCH  REQUESTED:          0  ISSUED:          0  CROSSED:          0  USEFUL:          0  USELESS:          0
LLC AVERAGE iMISS LATENCY: 49.5831 cycles
LLC AVERAGE dMISS LATENCY: 104.901 cycles
LLC AVERAGE itMISS LATENCY: 2.42995 cycles
LLC AVERAGE dtMISS LATENCY: 13.1234 cycles
LLC PAGE CROSSINGS (TLB HIT):         0 
LLC PAGE CROSSINGS (TLB MISS):         0 
LLC AVERAGE MISS LATENCY: 170.037 cycles

PageTableWalker TOTAL       ACCESS:     170707  
PageTableWalker AVERAGE LATENCY: 6.19176 cycles
PageTableWalker TOTAL LATENCY: 1056976 cycles

DRAM Statistics
Channel 0
 RQ ROW_BUFFER_HIT:     607894
  ROW_BUFFER_MISS:    1959744
 AVG DBUS CONGESTED CYCLE:    3.65259
 WQ ROW_BUFFER_HIT:      61911
  ROW_BUFFER_MISS:      57322  FULL:          0

