last_page:0x200000000000000
VMEM_RES_CAP:0x100000
PAGE_SIZE:4096
LOG2_PAGE_SIZE:12
LOG2_PAGE_TABLE_SIZE:9
page_table_levels:5
WARNING: physical memory size is smaller than virtual memory size
FDiP enabled with aggresivity 16

*** ChampSim Multicore Out-of-Order Simulator ***

Warmup Instructions: 50000000
Simulation Instructions: 100000000
Number of CPUs: 1
Small page size: 4096
Large page size: 2097152

CPU 0 Bimodal branch predictor
Basic BTB sets: 1024 ways: 8 indirect buffer size: 4096 RAS size: 64
Instruction page size distrubution: 0
Loading instruction page size distribution from /home/bsc/bsc018186/scratch/itp_asplos25_AE/dump/smt_srv540_ap_srv73_ap_1024i.pdst
Data page size distrubution: 0
Loading data page size distribution from /home/bsc/bsc018186/scratch/itp_asplos25_AE/dump/smt_srv540_ap_srv73_ap_1024i.pdst
cpu0_L2C IP-based stride prefetcher
cpu0_L2C is using PTP replacement policy:
	TLB_STRESS_THRESHOLD:0
	PTE_EVICTION_RATIO:0
cpu0_L1D next line prefetcher
CHiRPing...
cpu0_L1I next line prefetcher
Off-chip DRAM Size: 4 GiB Channels: 1 Width: 64-bit Data Rate: 3200 MT/s
Heartbeat CPU 0 instructions: 10000003 cycles: 2500206 heartbeat IPC: 3.99968 cumulative IPC: 3.99968 (Simulation time: 0 hr 0 min 36 sec) 
Heartbeat CPU 0 instructions: 20000000 cycles: 5000658 heartbeat IPC: 3.99928 cumulative IPC: 3.99948 (Simulation time: 0 hr 1 min 15 sec) 
Heartbeat CPU 0 instructions: 30000000 cycles: 7501274 heartbeat IPC: 3.99902 cumulative IPC: 3.99933 (Simulation time: 0 hr 1 min 53 sec) 
Heartbeat CPU 0 instructions: 40000000 cycles: 10001538 heartbeat IPC: 3.99958 cumulative IPC: 3.99939 (Simulation time: 0 hr 2 min 32 sec) 
Heartbeat CPU 0 instructions: 50000001 cycles: 12502923 heartbeat IPC: 3.99779 cumulative IPC: 3.99907 (Simulation time: 0 hr 3 min 11 sec) 
Warmup finished CPU 0 instructions: 50000001 cycles: 12502924 cumulative IPC: 3.99907 (Simulation time: 0 hr 3 min 11 sec) 

Warmup complete CPU 0 instructions: 50000001 cycles: 12502924 (Simulation time: 0 hr 3 min 11 sec) 

Heartbeat CPU 0 instructions: 60000001 cycles: 35960962 heartbeat IPC: 0.426294 cumulative IPC: 0.426294 (Simulation time: 0 hr 4 min 23 sec) 
Heartbeat CPU 0 instructions: 70000003 cycles: 57213857 heartbeat IPC: 0.470525 cumulative IPC: 0.447318 (Simulation time: 0 hr 5 min 31 sec) 
Heartbeat CPU 0 instructions: 80000002 cycles: 80491414 heartbeat IPC: 0.429599 cumulative IPC: 0.441252 (Simulation time: 0 hr 6 min 42 sec) 
Heartbeat CPU 0 instructions: 90000000 cycles: 110909149 heartbeat IPC: 0.328756 cumulative IPC: 0.406479 (Simulation time: 0 hr 8 min 3 sec) 
Heartbeat CPU 0 instructions: 100000001 cycles: 142879678 heartbeat IPC: 0.312789 cumulative IPC: 0.383504 (Simulation time: 0 hr 9 min 27 sec) 
Heartbeat CPU 0 instructions: 110000001 cycles: 173140597 heartbeat IPC: 0.33046 cumulative IPC: 0.373512 (Simulation time: 0 hr 10 min 49 sec) 
Heartbeat CPU 0 instructions: 120000001 cycles: 203191251 heartbeat IPC: 0.332772 cumulative IPC: 0.367092 (Simulation time: 0 hr 12 min 11 sec) 
Heartbeat CPU 0 instructions: 130000000 cycles: 219941977 heartbeat IPC: 0.596989 cumulative IPC: 0.385656 (Simulation time: 0 hr 13 min 18 sec) 
Heartbeat CPU 0 instructions: 140000002 cycles: 240724583 heartbeat IPC: 0.481172 cumulative IPC: 0.394354 (Simulation time: 0 hr 14 min 29 sec) 
Heartbeat CPU 0 instructions: 150000001 cycles: 270076605 heartbeat IPC: 0.340692 cumulative IPC: 0.388239 (Simulation time: 0 hr 15 min 50 sec) 
Simulation finished CPU 0 instructions: 100000000 cycles: 257573682 cumulative IPC: 0.388239 (Simulation time: 0 hr 15 min 50 sec) 

Simulation complete CPU 0 instructions: 100000000 cycles: 257573682 (Simulation time: 0 hr 15 min 50 sec) 


ChampSim completed all CPUs

Saving instructions large page distribution to /home/bsc/bsc018186/scratch/itp_asplos25_AE/dump/smt_srv540_ap_srv73_ap_1024i.pdst...
Saving data large page distribution to /home/bsc/bsc018186/scratch/itp_asplos25_AE/dump/smt_srv540_ap_srv73_ap_1024i.pdst...
=== Simulation ===
CPU 0 runs /gpfs/projects/bsc18/MN4/bsc18/romol/ChampSim/traces/qualcomm_srv/smt_srv540_ap_srv73_ap_1024i.champsimtrace.xz

Region of Interest Statistics

CPU 0 cumulative IPC: 0.388239 instructions: 100000000 cycles: 257573682
CPU 0 Branch Prediction Accuracy: 78.132% MPKI: 42.4347 Average ROB Occupancy at Mispredict: 11.0963
Branch type MPKI
BRANCH_DIRECT_JUMP: 1.07928
BRANCH_INDIRECT: 22.652
BRANCH_CONDITIONAL: 12.1235
BRANCH_DIRECT_CALL: 1.99653
BRANCH_INDIRECT_CALL: 1.67129
BRANCH_RETURN: 2.91219

Instructions large pages: 0
Instructions small pages: 11045
Large page distribution for instructions: 0%

Data large pages: 0
Data small pages: 9196
Large page distribution for data: 0%

cpu0_L1I TOTAL       ACCESS:   37986873  HIT:   31018164  MISS:    6968709  iACCESS:   37986873  iHIT:   31018164  iMISS:    6968709  dACCESS:          0  dHIT:          0  dMISS:          0  itACCESS:          0  itHIT:          0  itMISS:          0  dtACCESS:          0  dtHIT:          0  dtMISS:          0
cpu0_L1I LOAD         ACCESS:   10508260  HIT:    8596294  MISS:    1911966  iACCESS:   10508260  iHIT:    8596294  iMISS:    1911966  dACCESS:          0  dHIT:          0  dMISS:          0  itACCESS:          0  itHIT:          0  itMISS:          0  dtACCESS:          0  dtHIT:          0  dtMISS:          0
cpu0_L1I RFO          ACCESS:          0  HIT:          0  MISS:          0  iACCESS:          0  iHIT:          0  iMISS:          0  dACCESS:          0  dHIT:          0  dMISS:          0  itACCESS:          0  itHIT:          0  itMISS:          0  dtACCESS:          0  dtHIT:          0  dtMISS:          0
cpu0_L1I PREFETCH     ACCESS:   27478613  HIT:   22421870  MISS:    5056743  iACCESS:   27478613  iHIT:   22421870  iMISS:    5056743  dACCESS:          0  dHIT:          0  dMISS:          0  itACCESS:          0  itHIT:          0  itMISS:          0  dtACCESS:          0  dtHIT:          0  dtMISS:          0
cpu0_L1I WRITE        ACCESS:          0  HIT:          0  MISS:          0  iACCESS:          0  iHIT:          0  iMISS:          0  dACCESS:          0  dHIT:          0  dMISS:          0  itACCESS:          0  itHIT:          0  itMISS:          0  dtACCESS:          0  dtHIT:          0  dtMISS:          0
cpu0_L1I TRANSLATION  ACCESS:          0  HIT:          0  MISS:          0  iACCESS:          0  iHIT:          0  iMISS:          0  dACCESS:          0  dHIT:          0  dMISS:          0  itACCESS:          0  itHIT:          0  itMISS:          0  dtACCESS:          0  dtHIT:          0  dtMISS:          0
cpu0_L1I PREFETCH  REQUESTED:   29901468  ISSUED:   29901458  CROSSED:          0  USEFUL:    1766147  USELESS:     633244
cpu0_L1I AVERAGE iMISS LATENCY: 24.012 cycles
cpu0_L1I AVERAGE dMISS LATENCY: 0 cycles
cpu0_L1I AVERAGE itMISS LATENCY: 0 cycles
cpu0_L1I AVERAGE dtMISS LATENCY: 0 cycles
cpu0_L1I PAGE CROSSINGS (TLB HIT):         0 
cpu0_L1I PAGE CROSSINGS (TLB MISS):         0 
cpu0_L1I AVERAGE MISS LATENCY: 24.012 cycles
cpu0_ITLB TOTAL       ACCESS:   32147898  HIT:   30321612  MISS:    1826286  iACCESS:   32147898  iHIT:   30321612  iMISS:    1826286  dACCESS:          0  dHIT:          0  dMISS:          0  itACCESS:          0  itHIT:          0  itMISS:          0  dtACCESS:          0  dtHIT:          0  dtMISS:          0
cpu0_ITLB LOAD         ACCESS:   32147898  HIT:   30321612  MISS:    1826286  iACCESS:   32147898  iHIT:   30321612  iMISS:    1826286  dACCESS:          0  dHIT:          0  dMISS:          0  itACCESS:          0  itHIT:          0  itMISS:          0  dtACCESS:          0  dtHIT:          0  dtMISS:          0
cpu0_ITLB RFO          ACCESS:          0  HIT:          0  MISS:          0  iACCESS:          0  iHIT:          0  iMISS:          0  dACCESS:          0  dHIT:          0  dMISS:          0  itACCESS:          0  itHIT:          0  itMISS:          0  dtACCESS:          0  dtHIT:          0  dtMISS:          0
cpu0_ITLB PREFETCH     ACCESS:          0  HIT:          0  MISS:          0  iACCESS:          0  iHIT:          0  iMISS:          0  dACCESS:          0  dHIT:          0  dMISS:          0  itACCESS:          0  itHIT:          0  itMISS:          0  dtACCESS:          0  dtHIT:          0  dtMISS:          0
cpu0_ITLB WRITE        ACCESS:          0  HIT:          0  MISS:          0  iACCESS:          0  iHIT:          0  iMISS:          0  dACCESS:          0  dHIT:          0  dMISS:          0  itACCESS:          0  itHIT:          0  itMISS:          0  dtACCESS:          0  dtHIT:          0  dtMISS:          0
cpu0_ITLB TRANSLATION  ACCESS:          0  HIT:          0  MISS:          0  iACCESS:          0  iHIT:          0  iMISS:          0  dACCESS:          0  dHIT:          0  dMISS:          0  itACCESS:          0  itHIT:          0  itMISS:          0  dtACCESS:          0  dtHIT:          0  dtMISS:          0
cpu0_ITLB PREFETCH  REQUESTED:          0  ISSUED:          0  CROSSED:          0  USEFUL:     320066  USELESS:      67299
cpu0_ITLB AVERAGE iMISS LATENCY: 10.2775 cycles
cpu0_ITLB AVERAGE dMISS LATENCY: 0 cycles
cpu0_ITLB AVERAGE itMISS LATENCY: 0 cycles
cpu0_ITLB AVERAGE dtMISS LATENCY: 0 cycles
cpu0_ITLB PAGE CROSSINGS (TLB HIT):         0 
cpu0_ITLB PAGE CROSSINGS (TLB MISS):         0 
cpu0_ITLB AVERAGE MISS LATENCY: 10.2775 cycles
cpu0_DTLB TOTAL       ACCESS:   31218731  HIT:   25784824  MISS:    5433907  iACCESS:          0  iHIT:          0  iMISS:          0  dACCESS:   31218731  dHIT:   25784824  dMISS:    5433907  itACCESS:          0  itHIT:          0  itMISS:          0  dtACCESS:          0  dtHIT:          0  dtMISS:          0
cpu0_DTLB LOAD         ACCESS:   31218731  HIT:   25784824  MISS:    5433907  iACCESS:          0  iHIT:          0  iMISS:          0  dACCESS:   31218731  dHIT:   25784824  dMISS:    5433907  itACCESS:          0  itHIT:          0  itMISS:          0  dtACCESS:          0  dtHIT:          0  dtMISS:          0
cpu0_DTLB RFO          ACCESS:          0  HIT:          0  MISS:          0  iACCESS:          0  iHIT:          0  iMISS:          0  dACCESS:          0  dHIT:          0  dMISS:          0  itACCESS:          0  itHIT:          0  itMISS:          0  dtACCESS:          0  dtHIT:          0  dtMISS:          0
cpu0_DTLB PREFETCH     ACCESS:          0  HIT:          0  MISS:          0  iACCESS:          0  iHIT:          0  iMISS:          0  dACCESS:          0  dHIT:          0  dMISS:          0  itACCESS:          0  itHIT:          0  itMISS:          0  dtACCESS:          0  dtHIT:          0  dtMISS:          0
cpu0_DTLB WRITE        ACCESS:          0  HIT:          0  MISS:          0  iACCESS:          0  iHIT:          0  iMISS:          0  dACCESS:          0  dHIT:          0  dMISS:          0  itACCESS:          0  itHIT:          0  itMISS:          0  dtACCESS:          0  dtHIT:          0  dtMISS:          0
cpu0_DTLB TRANSLATION  ACCESS:          0  HIT:          0  MISS:          0  iACCESS:          0  iHIT:          0  iMISS:          0  dACCESS:          0  dHIT:          0  dMISS:          0  itACCESS:          0  itHIT:          0  itMISS:          0  dtACCESS:          0  dtHIT:          0  dtMISS:          0
cpu0_DTLB PREFETCH  REQUESTED:          0  ISSUED:          0  CROSSED:          0  USEFUL:          0  USELESS:          0
cpu0_DTLB AVERAGE iMISS LATENCY: 0 cycles
cpu0_DTLB AVERAGE dMISS LATENCY: 14.1566 cycles
cpu0_DTLB AVERAGE itMISS LATENCY: 0 cycles
cpu0_DTLB AVERAGE dtMISS LATENCY: 0 cycles
cpu0_DTLB PAGE CROSSINGS (TLB HIT):         0 
cpu0_DTLB PAGE CROSSINGS (TLB MISS):         0 
cpu0_DTLB AVERAGE MISS LATENCY: 14.1566 cycles
cpu0_STLB TOTAL       ACCESS:    3260872  HIT:    2974302  MISS:     286570  iACCESS:     387368  iHIT:     297230  iMISS:      90138  dACCESS:    2873504  dHIT:    2677072  dMISS:     196432  itACCESS:          0  itHIT:          0  itMISS:          0  dtACCESS:          0  dtHIT:          0  dtMISS:          0
cpu0_STLB LOAD         ACCESS:    3260872  HIT:    2974302  MISS:     286570  iACCESS:     387368  iHIT:     297230  iMISS:      90138  dACCESS:    2873504  dHIT:    2677072  dMISS:     196432  itACCESS:          0  itHIT:          0  itMISS:          0  dtACCESS:          0  dtHIT:          0  dtMISS:          0
cpu0_STLB RFO          ACCESS:          0  HIT:          0  MISS:          0  iACCESS:          0  iHIT:          0  iMISS:          0  dACCESS:          0  dHIT:          0  dMISS:          0  itACCESS:          0  itHIT:          0  itMISS:          0  dtACCESS:          0  dtHIT:          0  dtMISS:          0
cpu0_STLB PREFETCH     ACCESS:          0  HIT:          0  MISS:          0  iACCESS:          0  iHIT:          0  iMISS:          0  dACCESS:          0  dHIT:          0  dMISS:          0  itACCESS:          0  itHIT:          0  itMISS:          0  dtACCESS:          0  dtHIT:          0  dtMISS:          0
cpu0_STLB WRITE        ACCESS:          0  HIT:          0  MISS:          0  iACCESS:          0  iHIT:          0  iMISS:          0  dACCESS:          0  dHIT:          0  dMISS:          0  itACCESS:          0  itHIT:          0  itMISS:          0  dtACCESS:          0  dtHIT:          0  dtMISS:          0
cpu0_STLB TRANSLATION  ACCESS:          0  HIT:          0  MISS:          0  iACCESS:          0  iHIT:          0  iMISS:          0  dACCESS:          0  dHIT:          0  dMISS:          0  itACCESS:          0  itHIT:          0  itMISS:          0  dtACCESS:          0  dtHIT:          0  dtMISS:          0
cpu0_STLB PREFETCH  REQUESTED:          0  ISSUED:          0  CROSSED:          0  USEFUL:          0  USELESS:          0
cpu0_STLB AVERAGE iMISS LATENCY: 54.6938 cycles
cpu0_STLB AVERAGE dMISS LATENCY: 187.428 cycles
cpu0_STLB AVERAGE itMISS LATENCY: 0 cycles
cpu0_STLB AVERAGE dtMISS LATENCY: 0 cycles
cpu0_STLB PAGE CROSSINGS (TLB HIT):         0 
cpu0_STLB PAGE CROSSINGS (TLB MISS):         0 
cpu0_STLB AVERAGE MISS LATENCY: 242.122 cycles
cpu0_L1D TOTAL       ACCESS:   48570929  HIT:   40558661  MISS:    8012268  iACCESS:          0  iHIT:          0  iMISS:          0  dACCESS:   48109933  dHIT:   40535138  dMISS:    7574795  itACCESS:     111353  itHIT:       9691  itMISS:     101662  dtACCESS:     349643  dtHIT:      13832  dtMISS:     335811
cpu0_L1D LOAD         ACCESS:   23258034  HIT:   19202377  MISS:    4055657  iACCESS:          0  iHIT:          0  iMISS:          0  dACCESS:   23258034  dHIT:   19202377  dMISS:    4055657  itACCESS:          0  itHIT:          0  itMISS:          0  dtACCESS:          0  dtHIT:          0  dtMISS:          0
cpu0_L1D RFO          ACCESS:          0  HIT:          0  MISS:          0  iACCESS:          0  iHIT:          0  iMISS:          0  dACCESS:          0  dHIT:          0  dMISS:          0  itACCESS:          0  itHIT:          0  itMISS:          0  dtACCESS:          0  dtHIT:          0  dtMISS:          0
cpu0_L1D PREFETCH     ACCESS:   15020314  HIT:   12275255  MISS:    2745059  iACCESS:          0  iHIT:          0  iMISS:          0  dACCESS:   15020314  dHIT:   12275255  dMISS:    2745059  itACCESS:          0  itHIT:          0  itMISS:          0  dtACCESS:          0  dtHIT:          0  dtMISS:          0
cpu0_L1D WRITE        ACCESS:    9831585  HIT:    9057506  MISS:     774079  iACCESS:          0  iHIT:          0  iMISS:          0  dACCESS:    9831585  dHIT:    9057506  dMISS:     774079  itACCESS:          0  itHIT:          0  itMISS:          0  dtACCESS:          0  dtHIT:          0  dtMISS:          0
cpu0_L1D TRANSLATION  ACCESS:     460996  HIT:      23523  MISS:     437473  iACCESS:          0  iHIT:          0  iMISS:          0  dACCESS:          0  dHIT:          0  dMISS:          0  itACCESS:     111353  itHIT:       9691  itMISS:     101662  dtACCESS:     349643  dtHIT:      13832  dtMISS:     335811
cpu0_L1D PREFETCH  REQUESTED:   23258034  ISSUED:   19615991  CROSSED:          0  USEFUL:     339172  USELESS:    1121093
cpu0_L1D AVERAGE iMISS LATENCY: 0 cycles
cpu0_L1D AVERAGE dMISS LATENCY: 33.1083 cycles
cpu0_L1D AVERAGE itMISS LATENCY: 1.8401 cycles
cpu0_L1D AVERAGE dtMISS LATENCY: 6.24909 cycles
cpu0_L1D PAGE CROSSINGS (TLB HIT):         0 
cpu0_L1D PAGE CROSSINGS (TLB MISS):         0 
cpu0_L1D AVERAGE MISS LATENCY: 41.1975 cycles
cpu0_L2C TOTAL       ACCESS:    9154913  HIT:    5587274  MISS:    3567639  iACCESS:    3059172  iHIT:    1900679  iMISS:    1158493  dACCESS:    5728739  dHIT:    3640316  dMISS:    2088423  itACCESS:      91089  itHIT:      15826  itMISS:      75263  dtACCESS:     275913  dtHIT:      30453  dtMISS:     245460
cpu0_L2C LOAD         ACCESS:    3347254  HIT:    2470229  MISS:     877025  iACCESS:     688332  iHIT:     445803  iMISS:     242529  dACCESS:    2658922  dHIT:    2024426  dMISS:     634496  itACCESS:          0  itHIT:          0  itMISS:          0  dtACCESS:          0  dtHIT:          0  dtMISS:          0
cpu0_L2C RFO          ACCESS:     237202  HIT:     106989  MISS:     130213  iACCESS:          0  iHIT:          0  iMISS:          0  dACCESS:     237202  dHIT:     106989  dMISS:     130213  itACCESS:          0  itHIT:          0  itMISS:          0  dtACCESS:          0  dtHIT:          0  dtMISS:          0
cpu0_L2C PREFETCH     ACCESS:    4867185  HIT:    2629821  MISS:    2237364  iACCESS:    2370840  iHIT:    1454876  iMISS:     915964  dACCESS:    2496345  dHIT:    1174945  dMISS:    1321400  itACCESS:          0  itHIT:          0  itMISS:          0  dtACCESS:          0  dtHIT:          0  dtMISS:          0
cpu0_L2C WRITE        ACCESS:     336270  HIT:     333956  MISS:       2314  iACCESS:          0  iHIT:          0  iMISS:          0  dACCESS:     336270  dHIT:     333956  dMISS:       2314  itACCESS:          0  itHIT:          0  itMISS:          0  dtACCESS:          0  dtHIT:          0  dtMISS:          0
cpu0_L2C TRANSLATION  ACCESS:     367002  HIT:      46279  MISS:     320723  iACCESS:          0  iHIT:          0  iMISS:          0  dACCESS:          0  dHIT:          0  dMISS:          0  itACCESS:      91089  itHIT:      15826  itMISS:      75263  dtACCESS:     275913  dtHIT:      30453  dtMISS:     245460
cpu0_L2C PREFETCH  REQUESTED:    1220847  ISSUED:    1220777  CROSSED:          0  USEFUL:     271716  USELESS:     249406
cpu0_L2C AVERAGE iMISS LATENCY: 39.752 cycles
cpu0_L2C AVERAGE dMISS LATENCY: 81.5697 cycles
cpu0_L2C AVERAGE itMISS LATENCY: 3.88092 cycles
cpu0_L2C AVERAGE dtMISS LATENCY: 13.2652 cycles
cpu0_L2C PAGE CROSSINGS (TLB HIT):         0 
cpu0_L2C PAGE CROSSINGS (TLB MISS):         0 
cpu0_L2C AVERAGE MISS LATENCY: 138.468 cycles
LLC TOTAL       ACCESS:    3591309  HIT:    1119040  MISS:    2472269  iACCESS:    1091783  iHIT:     335226  iMISS:     756557  dACCESS:    2178803  dHIT:     751075  dMISS:    1427728  itACCESS:      75263  itHIT:       5954  itMISS:      69309  dtACCESS:     245460  dtHIT:      26785  dtMISS:     218675
LLC LOAD         ACCESS:     871286  HIT:     287525  MISS:     583761  iACCESS:     241632  iHIT:      80756  iMISS:     160876  dACCESS:     629654  dHIT:     206769  dMISS:     422885  itACCESS:          0  itHIT:          0  itMISS:          0  dtACCESS:          0  dtHIT:          0  dtMISS:          0
LLC RFO          ACCESS:     130203  HIT:      37532  MISS:      92671  iACCESS:          0  iHIT:          0  iMISS:          0  dACCESS:     130203  dHIT:      37532  dMISS:      92671  itACCESS:          0  itHIT:          0  itMISS:          0  dtACCESS:          0  dtHIT:          0  dtMISS:          0
LLC PREFETCH     ACCESS:    2080533  HIT:     580552  MISS:    1499981  iACCESS:     850151  iHIT:     254470  iMISS:     595681  dACCESS:    1230382  dHIT:     326082  dMISS:     904300  itACCESS:          0  itHIT:          0  itMISS:          0  dtACCESS:          0  dtHIT:          0  dtMISS:          0
LLC WRITE        ACCESS:     188564  HIT:     180692  MISS:       7872  iACCESS:          0  iHIT:          0  iMISS:          0  dACCESS:     188564  dHIT:     180692  dMISS:       7872  itACCESS:          0  itHIT:          0  itMISS:          0  dtACCESS:          0  dtHIT:          0  dtMISS:          0
LLC TRANSLATION  ACCESS:     320723  HIT:      32739  MISS:     287984  iACCESS:          0  iHIT:          0  iMISS:          0  dACCESS:          0  dHIT:          0  dMISS:          0  itACCESS:      75263  itHIT:       5954  itMISS:      69309  dtACCESS:     245460  dtHIT:      26785  dtMISS:     218675
LLC PREFETCH  REQUESTED:          0  ISSUED:          0  CROSSED:          0  USEFUL:          0  USELESS:          0
LLC AVERAGE iMISS LATENCY: 48.6615 cycles
LLC AVERAGE dMISS LATENCY: 102.749 cycles
LLC AVERAGE itMISS LATENCY: 4.99665 cycles
LLC AVERAGE dtMISS LATENCY: 17.1803 cycles
LLC PAGE CROSSINGS (TLB HIT):         0 
LLC PAGE CROSSINGS (TLB MISS):         0 
LLC AVERAGE MISS LATENCY: 173.587 cycles

PageTableWalker TOTAL       ACCESS:     190838  
PageTableWalker AVERAGE LATENCY: 6.52571 cycles
PageTableWalker TOTAL LATENCY: 1245352 cycles

DRAM Statistics
Channel 0
 RQ ROW_BUFFER_HIT:     514667
  ROW_BUFFER_MISS:    1934893
 AVG DBUS CONGESTED CYCLE:    3.65661
 WQ ROW_BUFFER_HIT:      53965
  ROW_BUFFER_MISS:      53971  FULL:          0

