last_page:0x200000000000000
VMEM_RES_CAP:0x100000
PAGE_SIZE:4096
LOG2_PAGE_SIZE:12
LOG2_PAGE_TABLE_SIZE:9
page_table_levels:5
WARNING: physical memory size is smaller than virtual memory size
FDiP enabled with aggresivity 16

*** ChampSim Multicore Out-of-Order Simulator ***

Warmup Instructions: 50000000
Simulation Instructions: 100000000
Number of CPUs: 1
Small page size: 4096
Large page size: 2097152

CPU 0 Bimodal branch predictor
Basic BTB sets: 1024 ways: 8 indirect buffer size: 4096 RAS size: 64
Instruction page size distrubution: 0
Loading instruction page size distribution from /home/bsc/bsc018186/scratch/itp_asplos25_AE/dump/smt_srv207_ap_srv551_ap_1024i.pdst
Data page size distrubution: 0
Loading data page size distribution from /home/bsc/bsc018186/scratch/itp_asplos25_AE/dump/smt_srv207_ap_srv551_ap_1024i.pdst
cpu0_L2C IP-based stride prefetcher
cpu0_L2C is using PTP replacement policy:
	TLB_STRESS_THRESHOLD:0
	PTE_EVICTION_RATIO:0
cpu0_L1D next line prefetcher
cpu0_L1I next line prefetcher
Off-chip DRAM Size: 4 GiB Channels: 1 Width: 64-bit Data Rate: 3200 MT/s
Heartbeat CPU 0 instructions: 10000000 cycles: 2500765 heartbeat IPC: 3.99878 cumulative IPC: 3.99878 (Simulation time: 0 hr 0 min 43 sec) 
Heartbeat CPU 0 instructions: 20000002 cycles: 5001497 heartbeat IPC: 3.99883 cumulative IPC: 3.99881 (Simulation time: 0 hr 1 min 28 sec) 
Heartbeat CPU 0 instructions: 30000001 cycles: 7501946 heartbeat IPC: 3.99929 cumulative IPC: 3.99897 (Simulation time: 0 hr 2 min 15 sec) 
Heartbeat CPU 0 instructions: 40000003 cycles: 10002250 heartbeat IPC: 3.99952 cumulative IPC: 3.99911 (Simulation time: 0 hr 3 min 4 sec) 
Heartbeat CPU 0 instructions: 50000001 cycles: 12502772 heartbeat IPC: 3.99917 cumulative IPC: 3.99912 (Simulation time: 0 hr 3 min 52 sec) 
Warmup finished CPU 0 instructions: 50000001 cycles: 12502773 cumulative IPC: 3.99912 (Simulation time: 0 hr 3 min 52 sec) 

Warmup complete CPU 0 instructions: 50000001 cycles: 12502773 (Simulation time: 0 hr 3 min 52 sec) 

Heartbeat CPU 0 instructions: 60000000 cycles: 43455379 heartbeat IPC: 0.323075 cumulative IPC: 0.323075 (Simulation time: 0 hr 5 min 31 sec) 
Heartbeat CPU 0 instructions: 70000000 cycles: 75970035 heartbeat IPC: 0.307554 cumulative IPC: 0.315124 (Simulation time: 0 hr 7 min 15 sec) 
Heartbeat CPU 0 instructions: 80000001 cycles: 107592168 heartbeat IPC: 0.316235 cumulative IPC: 0.315493 (Simulation time: 0 hr 8 min 56 sec) 
Heartbeat CPU 0 instructions: 90000000 cycles: 139213486 heartbeat IPC: 0.316243 cumulative IPC: 0.31568 (Simulation time: 0 hr 10 min 39 sec) 
Heartbeat CPU 0 instructions: 100000000 cycles: 170311764 heartbeat IPC: 0.321562 cumulative IPC: 0.316839 (Simulation time: 0 hr 12 min 20 sec) 
Heartbeat CPU 0 instructions: 110000000 cycles: 200105024 heartbeat IPC: 0.335647 cumulative IPC: 0.319826 (Simulation time: 0 hr 13 min 56 sec) 
Heartbeat CPU 0 instructions: 120000002 cycles: 225920250 heartbeat IPC: 0.387369 cumulative IPC: 0.327996 (Simulation time: 0 hr 15 min 21 sec) 
Heartbeat CPU 0 instructions: 130000000 cycles: 242739995 heartbeat IPC: 0.59454 cumulative IPC: 0.347468 (Simulation time: 0 hr 16 min 39 sec) 
Heartbeat CPU 0 instructions: 140000002 cycles: 262146260 heartbeat IPC: 0.515298 cumulative IPC: 0.360515 (Simulation time: 0 hr 18 min 4 sec) 
Heartbeat CPU 0 instructions: 150000000 cycles: 294146933 heartbeat IPC: 0.312494 cumulative IPC: 0.355058 (Simulation time: 0 hr 19 min 47 sec) 
Simulation finished CPU 0 instructions: 100000004 cycles: 281644162 cumulative IPC: 0.355058 (Simulation time: 0 hr 19 min 47 sec) 

Simulation complete CPU 0 instructions: 100000004 cycles: 281644162 (Simulation time: 0 hr 19 min 47 sec) 


ChampSim completed all CPUs

Saving instructions large page distribution to /home/bsc/bsc018186/scratch/itp_asplos25_AE/dump/smt_srv207_ap_srv551_ap_1024i.pdst...
Saving data large page distribution to /home/bsc/bsc018186/scratch/itp_asplos25_AE/dump/smt_srv207_ap_srv551_ap_1024i.pdst...
=== Simulation ===
CPU 0 runs /gpfs/projects/bsc18/MN4/bsc18/romol/ChampSim/traces/qualcomm_srv/smt_srv207_ap_srv551_ap_1024i.champsimtrace.xz

Region of Interest Statistics

CPU 0 cumulative IPC: 0.355058 instructions: 100000004 cycles: 281644162
CPU 0 Branch Prediction Accuracy: 77.4636% MPKI: 43.4302 Average ROB Occupancy at Mispredict: 11.3382
Branch type MPKI
BRANCH_DIRECT_JUMP: 1.27778
BRANCH_INDIRECT: 23.718
BRANCH_CONDITIONAL: 11.5725
BRANCH_DIRECT_CALL: 2.41064
BRANCH_INDIRECT_CALL: 1.08263
BRANCH_RETURN: 3.36873

Instructions large pages: 0
Instructions small pages: 11910
Large page distribution for instructions: 0%

Data large pages: 0
Data small pages: 10385
Large page distribution for data: 0%

cpu0_L1I TOTAL       ACCESS:   39654668  HIT:   31899609  MISS:    7755059  iACCESS:   39654668  iHIT:   31899609  iMISS:    7755059  dACCESS:          0  dHIT:          0  dMISS:          0  itACCESS:          0  itHIT:          0  itMISS:          0  dtACCESS:          0  dtHIT:          0  dtMISS:          0
cpu0_L1I LOAD         ACCESS:   11215088  HIT:    9098496  MISS:    2116592  iACCESS:   11215088  iHIT:    9098496  iMISS:    2116592  dACCESS:          0  dHIT:          0  dMISS:          0  itACCESS:          0  itHIT:          0  itMISS:          0  dtACCESS:          0  dtHIT:          0  dtMISS:          0
cpu0_L1I RFO          ACCESS:          0  HIT:          0  MISS:          0  iACCESS:          0  iHIT:          0  iMISS:          0  dACCESS:          0  dHIT:          0  dMISS:          0  itACCESS:          0  itHIT:          0  itMISS:          0  dtACCESS:          0  dtHIT:          0  dtMISS:          0
cpu0_L1I PREFETCH     ACCESS:   28439580  HIT:   22801113  MISS:    5638467  iACCESS:   28439580  iHIT:   22801113  iMISS:    5638467  dACCESS:          0  dHIT:          0  dMISS:          0  itACCESS:          0  itHIT:          0  itMISS:          0  dtACCESS:          0  dtHIT:          0  dtMISS:          0
cpu0_L1I WRITE        ACCESS:          0  HIT:          0  MISS:          0  iACCESS:          0  iHIT:          0  iMISS:          0  dACCESS:          0  dHIT:          0  dMISS:          0  itACCESS:          0  itHIT:          0  itMISS:          0  dtACCESS:          0  dtHIT:          0  dtMISS:          0
cpu0_L1I TRANSLATION  ACCESS:          0  HIT:          0  MISS:          0  iACCESS:          0  iHIT:          0  iMISS:          0  dACCESS:          0  dHIT:          0  dMISS:          0  itACCESS:          0  itHIT:          0  itMISS:          0  dtACCESS:          0  dtHIT:          0  dtMISS:          0
cpu0_L1I PREFETCH  REQUESTED:   31047741  ISSUED:   31047545  CROSSED:          0  USEFUL:    1962910  USELESS:     709721
cpu0_L1I AVERAGE iMISS LATENCY: 24.712 cycles
cpu0_L1I AVERAGE dMISS LATENCY: 0 cycles
cpu0_L1I AVERAGE itMISS LATENCY: 0 cycles
cpu0_L1I AVERAGE dtMISS LATENCY: 0 cycles
cpu0_L1I PAGE CROSSINGS (TLB HIT):         0 
cpu0_L1I PAGE CROSSINGS (TLB MISS):         0 
cpu0_L1I AVERAGE MISS LATENCY: 24.712 cycles
cpu0_ITLB TOTAL       ACCESS:   33456163  HIT:   31438118  MISS:    2018045  iACCESS:   33456163  iHIT:   31438118  iMISS:    2018045  dACCESS:          0  dHIT:          0  dMISS:          0  itACCESS:          0  itHIT:          0  itMISS:          0  dtACCESS:          0  dtHIT:          0  dtMISS:          0
cpu0_ITLB LOAD         ACCESS:   33456163  HIT:   31438118  MISS:    2018045  iACCESS:   33456163  iHIT:   31438118  iMISS:    2018045  dACCESS:          0  dHIT:          0  dMISS:          0  itACCESS:          0  itHIT:          0  itMISS:          0  dtACCESS:          0  dtHIT:          0  dtMISS:          0
cpu0_ITLB RFO          ACCESS:          0  HIT:          0  MISS:          0  iACCESS:          0  iHIT:          0  iMISS:          0  dACCESS:          0  dHIT:          0  dMISS:          0  itACCESS:          0  itHIT:          0  itMISS:          0  dtACCESS:          0  dtHIT:          0  dtMISS:          0
cpu0_ITLB PREFETCH     ACCESS:          0  HIT:          0  MISS:          0  iACCESS:          0  iHIT:          0  iMISS:          0  dACCESS:          0  dHIT:          0  dMISS:          0  itACCESS:          0  itHIT:          0  itMISS:          0  dtACCESS:          0  dtHIT:          0  dtMISS:          0
cpu0_ITLB WRITE        ACCESS:          0  HIT:          0  MISS:          0  iACCESS:          0  iHIT:          0  iMISS:          0  dACCESS:          0  dHIT:          0  dMISS:          0  itACCESS:          0  itHIT:          0  itMISS:          0  dtACCESS:          0  dtHIT:          0  dtMISS:          0
cpu0_ITLB TRANSLATION  ACCESS:          0  HIT:          0  MISS:          0  iACCESS:          0  iHIT:          0  iMISS:          0  dACCESS:          0  dHIT:          0  dMISS:          0  itACCESS:          0  itHIT:          0  itMISS:          0  dtACCESS:          0  dtHIT:          0  dtMISS:          0
cpu0_ITLB PREFETCH  REQUESTED:          0  ISSUED:          0  CROSSED:          0  USEFUL:     355648  USELESS:      74298
cpu0_ITLB AVERAGE iMISS LATENCY: 10.616 cycles
cpu0_ITLB AVERAGE dMISS LATENCY: 0 cycles
cpu0_ITLB AVERAGE itMISS LATENCY: 0 cycles
cpu0_ITLB AVERAGE dtMISS LATENCY: 0 cycles
cpu0_ITLB PAGE CROSSINGS (TLB HIT):         0 
cpu0_ITLB PAGE CROSSINGS (TLB MISS):         0 
cpu0_ITLB AVERAGE MISS LATENCY: 10.616 cycles
cpu0_DTLB TOTAL       ACCESS:   31100981  HIT:   25030939  MISS:    6070042  iACCESS:          0  iHIT:          0  iMISS:          0  dACCESS:   31100981  dHIT:   25030939  dMISS:    6070042  itACCESS:          0  itHIT:          0  itMISS:          0  dtACCESS:          0  dtHIT:          0  dtMISS:          0
cpu0_DTLB LOAD         ACCESS:   31100981  HIT:   25030939  MISS:    6070042  iACCESS:          0  iHIT:          0  iMISS:          0  dACCESS:   31100981  dHIT:   25030939  dMISS:    6070042  itACCESS:          0  itHIT:          0  itMISS:          0  dtACCESS:          0  dtHIT:          0  dtMISS:          0
cpu0_DTLB RFO          ACCESS:          0  HIT:          0  MISS:          0  iACCESS:          0  iHIT:          0  iMISS:          0  dACCESS:          0  dHIT:          0  dMISS:          0  itACCESS:          0  itHIT:          0  itMISS:          0  dtACCESS:          0  dtHIT:          0  dtMISS:          0
cpu0_DTLB PREFETCH     ACCESS:          0  HIT:          0  MISS:          0  iACCESS:          0  iHIT:          0  iMISS:          0  dACCESS:          0  dHIT:          0  dMISS:          0  itACCESS:          0  itHIT:          0  itMISS:          0  dtACCESS:          0  dtHIT:          0  dtMISS:          0
cpu0_DTLB WRITE        ACCESS:          0  HIT:          0  MISS:          0  iACCESS:          0  iHIT:          0  iMISS:          0  dACCESS:          0  dHIT:          0  dMISS:          0  itACCESS:          0  itHIT:          0  itMISS:          0  dtACCESS:          0  dtHIT:          0  dtMISS:          0
cpu0_DTLB TRANSLATION  ACCESS:          0  HIT:          0  MISS:          0  iACCESS:          0  iHIT:          0  iMISS:          0  dACCESS:          0  dHIT:          0  dMISS:          0  itACCESS:          0  itHIT:          0  itMISS:          0  dtACCESS:          0  dtHIT:          0  dtMISS:          0
cpu0_DTLB PREFETCH  REQUESTED:          0  ISSUED:          0  CROSSED:          0  USEFUL:          0  USELESS:          0
cpu0_DTLB AVERAGE iMISS LATENCY: 0 cycles
cpu0_DTLB AVERAGE dMISS LATENCY: 14.7357 cycles
cpu0_DTLB AVERAGE itMISS LATENCY: 0 cycles
cpu0_DTLB AVERAGE dtMISS LATENCY: 0 cycles
cpu0_DTLB PAGE CROSSINGS (TLB HIT):         0 
cpu0_DTLB PAGE CROSSINGS (TLB MISS):         0 
cpu0_DTLB AVERAGE MISS LATENCY: 14.7357 cycles
cpu0_STLB TOTAL       ACCESS:    3659608  HIT:    3321480  MISS:     338128  iACCESS:     429950  iHIT:     324381  iMISS:     105569  dACCESS:    3229658  dHIT:    2997099  dMISS:     232559  itACCESS:          0  itHIT:          0  itMISS:          0  dtACCESS:          0  dtHIT:          0  dtMISS:          0
cpu0_STLB LOAD         ACCESS:    3659608  HIT:    3321480  MISS:     338128  iACCESS:     429950  iHIT:     324381  iMISS:     105569  dACCESS:    3229658  dHIT:    2997099  dMISS:     232559  itACCESS:          0  itHIT:          0  itMISS:          0  dtACCESS:          0  dtHIT:          0  dtMISS:          0
cpu0_STLB RFO          ACCESS:          0  HIT:          0  MISS:          0  iACCESS:          0  iHIT:          0  iMISS:          0  dACCESS:          0  dHIT:          0  dMISS:          0  itACCESS:          0  itHIT:          0  itMISS:          0  dtACCESS:          0  dtHIT:          0  dtMISS:          0
cpu0_STLB PREFETCH     ACCESS:          0  HIT:          0  MISS:          0  iACCESS:          0  iHIT:          0  iMISS:          0  dACCESS:          0  dHIT:          0  dMISS:          0  itACCESS:          0  itHIT:          0  itMISS:          0  dtACCESS:          0  dtHIT:          0  dtMISS:          0
cpu0_STLB WRITE        ACCESS:          0  HIT:          0  MISS:          0  iACCESS:          0  iHIT:          0  iMISS:          0  dACCESS:          0  dHIT:          0  dMISS:          0  itACCESS:          0  itHIT:          0  itMISS:          0  dtACCESS:          0  dtHIT:          0  dtMISS:          0
cpu0_STLB TRANSLATION  ACCESS:          0  HIT:          0  MISS:          0  iACCESS:          0  iHIT:          0  iMISS:          0  dACCESS:          0  dHIT:          0  dMISS:          0  itACCESS:          0  itHIT:          0  itMISS:          0  dtACCESS:          0  dtHIT:          0  dtMISS:          0
cpu0_STLB PREFETCH  REQUESTED:          0  ISSUED:          0  CROSSED:          0  USEFUL:          0  USELESS:          0
cpu0_STLB AVERAGE iMISS LATENCY: 53.1824 cycles
cpu0_STLB AVERAGE dMISS LATENCY: 187.26 cycles
cpu0_STLB AVERAGE itMISS LATENCY: 0 cycles
cpu0_STLB AVERAGE dtMISS LATENCY: 0 cycles
cpu0_STLB PAGE CROSSINGS (TLB HIT):         0 
cpu0_STLB PAGE CROSSINGS (TLB MISS):         0 
cpu0_STLB AVERAGE MISS LATENCY: 240.443 cycles
cpu0_L1D TOTAL       ACCESS:   48543724  HIT:   40075995  MISS:    8467729  iACCESS:          0  iHIT:          0  iMISS:          0  dACCESS:   48059260  dHIT:   40048309  dMISS:    8010951  itACCESS:     117891  itHIT:      12133  itMISS:     105758  dtACCESS:     366573  dtHIT:      15553  dtMISS:     351020
cpu0_L1D LOAD         ACCESS:   23136330  HIT:   18650492  MISS:    4485838  iACCESS:          0  iHIT:          0  iMISS:          0  dACCESS:   23136330  dHIT:   18650492  dMISS:    4485838  itACCESS:          0  itHIT:          0  itMISS:          0  dtACCESS:          0  dtHIT:          0  dtMISS:          0
cpu0_L1D RFO          ACCESS:          0  HIT:          0  MISS:          0  iACCESS:          0  iHIT:          0  iMISS:          0  dACCESS:          0  dHIT:          0  dMISS:          0  itACCESS:          0  itHIT:          0  itMISS:          0  dtACCESS:          0  dtHIT:          0  dtMISS:          0
cpu0_L1D PREFETCH     ACCESS:   15174004  HIT:   12236028  MISS:    2937976  iACCESS:          0  iHIT:          0  iMISS:          0  dACCESS:   15174004  dHIT:   12236028  dMISS:    2937976  itACCESS:          0  itHIT:          0  itMISS:          0  dtACCESS:          0  dtHIT:          0  dtMISS:          0
cpu0_L1D WRITE        ACCESS:    9748926  HIT:    9161789  MISS:     587137  iACCESS:          0  iHIT:          0  iMISS:          0  dACCESS:    9748926  dHIT:    9161789  dMISS:     587137  itACCESS:          0  itHIT:          0  itMISS:          0  dtACCESS:          0  dtHIT:          0  dtMISS:          0
cpu0_L1D TRANSLATION  ACCESS:     484464  HIT:      27686  MISS:     456778  iACCESS:          0  iHIT:          0  iMISS:          0  dACCESS:          0  dHIT:          0  dMISS:          0  itACCESS:     117891  itHIT:      12133  itMISS:     105758  dtACCESS:     366573  dtHIT:      15553  dtMISS:     351020
cpu0_L1D PREFETCH  REQUESTED:   23136330  ISSUED:   19283492  CROSSED:          0  USEFUL:     346255  USELESS:    1186158
cpu0_L1D AVERAGE iMISS LATENCY: 0 cycles
cpu0_L1D AVERAGE dMISS LATENCY: 34.0197 cycles
cpu0_L1D AVERAGE itMISS LATENCY: 2.0062 cycles
cpu0_L1D AVERAGE dtMISS LATENCY: 6.98203 cycles
cpu0_L1D PAGE CROSSINGS (TLB HIT):         0 
cpu0_L1D PAGE CROSSINGS (TLB MISS):         0 
cpu0_L1D AVERAGE MISS LATENCY: 43.0079 cycles
cpu0_L2C TOTAL       ACCESS:   10044399  HIT:    5870093  MISS:    4174306  iACCESS:    3399755  iHIT:    1995827  iMISS:    1403928  dACCESS:    6212016  dHIT:    3818605  dMISS:    2393411  itACCESS:     105612  itHIT:      18285  itMISS:      87327  dtACCESS:     327016  dtHIT:      37376  dtMISS:     289640
cpu0_L2C LOAD         ACCESS:    3705422  HIT:    2661248  MISS:    1044174  iACCESS:     757018  iHIT:     457889  iMISS:     299129  dACCESS:    2948404  dHIT:    2203359  dMISS:     745045  itACCESS:          0  itHIT:          0  itMISS:          0  dtACCESS:          0  dtHIT:          0  dtMISS:          0
cpu0_L2C RFO          ACCESS:     233141  HIT:     114221  MISS:     118920  iACCESS:          0  iHIT:          0  iMISS:          0  dACCESS:     233141  dHIT:     114221  dMISS:     118920  itACCESS:          0  itHIT:          0  itMISS:          0  dtACCESS:          0  dtHIT:          0  dtMISS:          0
cpu0_L2C PREFETCH     ACCESS:    5346407  HIT:    2727385  MISS:    2619022  iACCESS:    2642737  iHIT:    1537938  iMISS:    1104799  dACCESS:    2703670  dHIT:    1189447  dMISS:    1514223  itACCESS:          0  itHIT:          0  itMISS:          0  dtACCESS:          0  dtHIT:          0  dtMISS:          0
cpu0_L2C WRITE        ACCESS:     326801  HIT:     311578  MISS:      15223  iACCESS:          0  iHIT:          0  iMISS:          0  dACCESS:     326801  dHIT:     311578  dMISS:      15223  itACCESS:          0  itHIT:          0  itMISS:          0  dtACCESS:          0  dtHIT:          0  dtMISS:          0
cpu0_L2C TRANSLATION  ACCESS:     432628  HIT:      55661  MISS:     376967  iACCESS:          0  iHIT:          0  iMISS:          0  dACCESS:          0  dHIT:          0  dMISS:          0  itACCESS:     105612  itHIT:      18285  itMISS:      87327  dtACCESS:     327016  dtHIT:      37376  dtMISS:     289640
cpu0_L2C PREFETCH  REQUESTED:    1380340  ISSUED:    1380266  CROSSED:          0  USEFUL:     312696  USELESS:     300621
cpu0_L2C AVERAGE iMISS LATENCY: 39.1151 cycles
cpu0_L2C AVERAGE dMISS LATENCY: 76.6951 cycles
cpu0_L2C AVERAGE itMISS LATENCY: 3.82027 cycles
cpu0_L2C AVERAGE dtMISS LATENCY: 13.3845 cycles
cpu0_L2C PAGE CROSSINGS (TLB HIT):         0 
cpu0_L2C PAGE CROSSINGS (TLB MISS):         0 
cpu0_L2C AVERAGE MISS LATENCY: 133.015 cycles
LLC TOTAL       ACCESS:    4158898  HIT:    1374934  MISS:    2783964  iACCESS:    1328391  iHIT:     456609  iMISS:     871782  dACCESS:    2453540  dHIT:     881050  dMISS:    1572490  itACCESS:      87327  itHIT:       7602  itMISS:      79725  dtACCESS:     289640  dtHIT:      29673  dtMISS:     259967
LLC LOAD         ACCESS:    1036419  HIT:     387414  MISS:     649005  iACCESS:     298032  iHIT:     113122  iMISS:     184910  dACCESS:     738387  dHIT:     274292  dMISS:     464095  itACCESS:          0  itHIT:          0  itMISS:          0  dtACCESS:          0  dtHIT:          0  dtMISS:          0
LLC RFO          ACCESS:     118915  HIT:      36033  MISS:      82882  iACCESS:          0  iHIT:          0  iMISS:          0  dACCESS:     118915  dHIT:      36033  dMISS:      82882  itACCESS:          0  itHIT:          0  itMISS:          0  dtACCESS:          0  dtHIT:          0  dtMISS:          0
LLC PREFETCH     ACCESS:    2440472  HIT:     736864  MISS:    1703608  iACCESS:    1030359  iHIT:     343487  iMISS:     686872  dACCESS:    1410113  dHIT:     393377  dMISS:    1016736  itACCESS:          0  itHIT:          0  itMISS:          0  dtACCESS:          0  dtHIT:          0  dtMISS:          0
LLC WRITE        ACCESS:     186125  HIT:     177348  MISS:       8777  iACCESS:          0  iHIT:          0  iMISS:          0  dACCESS:     186125  dHIT:     177348  dMISS:       8777  itACCESS:          0  itHIT:          0  itMISS:          0  dtACCESS:          0  dtHIT:          0  dtMISS:          0
LLC TRANSLATION  ACCESS:     376967  HIT:      37275  MISS:     339692  iACCESS:          0  iHIT:          0  iMISS:          0  dACCESS:          0  dHIT:          0  dMISS:          0  itACCESS:      87327  itHIT:       7602  itMISS:      79725  dtACCESS:     289640  dtHIT:      29673  dtMISS:     259967
LLC PREFETCH  REQUESTED:          0  ISSUED:          0  CROSSED:          0  USEFUL:          0  USELESS:          0
LLC AVERAGE iMISS LATENCY: 49.2611 cycles
LLC AVERAGE dMISS LATENCY: 99.9313 cycles
LLC AVERAGE itMISS LATENCY: 5.10639 cycles
LLC AVERAGE dtMISS LATENCY: 18.0116 cycles
LLC PAGE CROSSINGS (TLB HIT):         0 
LLC PAGE CROSSINGS (TLB MISS):         0 
LLC AVERAGE MISS LATENCY: 172.311 cycles

PageTableWalker TOTAL       ACCESS:     194108  
PageTableWalker AVERAGE LATENCY: 6.37944 cycles
PageTableWalker TOTAL LATENCY: 1238300 cycles

DRAM Statistics
Channel 0
 RQ ROW_BUFFER_HIT:     604837
  ROW_BUFFER_MISS:    2152606
 AVG DBUS CONGESTED CYCLE:    3.64739
 WQ ROW_BUFFER_HIT:      58710
  ROW_BUFFER_MISS:      49272  FULL:          0

