last_page:0x200000000000000
VMEM_RES_CAP:0x100000
PAGE_SIZE:4096
LOG2_PAGE_SIZE:12
LOG2_PAGE_TABLE_SIZE:9
page_table_levels:5
WARNING: physical memory size is smaller than virtual memory size
FDiP enabled with aggresivity 16

*** ChampSim Multicore Out-of-Order Simulator ***

Warmup Instructions: 50000000
Simulation Instructions: 100000000
Number of CPUs: 1
Small page size: 4096
Large page size: 2097152

CPU 0 Bimodal branch predictor
Basic BTB sets: 1024 ways: 8 indirect buffer size: 4096 RAS size: 64
Instruction page size distrubution: 0
Loading instruction page size distribution from /home/bsc/bsc018186/scratch/itp_asplos25_AE/dump/smt_srv537_ap_srv526_ap_1024i.pdst
Data page size distrubution: 0
Loading data page size distribution from /home/bsc/bsc018186/scratch/itp_asplos25_AE/dump/smt_srv537_ap_srv526_ap_1024i.pdst
cpu0_L2C IP-based stride prefetcher
cpu0_L2C is using PTP replacement policy:
	TLB_STRESS_THRESHOLD:0
	PTE_EVICTION_RATIO:0
cpu0_L1D next line prefetcher
cpu0_STLB using iTP with max lru@8
cpu0_STLB using iTP with instr@0 and data@2
Init sat counter with 3 bits (max:50).
cpu0_L1I next line prefetcher
Off-chip DRAM Size: 4 GiB Channels: 1 Width: 64-bit Data Rate: 3200 MT/s
Heartbeat CPU 0 instructions: 10000000 cycles: 2500460 heartbeat IPC: 3.99927 cumulative IPC: 3.99927 (Simulation time: 0 hr 0 min 36 sec) 
Heartbeat CPU 0 instructions: 20000003 cycles: 5000669 heartbeat IPC: 3.99967 cumulative IPC: 3.99947 (Simulation time: 0 hr 1 min 14 sec) 
Heartbeat CPU 0 instructions: 30000002 cycles: 7582145 heartbeat IPC: 3.87376 cumulative IPC: 3.95667 (Simulation time: 0 hr 1 min 53 sec) 
Heartbeat CPU 0 instructions: 40000003 cycles: 10122420 heartbeat IPC: 3.93659 cumulative IPC: 3.95163 (Simulation time: 0 hr 2 min 33 sec) 
Heartbeat CPU 0 instructions: 50000001 cycles: 12646454 heartbeat IPC: 3.96192 cumulative IPC: 3.95368 (Simulation time: 0 hr 3 min 13 sec) 
Warmup finished CPU 0 instructions: 50000001 cycles: 12646455 cumulative IPC: 3.95368 (Simulation time: 0 hr 3 min 13 sec) 

Warmup complete CPU 0 instructions: 50000001 cycles: 12646455 (Simulation time: 0 hr 3 min 13 sec) 

Heartbeat CPU 0 instructions: 60000003 cycles: 41120696 heartbeat IPC: 0.351195 cumulative IPC: 0.351195 (Simulation time: 0 hr 4 min 32 sec) 
Heartbeat CPU 0 instructions: 70000004 cycles: 71128849 heartbeat IPC: 0.333243 cumulative IPC: 0.341984 (Simulation time: 0 hr 5 min 53 sec) 
Heartbeat CPU 0 instructions: 80000003 cycles: 100247685 heartbeat IPC: 0.343421 cumulative IPC: 0.342461 (Simulation time: 0 hr 7 min 12 sec) 
Heartbeat CPU 0 instructions: 90000000 cycles: 128552013 heartbeat IPC: 0.353303 cumulative IPC: 0.345109 (Simulation time: 0 hr 8 min 31 sec) 
Heartbeat CPU 0 instructions: 100000003 cycles: 157664682 heartbeat IPC: 0.343494 cumulative IPC: 0.344785 (Simulation time: 0 hr 9 min 50 sec) 
Heartbeat CPU 0 instructions: 110000000 cycles: 188388099 heartbeat IPC: 0.325485 cumulative IPC: 0.341411 (Simulation time: 0 hr 11 min 12 sec) 
Heartbeat CPU 0 instructions: 120000000 cycles: 217185518 heartbeat IPC: 0.347254 cumulative IPC: 0.342233 (Simulation time: 0 hr 12 min 32 sec) 
Heartbeat CPU 0 instructions: 130000002 cycles: 245753297 heartbeat IPC: 0.350045 cumulative IPC: 0.343191 (Simulation time: 0 hr 13 min 51 sec) 
Heartbeat CPU 0 instructions: 140000003 cycles: 275431663 heartbeat IPC: 0.336946 cumulative IPC: 0.342486 (Simulation time: 0 hr 15 min 12 sec) 
Heartbeat CPU 0 instructions: 150000002 cycles: 306100986 heartbeat IPC: 0.326059 cumulative IPC: 0.340769 (Simulation time: 0 hr 16 min 34 sec) 
Simulation finished CPU 0 instructions: 100000001 cycles: 293454532 cumulative IPC: 0.340769 (Simulation time: 0 hr 16 min 34 sec) 

Simulation complete CPU 0 instructions: 100000001 cycles: 293454532 (Simulation time: 0 hr 16 min 34 sec) 


ChampSim completed all CPUs

Saving instructions large page distribution to /home/bsc/bsc018186/scratch/itp_asplos25_AE/dump/smt_srv537_ap_srv526_ap_1024i.pdst...
Saving data large page distribution to /home/bsc/bsc018186/scratch/itp_asplos25_AE/dump/smt_srv537_ap_srv526_ap_1024i.pdst...
=== Simulation ===
CPU 0 runs /gpfs/projects/bsc18/MN4/bsc18/romol/ChampSim/traces/qualcomm_srv/smt_srv537_ap_srv526_ap_1024i.champsimtrace.xz

Region of Interest Statistics

CPU 0 cumulative IPC: 0.340769 instructions: 100000001 cycles: 293454532
CPU 0 Branch Prediction Accuracy: 75.7102% MPKI: 43.8363 Average ROB Occupancy at Mispredict: 11.0086
Branch type MPKI
BRANCH_DIRECT_JUMP: 1.42956
BRANCH_INDIRECT: 22.5855
BRANCH_CONDITIONAL: 12.6334
BRANCH_DIRECT_CALL: 2.6387
BRANCH_INDIRECT_CALL: 0.99801
BRANCH_RETURN: 3.55119

Instructions large pages: 0
Instructions small pages: 13979
Large page distribution for instructions: 0%

Data large pages: 0
Data small pages: 12573
Large page distribution for data: 0%

cpu0_L1I TOTAL       ACCESS:   38903733  HIT:   30139396  MISS:    8764337  iACCESS:   38903733  iHIT:   30139396  iMISS:    8764337  dACCESS:          0  dHIT:          0  dMISS:          0  itACCESS:          0  itHIT:          0  itMISS:          0  dtACCESS:          0  dtHIT:          0  dtMISS:          0
cpu0_L1I LOAD         ACCESS:   11591821  HIT:    9188612  MISS:    2403209  iACCESS:   11591821  iHIT:    9188612  iMISS:    2403209  dACCESS:          0  dHIT:          0  dMISS:          0  itACCESS:          0  itHIT:          0  itMISS:          0  dtACCESS:          0  dtHIT:          0  dtMISS:          0
cpu0_L1I RFO          ACCESS:          0  HIT:          0  MISS:          0  iACCESS:          0  iHIT:          0  iMISS:          0  dACCESS:          0  dHIT:          0  dMISS:          0  itACCESS:          0  itHIT:          0  itMISS:          0  dtACCESS:          0  dtHIT:          0  dtMISS:          0
cpu0_L1I PREFETCH     ACCESS:   27311912  HIT:   20950784  MISS:    6361128  iACCESS:   27311912  iHIT:   20950784  iMISS:    6361128  dACCESS:          0  dHIT:          0  dMISS:          0  itACCESS:          0  itHIT:          0  itMISS:          0  dtACCESS:          0  dtHIT:          0  dtMISS:          0
cpu0_L1I WRITE        ACCESS:          0  HIT:          0  MISS:          0  iACCESS:          0  iHIT:          0  iMISS:          0  dACCESS:          0  dHIT:          0  dMISS:          0  itACCESS:          0  itHIT:          0  itMISS:          0  dtACCESS:          0  dtHIT:          0  dtMISS:          0
cpu0_L1I TRANSLATION  ACCESS:          0  HIT:          0  MISS:          0  iACCESS:          0  iHIT:          0  iMISS:          0  dACCESS:          0  dHIT:          0  dMISS:          0  itACCESS:          0  itHIT:          0  itMISS:          0  dtACCESS:          0  dtHIT:          0  dtMISS:          0
cpu0_L1I PREFETCH  REQUESTED:   30085010  ISSUED:   30085000  CROSSED:          0  USEFUL:    2203412  USELESS:     768392
cpu0_L1I AVERAGE iMISS LATENCY: 23.7964 cycles
cpu0_L1I AVERAGE dMISS LATENCY: 0 cycles
cpu0_L1I AVERAGE itMISS LATENCY: 0 cycles
cpu0_L1I AVERAGE dtMISS LATENCY: 0 cycles
cpu0_L1I PAGE CROSSINGS (TLB HIT):         0 
cpu0_L1I PAGE CROSSINGS (TLB MISS):         0 
cpu0_L1I AVERAGE MISS LATENCY: 23.7964 cycles
cpu0_ITLB TOTAL       ACCESS:   32965168  HIT:   30692366  MISS:    2272802  iACCESS:   32965168  iHIT:   30692366  iMISS:    2272802  dACCESS:          0  dHIT:          0  dMISS:          0  itACCESS:          0  itHIT:          0  itMISS:          0  dtACCESS:          0  dtHIT:          0  dtMISS:          0
cpu0_ITLB LOAD         ACCESS:   32965168  HIT:   30692366  MISS:    2272802  iACCESS:   32965168  iHIT:   30692366  iMISS:    2272802  dACCESS:          0  dHIT:          0  dMISS:          0  itACCESS:          0  itHIT:          0  itMISS:          0  dtACCESS:          0  dtHIT:          0  dtMISS:          0
cpu0_ITLB RFO          ACCESS:          0  HIT:          0  MISS:          0  iACCESS:          0  iHIT:          0  iMISS:          0  dACCESS:          0  dHIT:          0  dMISS:          0  itACCESS:          0  itHIT:          0  itMISS:          0  dtACCESS:          0  dtHIT:          0  dtMISS:          0
cpu0_ITLB PREFETCH     ACCESS:          0  HIT:          0  MISS:          0  iACCESS:          0  iHIT:          0  iMISS:          0  dACCESS:          0  dHIT:          0  dMISS:          0  itACCESS:          0  itHIT:          0  itMISS:          0  dtACCESS:          0  dtHIT:          0  dtMISS:          0
cpu0_ITLB WRITE        ACCESS:          0  HIT:          0  MISS:          0  iACCESS:          0  iHIT:          0  iMISS:          0  dACCESS:          0  dHIT:          0  dMISS:          0  itACCESS:          0  itHIT:          0  itMISS:          0  dtACCESS:          0  dtHIT:          0  dtMISS:          0
cpu0_ITLB TRANSLATION  ACCESS:          0  HIT:          0  MISS:          0  iACCESS:          0  iHIT:          0  iMISS:          0  dACCESS:          0  dHIT:          0  dMISS:          0  itACCESS:          0  itHIT:          0  itMISS:          0  dtACCESS:          0  dtHIT:          0  dtMISS:          0
cpu0_ITLB PREFETCH  REQUESTED:          0  ISSUED:          0  CROSSED:          0  USEFUL:     394754  USELESS:      84127
cpu0_ITLB AVERAGE iMISS LATENCY: 6.86656 cycles
cpu0_ITLB AVERAGE dMISS LATENCY: 0 cycles
cpu0_ITLB AVERAGE itMISS LATENCY: 0 cycles
cpu0_ITLB AVERAGE dtMISS LATENCY: 0 cycles
cpu0_ITLB PAGE CROSSINGS (TLB HIT):         0 
cpu0_ITLB PAGE CROSSINGS (TLB MISS):         0 
cpu0_ITLB AVERAGE MISS LATENCY: 6.86656 cycles
cpu0_DTLB TOTAL       ACCESS:   28884734  HIT:   25428794  MISS:    3455940  iACCESS:          0  iHIT:          0  iMISS:          0  dACCESS:   28884734  dHIT:   25428794  dMISS:    3455940  itACCESS:          0  itHIT:          0  itMISS:          0  dtACCESS:          0  dtHIT:          0  dtMISS:          0
cpu0_DTLB LOAD         ACCESS:   28884734  HIT:   25428794  MISS:    3455940  iACCESS:          0  iHIT:          0  iMISS:          0  dACCESS:   28884734  dHIT:   25428794  dMISS:    3455940  itACCESS:          0  itHIT:          0  itMISS:          0  dtACCESS:          0  dtHIT:          0  dtMISS:          0
cpu0_DTLB RFO          ACCESS:          0  HIT:          0  MISS:          0  iACCESS:          0  iHIT:          0  iMISS:          0  dACCESS:          0  dHIT:          0  dMISS:          0  itACCESS:          0  itHIT:          0  itMISS:          0  dtACCESS:          0  dtHIT:          0  dtMISS:          0
cpu0_DTLB PREFETCH     ACCESS:          0  HIT:          0  MISS:          0  iACCESS:          0  iHIT:          0  iMISS:          0  dACCESS:          0  dHIT:          0  dMISS:          0  itACCESS:          0  itHIT:          0  itMISS:          0  dtACCESS:          0  dtHIT:          0  dtMISS:          0
cpu0_DTLB WRITE        ACCESS:          0  HIT:          0  MISS:          0  iACCESS:          0  iHIT:          0  iMISS:          0  dACCESS:          0  dHIT:          0  dMISS:          0  itACCESS:          0  itHIT:          0  itMISS:          0  dtACCESS:          0  dtHIT:          0  dtMISS:          0
cpu0_DTLB TRANSLATION  ACCESS:          0  HIT:          0  MISS:          0  iACCESS:          0  iHIT:          0  iMISS:          0  dACCESS:          0  dHIT:          0  dMISS:          0  itACCESS:          0  itHIT:          0  itMISS:          0  dtACCESS:          0  dtHIT:          0  dtMISS:          0
cpu0_DTLB PREFETCH  REQUESTED:          0  ISSUED:          0  CROSSED:          0  USEFUL:          0  USELESS:          0
cpu0_DTLB AVERAGE iMISS LATENCY: 0 cycles
cpu0_DTLB AVERAGE dMISS LATENCY: 27.6756 cycles
cpu0_DTLB AVERAGE itMISS LATENCY: 0 cycles
cpu0_DTLB AVERAGE dtMISS LATENCY: 0 cycles
cpu0_DTLB PAGE CROSSINGS (TLB HIT):         0 
cpu0_DTLB PAGE CROSSINGS (TLB MISS):         0 
cpu0_DTLB AVERAGE MISS LATENCY: 27.6756 cycles
cpu0_STLB TOTAL       ACCESS:    2434208  HIT:    2066945  MISS:     367263  iACCESS:     478888  iHIT:     415578  iMISS:      63310  dACCESS:    1955320  dHIT:    1651367  dMISS:     303953  itACCESS:          0  itHIT:          0  itMISS:          0  dtACCESS:          0  dtHIT:          0  dtMISS:          0
cpu0_STLB LOAD         ACCESS:    2434208  HIT:    2066945  MISS:     367263  iACCESS:     478888  iHIT:     415578  iMISS:      63310  dACCESS:    1955320  dHIT:    1651367  dMISS:     303953  itACCESS:          0  itHIT:          0  itMISS:          0  dtACCESS:          0  dtHIT:          0  dtMISS:          0
cpu0_STLB RFO          ACCESS:          0  HIT:          0  MISS:          0  iACCESS:          0  iHIT:          0  iMISS:          0  dACCESS:          0  dHIT:          0  dMISS:          0  itACCESS:          0  itHIT:          0  itMISS:          0  dtACCESS:          0  dtHIT:          0  dtMISS:          0
cpu0_STLB PREFETCH     ACCESS:          0  HIT:          0  MISS:          0  iACCESS:          0  iHIT:          0  iMISS:          0  dACCESS:          0  dHIT:          0  dMISS:          0  itACCESS:          0  itHIT:          0  itMISS:          0  dtACCESS:          0  dtHIT:          0  dtMISS:          0
cpu0_STLB WRITE        ACCESS:          0  HIT:          0  MISS:          0  iACCESS:          0  iHIT:          0  iMISS:          0  dACCESS:          0  dHIT:          0  dMISS:          0  itACCESS:          0  itHIT:          0  itMISS:          0  dtACCESS:          0  dtHIT:          0  dtMISS:          0
cpu0_STLB TRANSLATION  ACCESS:          0  HIT:          0  MISS:          0  iACCESS:          0  iHIT:          0  iMISS:          0  dACCESS:          0  dHIT:          0  dMISS:          0  itACCESS:          0  itHIT:          0  itMISS:          0  dtACCESS:          0  dtHIT:          0  dtMISS:          0
cpu0_STLB PREFETCH  REQUESTED:          0  ISSUED:          0  CROSSED:          0  USEFUL:          0  USELESS:          0
cpu0_STLB AVERAGE iMISS LATENCY: 32.2262 cycles
cpu0_STLB AVERAGE dMISS LATENCY: 217.481 cycles
cpu0_STLB AVERAGE itMISS LATENCY: 0 cycles
cpu0_STLB AVERAGE dtMISS LATENCY: 0 cycles
cpu0_STLB PAGE CROSSINGS (TLB HIT):         0 
cpu0_STLB PAGE CROSSINGS (TLB MISS):         0 
cpu0_STLB AVERAGE MISS LATENCY: 249.707 cycles
cpu0_L1D TOTAL       ACCESS:   44635507  HIT:   39241405  MISS:    5394102  iACCESS:          0  iHIT:          0  iMISS:          0  dACCESS:   44064907  dHIT:   39211239  dMISS:    4853668  itACCESS:      74376  itHIT:       6302  itMISS:      68074  dtACCESS:     496224  dtHIT:      23864  dtMISS:     472360
cpu0_L1D LOAD         ACCESS:   20054320  HIT:   17890788  MISS:    2163532  iACCESS:          0  iHIT:          0  iMISS:          0  dACCESS:   20054320  dHIT:   17890788  dMISS:    2163532  itACCESS:          0  itHIT:          0  itMISS:          0  dtACCESS:          0  dtHIT:          0  dtMISS:          0
cpu0_L1D RFO          ACCESS:          0  HIT:          0  MISS:          0  iACCESS:          0  iHIT:          0  iMISS:          0  dACCESS:          0  dHIT:          0  dMISS:          0  itACCESS:          0  itHIT:          0  itMISS:          0  dtACCESS:          0  dtHIT:          0  dtMISS:          0
cpu0_L1D PREFETCH     ACCESS:   13755847  HIT:   11638422  MISS:    2117425  iACCESS:          0  iHIT:          0  iMISS:          0  dACCESS:   13755847  dHIT:   11638422  dMISS:    2117425  itACCESS:          0  itHIT:          0  itMISS:          0  dtACCESS:          0  dtHIT:          0  dtMISS:          0
cpu0_L1D WRITE        ACCESS:   10254740  HIT:    9682029  MISS:     572711  iACCESS:          0  iHIT:          0  iMISS:          0  dACCESS:   10254740  dHIT:    9682029  dMISS:     572711  itACCESS:          0  itHIT:          0  itMISS:          0  dtACCESS:          0  dtHIT:          0  dtMISS:          0
cpu0_L1D TRANSLATION  ACCESS:     570600  HIT:      30166  MISS:     540434  iACCESS:          0  iHIT:          0  iMISS:          0  dACCESS:          0  dHIT:          0  dMISS:          0  itACCESS:      74376  itHIT:       6302  itMISS:      68074  dtACCESS:     496224  dtHIT:      23864  dtMISS:     472360
cpu0_L1D PREFETCH  REQUESTED:   20054320  ISSUED:   18366078  CROSSED:          0  USEFUL:     365983  USELESS:     918798
cpu0_L1D AVERAGE iMISS LATENCY: 0 cycles
cpu0_L1D AVERAGE dMISS LATENCY: 51.1928 cycles
cpu0_L1D AVERAGE itMISS LATENCY: 2.07372 cycles
cpu0_L1D AVERAGE dtMISS LATENCY: 13.6615 cycles
cpu0_L1D PAGE CROSSINGS (TLB HIT):         0 
cpu0_L1D PAGE CROSSINGS (TLB MISS):         0 
cpu0_L1D AVERAGE MISS LATENCY: 66.9279 cycles
cpu0_L2C TOTAL       ACCESS:    8588104  HIT:    3933356  MISS:    4654748  iACCESS:    3790194  iHIT:    2192513  iMISS:    1597681  dACCESS:    4290811  dHIT:    1665018  dMISS:    2625793  itACCESS:      67980  itHIT:       9928  itMISS:      58052  dtACCESS:     439119  dtHIT:      65897  dtMISS:     373222
cpu0_L2C LOAD         ACCESS:    2058981  HIT:     935626  MISS:    1123355  iACCESS:     853894  iHIT:     512477  iMISS:     341417  dACCESS:    1205087  dHIT:     423149  dMISS:     781938  itACCESS:          0  itHIT:          0  itMISS:          0  dtACCESS:          0  dtHIT:          0  dtMISS:          0
cpu0_L2C RFO          ACCESS:     219478  HIT:      75668  MISS:     143810  iACCESS:          0  iHIT:          0  iMISS:          0  dACCESS:     219478  dHIT:      75668  dMISS:     143810  itACCESS:          0  itHIT:          0  itMISS:          0  dtACCESS:          0  dtHIT:          0  dtMISS:          0
cpu0_L2C PREFETCH     ACCESS:    5454327  HIT:    2530364  MISS:    2923963  iACCESS:    2936300  iHIT:    1680036  iMISS:    1256264  dACCESS:    2518027  dHIT:     850328  dMISS:    1667699  itACCESS:          0  itHIT:          0  itMISS:          0  dtACCESS:          0  dtHIT:          0  dtMISS:          0
cpu0_L2C WRITE        ACCESS:     348219  HIT:     315873  MISS:      32346  iACCESS:          0  iHIT:          0  iMISS:          0  dACCESS:     348219  dHIT:     315873  dMISS:      32346  itACCESS:          0  itHIT:          0  itMISS:          0  dtACCESS:          0  dtHIT:          0  dtMISS:          0
cpu0_L2C TRANSLATION  ACCESS:     507099  HIT:      75825  MISS:     431274  iACCESS:          0  iHIT:          0  iMISS:          0  dACCESS:          0  dHIT:          0  dMISS:          0  itACCESS:      67980  itHIT:       9928  itMISS:      58052  dtACCESS:     439119  dtHIT:      65897  dtMISS:     373222
cpu0_L2C PREFETCH  REQUESTED:    1466251  ISSUED:    1466250  CROSSED:          0  USEFUL:     348899  USELESS:     333507
cpu0_L2C AVERAGE iMISS LATENCY: 37.9392 cycles
cpu0_L2C AVERAGE dMISS LATENCY: 73.5247 cycles
cpu0_L2C AVERAGE itMISS LATENCY: 2.25878 cycles
cpu0_L2C AVERAGE dtMISS LATENCY: 14.8964 cycles
cpu0_L2C PAGE CROSSINGS (TLB HIT):         0 
cpu0_L2C PAGE CROSSINGS (TLB MISS):         0 
cpu0_L2C AVERAGE MISS LATENCY: 128.619 cycles
LLC TOTAL       ACCESS:    4632709  HIT:    1633606  MISS:    2999103  iACCESS:    1507897  iHIT:     576573  iMISS:     931324  dACCESS:    2693538  dHIT:    1000865  dMISS:    1692673  itACCESS:      58052  itHIT:       5409  itMISS:      52643  dtACCESS:     373222  dtHIT:      50759  dtMISS:     322463
LLC LOAD         ACCESS:    1117800  HIT:     428607  MISS:     689193  iACCESS:     340145  iHIT:     142809  iMISS:     197336  dACCESS:     777655  dHIT:     285798  dMISS:     491857  itACCESS:          0  itHIT:          0  itMISS:          0  dtACCESS:          0  dtHIT:          0  dtMISS:          0
LLC RFO          ACCESS:     143793  HIT:      48729  MISS:      95064  iACCESS:          0  iHIT:          0  iMISS:          0  dACCESS:     143793  dHIT:      48729  dMISS:      95064  itACCESS:          0  itHIT:          0  itMISS:          0  dtACCESS:          0  dtHIT:          0  dtMISS:          0
LLC PREFETCH     ACCESS:    2718835  HIT:     888319  MISS:    1830516  iACCESS:    1167752  iHIT:     433764  iMISS:     733988  dACCESS:    1551083  dHIT:     454555  dMISS:    1096528  itACCESS:          0  itHIT:          0  itMISS:          0  dtACCESS:          0  dtHIT:          0  dtMISS:          0
LLC WRITE        ACCESS:     221007  HIT:     211783  MISS:       9224  iACCESS:          0  iHIT:          0  iMISS:          0  dACCESS:     221007  dHIT:     211783  dMISS:       9224  itACCESS:          0  itHIT:          0  itMISS:          0  dtACCESS:          0  dtHIT:          0  dtMISS:          0
LLC TRANSLATION  ACCESS:     431274  HIT:      56168  MISS:     375106  iACCESS:          0  iHIT:          0  iMISS:          0  dACCESS:          0  dHIT:          0  dMISS:          0  itACCESS:      58052  itHIT:       5409  itMISS:      52643  dtACCESS:     373222  dtHIT:      50759  dtMISS:     322463
LLC PREFETCH  REQUESTED:          0  ISSUED:          0  CROSSED:          0  USEFUL:          0  USELESS:          0
LLC AVERAGE iMISS LATENCY: 49.0122 cycles
LLC AVERAGE dMISS LATENCY: 98.4728 cycles
LLC AVERAGE itMISS LATENCY: 3.12217 cycles
LLC AVERAGE dtMISS LATENCY: 20.6618 cycles
LLC PAGE CROSSINGS (TLB HIT):         0 
LLC PAGE CROSSINGS (TLB MISS):         0 
LLC AVERAGE MISS LATENCY: 171.269 cycles

PageTableWalker TOTAL       ACCESS:     128386  
PageTableWalker AVERAGE LATENCY: 6.61609 cycles
PageTableWalker TOTAL LATENCY: 849413 cycles

DRAM Statistics
Channel 0
 RQ ROW_BUFFER_HIT:     655838
  ROW_BUFFER_MISS:    2323790
 AVG DBUS CONGESTED CYCLE:    3.64984
 WQ ROW_BUFFER_HIT:      65527
  ROW_BUFFER_MISS:      57346  FULL:          0

