last_page:0x200000000000000
VMEM_RES_CAP:0x100000
PAGE_SIZE:4096
LOG2_PAGE_SIZE:12
LOG2_PAGE_TABLE_SIZE:9
page_table_levels:5
WARNING: physical memory size is smaller than virtual memory size
FDiP enabled with aggresivity 16

*** ChampSim Multicore Out-of-Order Simulator ***

Warmup Instructions: 50000000
Simulation Instructions: 100000000
Number of CPUs: 1
Small page size: 4096
Large page size: 2097152

CPU 0 Bimodal branch predictor
Basic BTB sets: 1024 ways: 8 indirect buffer size: 4096 RAS size: 64
Instruction page size distrubution: 0
Loading instruction page size distribution from /home/bsc/bsc018186/scratch/itp_asplos25_AE/dump/smt_srv207_ap_srv180_ap_1024i.pdst
Data page size distrubution: 0
Loading data page size distribution from /home/bsc/bsc018186/scratch/itp_asplos25_AE/dump/smt_srv207_ap_srv180_ap_1024i.pdst
cpu0_L2C IP-based stride prefetcher
cpu0_L2C is using xPTP/LRU
	TLB_LOWER_STRESS_THRESHOLD:1
	TLB_UPPER_STRESS_THRESHOLD:4
	MIN_EVICTION_POSITION:4
cpu0_L1D next line prefetcher
cpu0_STLB using iTP with max lru@8
cpu0_STLB using iTP with instr@0 and data@2
Init sat counter with 3 bits (max:50).
cpu0_L1I next line prefetcher
Off-chip DRAM Size: 4 GiB Channels: 1 Width: 64-bit Data Rate: 3200 MT/s
Heartbeat CPU 0 instructions: 10000000 cycles: 2500384 heartbeat IPC: 3.99939 cumulative IPC: 3.99939 (Simulation time: 0 hr 0 min 37 sec) 
Heartbeat CPU 0 instructions: 20000002 cycles: 5000576 heartbeat IPC: 3.9997 cumulative IPC: 3.99954 (Simulation time: 0 hr 1 min 16 sec) 
Heartbeat CPU 0 instructions: 30000003 cycles: 7500723 heartbeat IPC: 3.99977 cumulative IPC: 3.99962 (Simulation time: 0 hr 1 min 55 sec) 
Heartbeat CPU 0 instructions: 40000003 cycles: 10000960 heartbeat IPC: 3.99963 cumulative IPC: 3.99962 (Simulation time: 0 hr 2 min 35 sec) 
Heartbeat CPU 0 instructions: 50000002 cycles: 12501170 heartbeat IPC: 3.99967 cumulative IPC: 3.99963 (Simulation time: 0 hr 3 min 15 sec) 
Warmup finished CPU 0 instructions: 50000002 cycles: 12501171 cumulative IPC: 3.99963 (Simulation time: 0 hr 3 min 15 sec) 

Warmup complete CPU 0 instructions: 50000002 cycles: 12501171 (Simulation time: 0 hr 3 min 15 sec) 

Heartbeat CPU 0 instructions: 60000001 cycles: 38990447 heartbeat IPC: 0.377512 cumulative IPC: 0.377512 (Simulation time: 0 hr 4 min 33 sec) 
Heartbeat CPU 0 instructions: 70000001 cycles: 64720784 heartbeat IPC: 0.388647 cumulative IPC: 0.382998 (Simulation time: 0 hr 5 min 51 sec) 
Heartbeat CPU 0 instructions: 80000000 cycles: 92346693 heartbeat IPC: 0.36198 cumulative IPC: 0.375726 (Simulation time: 0 hr 7 min 12 sec) 
Heartbeat CPU 0 instructions: 90000000 cycles: 119535746 heartbeat IPC: 0.367796 cumulative IPC: 0.373711 (Simulation time: 0 hr 8 min 31 sec) 
Heartbeat CPU 0 instructions: 100000003 cycles: 145902002 heartbeat IPC: 0.379273 cumulative IPC: 0.374811 (Simulation time: 0 hr 9 min 50 sec) 
Heartbeat CPU 0 instructions: 110000000 cycles: 172305871 heartbeat IPC: 0.378733 cumulative IPC: 0.375459 (Simulation time: 0 hr 11 min 9 sec) 
Heartbeat CPU 0 instructions: 120000000 cycles: 198850627 heartbeat IPC: 0.376723 cumulative IPC: 0.375639 (Simulation time: 0 hr 12 min 28 sec) 
Heartbeat CPU 0 instructions: 130000000 cycles: 224129811 heartbeat IPC: 0.395583 cumulative IPC: 0.378021 (Simulation time: 0 hr 13 min 45 sec) 
Heartbeat CPU 0 instructions: 140000002 cycles: 252052570 heartbeat IPC: 0.358131 cumulative IPC: 0.375703 (Simulation time: 0 hr 15 min 6 sec) 
Heartbeat CPU 0 instructions: 150000000 cycles: 278112051 heartbeat IPC: 0.383738 cumulative IPC: 0.376491 (Simulation time: 0 hr 16 min 24 sec) 
Simulation finished CPU 0 instructions: 100000003 cycles: 265610882 cumulative IPC: 0.376491 (Simulation time: 0 hr 16 min 24 sec) 

Simulation complete CPU 0 instructions: 100000003 cycles: 265610882 (Simulation time: 0 hr 16 min 24 sec) 


ChampSim completed all CPUs

Saving instructions large page distribution to /home/bsc/bsc018186/scratch/itp_asplos25_AE/dump/smt_srv207_ap_srv180_ap_1024i.pdst...
Saving data large page distribution to /home/bsc/bsc018186/scratch/itp_asplos25_AE/dump/smt_srv207_ap_srv180_ap_1024i.pdst...
=== Simulation ===
CPU 0 runs /gpfs/projects/bsc18/MN4/bsc18/romol/ChampSim/traces/qualcomm_srv/smt_srv207_ap_srv180_ap_1024i.champsimtrace.xz

Region of Interest Statistics

CPU 0 cumulative IPC: 0.376491 instructions: 100000003 cycles: 265610882
CPU 0 Branch Prediction Accuracy: 75.4138% MPKI: 44.1444 Average ROB Occupancy at Mispredict: 11.3094
Branch type MPKI
BRANCH_DIRECT_JUMP: 1.34859
BRANCH_INDIRECT: 23.3502
BRANCH_CONDITIONAL: 12.479
BRANCH_DIRECT_CALL: 2.53398
BRANCH_INDIRECT_CALL: 0.93986
BRANCH_RETURN: 3.49285

Instructions large pages: 0
Instructions small pages: 14868
Large page distribution for instructions: 0%

Data large pages: 0
Data small pages: 13491
Large page distribution for data: 0%

cpu0_L1I TOTAL       ACCESS:   39083143  HIT:   30142807  MISS:    8940336  iACCESS:   39083143  iHIT:   30142807  iMISS:    8940336  dACCESS:          0  dHIT:          0  dMISS:          0  itACCESS:          0  itHIT:          0  itMISS:          0  dtACCESS:          0  dtHIT:          0  dtMISS:          0
cpu0_L1I LOAD         ACCESS:   11632362  HIT:    9191907  MISS:    2440455  iACCESS:   11632362  iHIT:    9191907  iMISS:    2440455  dACCESS:          0  dHIT:          0  dMISS:          0  itACCESS:          0  itHIT:          0  itMISS:          0  dtACCESS:          0  dtHIT:          0  dtMISS:          0
cpu0_L1I RFO          ACCESS:          0  HIT:          0  MISS:          0  iACCESS:          0  iHIT:          0  iMISS:          0  dACCESS:          0  dHIT:          0  dMISS:          0  itACCESS:          0  itHIT:          0  itMISS:          0  dtACCESS:          0  dtHIT:          0  dtMISS:          0
cpu0_L1I PREFETCH     ACCESS:   27450781  HIT:   20950900  MISS:    6499881  iACCESS:   27450781  iHIT:   20950900  iMISS:    6499881  dACCESS:          0  dHIT:          0  dMISS:          0  itACCESS:          0  itHIT:          0  itMISS:          0  dtACCESS:          0  dtHIT:          0  dtMISS:          0
cpu0_L1I WRITE        ACCESS:          0  HIT:          0  MISS:          0  iACCESS:          0  iHIT:          0  iMISS:          0  dACCESS:          0  dHIT:          0  dMISS:          0  itACCESS:          0  itHIT:          0  itMISS:          0  dtACCESS:          0  dtHIT:          0  dtMISS:          0
cpu0_L1I TRANSLATION  ACCESS:          0  HIT:          0  MISS:          0  iACCESS:          0  iHIT:          0  iMISS:          0  dACCESS:          0  dHIT:          0  dMISS:          0  itACCESS:          0  itHIT:          0  itMISS:          0  dtACCESS:          0  dtHIT:          0  dtMISS:          0
cpu0_L1I PREFETCH  REQUESTED:   30148344  ISSUED:   30148105  CROSSED:          0  USEFUL:    2195929  USELESS:     774830
cpu0_L1I AVERAGE iMISS LATENCY: 22.0209 cycles
cpu0_L1I AVERAGE dMISS LATENCY: 0 cycles
cpu0_L1I AVERAGE itMISS LATENCY: 0 cycles
cpu0_L1I AVERAGE dtMISS LATENCY: 0 cycles
cpu0_L1I PAGE CROSSINGS (TLB HIT):         0 
cpu0_L1I PAGE CROSSINGS (TLB MISS):         0 
cpu0_L1I AVERAGE MISS LATENCY: 22.0209 cycles
cpu0_ITLB TOTAL       ACCESS:   32980470  HIT:   30764718  MISS:    2215752  iACCESS:   32980470  iHIT:   30764718  iMISS:    2215752  dACCESS:          0  dHIT:          0  dMISS:          0  itACCESS:          0  itHIT:          0  itMISS:          0  dtACCESS:          0  dtHIT:          0  dtMISS:          0
cpu0_ITLB LOAD         ACCESS:   32980470  HIT:   30764718  MISS:    2215752  iACCESS:   32980470  iHIT:   30764718  iMISS:    2215752  dACCESS:          0  dHIT:          0  dMISS:          0  itACCESS:          0  itHIT:          0  itMISS:          0  dtACCESS:          0  dtHIT:          0  dtMISS:          0
cpu0_ITLB RFO          ACCESS:          0  HIT:          0  MISS:          0  iACCESS:          0  iHIT:          0  iMISS:          0  dACCESS:          0  dHIT:          0  dMISS:          0  itACCESS:          0  itHIT:          0  itMISS:          0  dtACCESS:          0  dtHIT:          0  dtMISS:          0
cpu0_ITLB PREFETCH     ACCESS:          0  HIT:          0  MISS:          0  iACCESS:          0  iHIT:          0  iMISS:          0  dACCESS:          0  dHIT:          0  dMISS:          0  itACCESS:          0  itHIT:          0  itMISS:          0  dtACCESS:          0  dtHIT:          0  dtMISS:          0
cpu0_ITLB WRITE        ACCESS:          0  HIT:          0  MISS:          0  iACCESS:          0  iHIT:          0  iMISS:          0  dACCESS:          0  dHIT:          0  dMISS:          0  itACCESS:          0  itHIT:          0  itMISS:          0  dtACCESS:          0  dtHIT:          0  dtMISS:          0
cpu0_ITLB TRANSLATION  ACCESS:          0  HIT:          0  MISS:          0  iACCESS:          0  iHIT:          0  iMISS:          0  dACCESS:          0  dHIT:          0  dMISS:          0  itACCESS:          0  itHIT:          0  itMISS:          0  dtACCESS:          0  dtHIT:          0  dtMISS:          0
cpu0_ITLB PREFETCH  REQUESTED:          0  ISSUED:          0  CROSSED:          0  USEFUL:     391095  USELESS:      80027
cpu0_ITLB AVERAGE iMISS LATENCY: 5.49903 cycles
cpu0_ITLB AVERAGE dMISS LATENCY: 0 cycles
cpu0_ITLB AVERAGE itMISS LATENCY: 0 cycles
cpu0_ITLB AVERAGE dtMISS LATENCY: 0 cycles
cpu0_ITLB PAGE CROSSINGS (TLB HIT):         0 
cpu0_ITLB PAGE CROSSINGS (TLB MISS):         0 
cpu0_ITLB AVERAGE MISS LATENCY: 5.49903 cycles
cpu0_DTLB TOTAL       ACCESS:   29117808  HIT:   25518140  MISS:    3599668  iACCESS:          0  iHIT:          0  iMISS:          0  dACCESS:   29117808  dHIT:   25518140  dMISS:    3599668  itACCESS:          0  itHIT:          0  itMISS:          0  dtACCESS:          0  dtHIT:          0  dtMISS:          0
cpu0_DTLB LOAD         ACCESS:   29117808  HIT:   25518140  MISS:    3599668  iACCESS:          0  iHIT:          0  iMISS:          0  dACCESS:   29117808  dHIT:   25518140  dMISS:    3599668  itACCESS:          0  itHIT:          0  itMISS:          0  dtACCESS:          0  dtHIT:          0  dtMISS:          0
cpu0_DTLB RFO          ACCESS:          0  HIT:          0  MISS:          0  iACCESS:          0  iHIT:          0  iMISS:          0  dACCESS:          0  dHIT:          0  dMISS:          0  itACCESS:          0  itHIT:          0  itMISS:          0  dtACCESS:          0  dtHIT:          0  dtMISS:          0
cpu0_DTLB PREFETCH     ACCESS:          0  HIT:          0  MISS:          0  iACCESS:          0  iHIT:          0  iMISS:          0  dACCESS:          0  dHIT:          0  dMISS:          0  itACCESS:          0  itHIT:          0  itMISS:          0  dtACCESS:          0  dtHIT:          0  dtMISS:          0
cpu0_DTLB WRITE        ACCESS:          0  HIT:          0  MISS:          0  iACCESS:          0  iHIT:          0  iMISS:          0  dACCESS:          0  dHIT:          0  dMISS:          0  itACCESS:          0  itHIT:          0  itMISS:          0  dtACCESS:          0  dtHIT:          0  dtMISS:          0
cpu0_DTLB TRANSLATION  ACCESS:          0  HIT:          0  MISS:          0  iACCESS:          0  iHIT:          0  iMISS:          0  dACCESS:          0  dHIT:          0  dMISS:          0  itACCESS:          0  itHIT:          0  itMISS:          0  dtACCESS:          0  dtHIT:          0  dtMISS:          0
cpu0_DTLB PREFETCH  REQUESTED:          0  ISSUED:          0  CROSSED:          0  USEFUL:          0  USELESS:          0
cpu0_DTLB AVERAGE iMISS LATENCY: 0 cycles
cpu0_DTLB AVERAGE dMISS LATENCY: 18.9447 cycles
cpu0_DTLB AVERAGE itMISS LATENCY: 0 cycles
cpu0_DTLB AVERAGE dtMISS LATENCY: 0 cycles
cpu0_DTLB PAGE CROSSINGS (TLB HIT):         0 
cpu0_DTLB PAGE CROSSINGS (TLB MISS):         0 
cpu0_DTLB AVERAGE MISS LATENCY: 18.9447 cycles
cpu0_STLB TOTAL       ACCESS:    2580834  HIT:    2211355  MISS:     369479  iACCESS:     471132  iHIT:     418745  iMISS:      52387  dACCESS:    2109702  dHIT:    1792610  dMISS:     317092  itACCESS:          0  itHIT:          0  itMISS:          0  dtACCESS:          0  dtHIT:          0  dtMISS:          0
cpu0_STLB LOAD         ACCESS:    2580834  HIT:    2211355  MISS:     369479  iACCESS:     471132  iHIT:     418745  iMISS:      52387  dACCESS:    2109702  dHIT:    1792610  dMISS:     317092  itACCESS:          0  itHIT:          0  itMISS:          0  dtACCESS:          0  dtHIT:          0  dtMISS:          0
cpu0_STLB RFO          ACCESS:          0  HIT:          0  MISS:          0  iACCESS:          0  iHIT:          0  iMISS:          0  dACCESS:          0  dHIT:          0  dMISS:          0  itACCESS:          0  itHIT:          0  itMISS:          0  dtACCESS:          0  dtHIT:          0  dtMISS:          0
cpu0_STLB PREFETCH     ACCESS:          0  HIT:          0  MISS:          0  iACCESS:          0  iHIT:          0  iMISS:          0  dACCESS:          0  dHIT:          0  dMISS:          0  itACCESS:          0  itHIT:          0  itMISS:          0  dtACCESS:          0  dtHIT:          0  dtMISS:          0
cpu0_STLB WRITE        ACCESS:          0  HIT:          0  MISS:          0  iACCESS:          0  iHIT:          0  iMISS:          0  dACCESS:          0  dHIT:          0  dMISS:          0  itACCESS:          0  itHIT:          0  itMISS:          0  dtACCESS:          0  dtHIT:          0  dtMISS:          0
cpu0_STLB TRANSLATION  ACCESS:          0  HIT:          0  MISS:          0  iACCESS:          0  iHIT:          0  iMISS:          0  dACCESS:          0  dHIT:          0  dMISS:          0  itACCESS:          0  itHIT:          0  itMISS:          0  dtACCESS:          0  dtHIT:          0  dtMISS:          0
cpu0_STLB PREFETCH  REQUESTED:          0  ISSUED:          0  CROSSED:          0  USEFUL:          0  USELESS:          0
cpu0_STLB AVERAGE iMISS LATENCY: 22.9727 cycles
cpu0_STLB AVERAGE dMISS LATENCY: 138.534 cycles
cpu0_STLB AVERAGE itMISS LATENCY: 0 cycles
cpu0_STLB AVERAGE dtMISS LATENCY: 0 cycles
cpu0_STLB PAGE CROSSINGS (TLB HIT):         0 
cpu0_STLB PAGE CROSSINGS (TLB MISS):         0 
cpu0_STLB AVERAGE MISS LATENCY: 161.507 cycles
cpu0_L1D TOTAL       ACCESS:   44964061  HIT:   39509294  MISS:    5454767  iACCESS:          0  iHIT:          0  iMISS:          0  dACCESS:   44400356  dHIT:   39479487  dMISS:    4920869  itACCESS:      63278  itHIT:       5081  itMISS:      58197  dtACCESS:     500427  dtHIT:      24726  dtMISS:     475701
cpu0_L1D LOAD         ACCESS:   20340860  HIT:   18128017  MISS:    2212843  iACCESS:          0  iHIT:          0  iMISS:          0  dACCESS:   20340860  dHIT:   18128017  dMISS:    2212843  itACCESS:          0  itHIT:          0  itMISS:          0  dtACCESS:          0  dtHIT:          0  dtMISS:          0
cpu0_L1D RFO          ACCESS:          0  HIT:          0  MISS:          0  iACCESS:          0  iHIT:          0  iMISS:          0  dACCESS:          0  dHIT:          0  dMISS:          0  itACCESS:          0  itHIT:          0  itMISS:          0  dtACCESS:          0  dtHIT:          0  dtMISS:          0
cpu0_L1D PREFETCH     ACCESS:   13951961  HIT:   11822708  MISS:    2129253  iACCESS:          0  iHIT:          0  iMISS:          0  dACCESS:   13951961  dHIT:   11822708  dMISS:    2129253  itACCESS:          0  itHIT:          0  itMISS:          0  dtACCESS:          0  dtHIT:          0  dtMISS:          0
cpu0_L1D WRITE        ACCESS:   10107535  HIT:    9528762  MISS:     578773  iACCESS:          0  iHIT:          0  iMISS:          0  dACCESS:   10107535  dHIT:    9528762  dMISS:     578773  itACCESS:          0  itHIT:          0  itMISS:          0  dtACCESS:          0  dtHIT:          0  dtMISS:          0
cpu0_L1D TRANSLATION  ACCESS:     563705  HIT:      29807  MISS:     533898  iACCESS:          0  iHIT:          0  iMISS:          0  dACCESS:          0  dHIT:          0  dMISS:          0  itACCESS:      63278  itHIT:       5081  itMISS:      58197  dtACCESS:     500427  dtHIT:      24726  dtMISS:     475701
cpu0_L1D PREFETCH  REQUESTED:   20340860  ISSUED:   18701731  CROSSED:          0  USEFUL:     378455  USELESS:     952862
cpu0_L1D AVERAGE iMISS LATENCY: 0 cycles
cpu0_L1D AVERAGE dMISS LATENCY: 49.7232 cycles
cpu0_L1D AVERAGE itMISS LATENCY: 1.45759 cycles
cpu0_L1D AVERAGE dtMISS LATENCY: 8.33981 cycles
cpu0_L1D PAGE CROSSINGS (TLB HIT):         0 
cpu0_L1D PAGE CROSSINGS (TLB MISS):         0 
cpu0_L1D AVERAGE MISS LATENCY: 59.5206 cycles
cpu0_L2C TOTAL       ACCESS:    8679796  HIT:    2466359  MISS:    6213437  iACCESS:    3777496  iHIT:    1379191  iMISS:    2398305  dACCESS:    4391937  dHIT:     856255  dMISS:    3535682  itACCESS:      57674  itHIT:      13935  itMISS:      43739  dtACCESS:     452689  dtHIT:     216978  dtMISS:     235711
cpu0_L2C LOAD         ACCESS:    2083460  HIT:     475664  MISS:    1607796  iACCESS:     841739  iHIT:     272978  iMISS:     568761  dACCESS:    1241721  dHIT:     202686  dMISS:    1039035  itACCESS:          0  itHIT:          0  itMISS:          0  dtACCESS:          0  dtHIT:          0  dtMISS:          0
cpu0_L2C RFO          ACCESS:     219259  HIT:      33150  MISS:     186109  iACCESS:          0  iHIT:          0  iMISS:          0  dACCESS:     219259  dHIT:      33150  dMISS:     186109  itACCESS:          0  itHIT:          0  itMISS:          0  dtACCESS:          0  dtHIT:          0  dtMISS:          0
cpu0_L2C PREFETCH     ACCESS:    5516688  HIT:    1598244  MISS:    3918444  iACCESS:    2935757  iHIT:    1106213  iMISS:    1829544  dACCESS:    2580931  dHIT:     492031  dMISS:    2088900  itACCESS:          0  itHIT:          0  itMISS:          0  dtACCESS:          0  dtHIT:          0  dtMISS:          0
cpu0_L2C WRITE        ACCESS:     350026  HIT:     128388  MISS:     221638  iACCESS:          0  iHIT:          0  iMISS:          0  dACCESS:     350026  dHIT:     128388  dMISS:     221638  itACCESS:          0  itHIT:          0  itMISS:          0  dtACCESS:          0  dtHIT:          0  dtMISS:          0
cpu0_L2C TRANSLATION  ACCESS:     510363  HIT:     230913  MISS:     279450  iACCESS:          0  iHIT:          0  iMISS:          0  dACCESS:          0  dHIT:          0  dMISS:          0  itACCESS:      57674  itHIT:      13935  itMISS:      43739  dtACCESS:     452689  dtHIT:     216978  dtMISS:     235711
cpu0_L2C PREFETCH  REQUESTED:    1492561  ISSUED:    1492560  CROSSED:          0  USEFUL:     377561  USELESS:     440609
cpu0_L2C AVERAGE iMISS LATENCY: 26.4595 cycles
cpu0_L2C AVERAGE dMISS LATENCY: 52.8724 cycles
cpu0_L2C AVERAGE itMISS LATENCY: 1.18878 cycles
cpu0_L2C AVERAGE dtMISS LATENCY: 6.62434 cycles
cpu0_L2C PAGE CROSSINGS (TLB HIT):         0 
cpu0_L2C PAGE CROSSINGS (TLB MISS):         0 
cpu0_L2C AVERAGE MISS LATENCY: 87.145 cycles
LLC TOTAL       ACCESS:    6076527  HIT:    3576405  MISS:    2500122  iACCESS:    2314363  iHIT:    1561550  iMISS:     752813  dACCESS:    3482714  dHIT:    1966336  dMISS:    1516378  itACCESS:      43739  itHIT:       7466  itMISS:      36273  dtACCESS:     235711  dtHIT:      41053  dtMISS:     194658
LLC LOAD         ACCESS:    1601607  HIT:     995377  MISS:     606230  iACCESS:     567481  iHIT:     409233  iMISS:     158248  dACCESS:    1034126  dHIT:     586144  dMISS:     447982  itACCESS:          0  itHIT:          0  itMISS:          0  dtACCESS:          0  dtHIT:          0  dtMISS:          0
LLC RFO          ACCESS:     186074  HIT:     100442  MISS:      85632  iACCESS:          0  iHIT:          0  iMISS:          0  dACCESS:     186074  dHIT:     100442  dMISS:      85632  itACCESS:          0  itHIT:          0  itMISS:          0  dtACCESS:          0  dtHIT:          0  dtMISS:          0
LLC PREFETCH     ACCESS:    3727814  HIT:    2154671  MISS:    1573143  iACCESS:    1746882  iHIT:    1152317  iMISS:     594565  dACCESS:    1980932  dHIT:    1002354  dMISS:     978578  itACCESS:          0  itHIT:          0  itMISS:          0  dtACCESS:          0  dtHIT:          0  dtMISS:          0
LLC WRITE        ACCESS:     281582  HIT:     277396  MISS:       4186  iACCESS:          0  iHIT:          0  iMISS:          0  dACCESS:     281582  dHIT:     277396  dMISS:       4186  itACCESS:          0  itHIT:          0  itMISS:          0  dtACCESS:          0  dtHIT:          0  dtMISS:          0
LLC TRANSLATION  ACCESS:     279450  HIT:      48519  MISS:     230931  iACCESS:          0  iHIT:          0  iMISS:          0  dACCESS:          0  dHIT:          0  dMISS:          0  itACCESS:      43739  itHIT:       7466  itMISS:      36273  dtACCESS:     235711  dtHIT:      41053  dtMISS:     194658
LLC PREFETCH  REQUESTED:          0  ISSUED:          0  CROSSED:          0  USEFUL:          0  USELESS:          0
LLC AVERAGE iMISS LATENCY: 47.7686 cycles
LLC AVERAGE dMISS LATENCY: 107.053 cycles
LLC AVERAGE itMISS LATENCY: 2.60888 cycles
LLC AVERAGE dtMISS LATENCY: 14.6013 cycles
LLC PAGE CROSSINGS (TLB HIT):         0 
LLC PAGE CROSSINGS (TLB MISS):         0 
LLC AVERAGE MISS LATENCY: 172.031 cycles

PageTableWalker TOTAL       ACCESS:     178477  
PageTableWalker AVERAGE LATENCY: 6.11898 cycles
PageTableWalker TOTAL LATENCY: 1092097 cycles

DRAM Statistics
Channel 0
 RQ ROW_BUFFER_HIT:     543685
  ROW_BUFFER_MISS:    1942662
 AVG DBUS CONGESTED CYCLE:    3.65061
 WQ ROW_BUFFER_HIT:      62811
  ROW_BUFFER_MISS:      64156  FULL:          0

