last_page:0x200000000000000
VMEM_RES_CAP:0x100000
PAGE_SIZE:4096
LOG2_PAGE_SIZE:12
LOG2_PAGE_TABLE_SIZE:9
page_table_levels:5
WARNING: physical memory size is smaller than virtual memory size
FDiP enabled with aggresivity 16

*** ChampSim Multicore Out-of-Order Simulator ***

Warmup Instructions: 50000000
Simulation Instructions: 100000000
Number of CPUs: 1
Small page size: 4096
Large page size: 2097152

CPU 0 Bimodal branch predictor
Basic BTB sets: 1024 ways: 8 indirect buffer size: 4096 RAS size: 64
Instruction page size distrubution: 0
Loading instruction page size distribution from /home/bsc/bsc018186/scratch/itp_asplos25_AE/dump/smt_srv85_ap_srv180_ap_1024i.pdst
Data page size distrubution: 0
Loading data page size distribution from /home/bsc/bsc018186/scratch/itp_asplos25_AE/dump/smt_srv85_ap_srv180_ap_1024i.pdst
cpu0_L2C IP-based stride prefetcher
cpu0_L1D next line prefetcher
cpu0_L1I next line prefetcher
Off-chip DRAM Size: 4 GiB Channels: 1 Width: 64-bit Data Rate: 3200 MT/s
Heartbeat CPU 0 instructions: 10000001 cycles: 2500746 heartbeat IPC: 3.99881 cumulative IPC: 3.99881 (Simulation time: 0 hr 0 min 40 sec) 
Heartbeat CPU 0 instructions: 20000002 cycles: 5000922 heartbeat IPC: 3.99972 cumulative IPC: 3.99927 (Simulation time: 0 hr 1 min 22 sec) 
Heartbeat CPU 0 instructions: 30000001 cycles: 7501212 heartbeat IPC: 3.99954 cumulative IPC: 3.99936 (Simulation time: 0 hr 2 min 4 sec) 
Heartbeat CPU 0 instructions: 40000000 cycles: 10001653 heartbeat IPC: 3.9993 cumulative IPC: 3.99934 (Simulation time: 0 hr 2 min 49 sec) 
Heartbeat CPU 0 instructions: 50000001 cycles: 12501955 heartbeat IPC: 3.99952 cumulative IPC: 3.99938 (Simulation time: 0 hr 3 min 35 sec) 
Warmup finished CPU 0 instructions: 50000001 cycles: 12501956 cumulative IPC: 3.99938 (Simulation time: 0 hr 3 min 35 sec) 

Warmup complete CPU 0 instructions: 50000001 cycles: 12501956 (Simulation time: 0 hr 3 min 35 sec) 

Heartbeat CPU 0 instructions: 60000004 cycles: 41920009 heartbeat IPC: 0.339928 cumulative IPC: 0.339928 (Simulation time: 0 hr 5 min 10 sec) 
Heartbeat CPU 0 instructions: 70000003 cycles: 70533079 heartbeat IPC: 0.349491 cumulative IPC: 0.344643 (Simulation time: 0 hr 6 min 39 sec) 
Heartbeat CPU 0 instructions: 80000000 cycles: 100376945 heartbeat IPC: 0.335078 cumulative IPC: 0.341395 (Simulation time: 0 hr 8 min 15 sec) 
Heartbeat CPU 0 instructions: 90000002 cycles: 129999797 heartbeat IPC: 0.337578 cumulative IPC: 0.340432 (Simulation time: 0 hr 9 min 49 sec) 
Heartbeat CPU 0 instructions: 100000000 cycles: 159469158 heartbeat IPC: 0.339336 cumulative IPC: 0.340212 (Simulation time: 0 hr 11 min 15 sec) 
Heartbeat CPU 0 instructions: 110000000 cycles: 189517906 heartbeat IPC: 0.332793 cumulative IPC: 0.338953 (Simulation time: 0 hr 12 min 45 sec) 
Heartbeat CPU 0 instructions: 120000002 cycles: 218720895 heartbeat IPC: 0.342431 cumulative IPC: 0.339446 (Simulation time: 0 hr 14 min 20 sec) 
Heartbeat CPU 0 instructions: 130000000 cycles: 246631688 heartbeat IPC: 0.358285 cumulative IPC: 0.341691 (Simulation time: 0 hr 15 min 53 sec) 
Heartbeat CPU 0 instructions: 140000004 cycles: 276108743 heartbeat IPC: 0.339248 cumulative IPC: 0.341418 (Simulation time: 0 hr 17 min 28 sec) 
Heartbeat CPU 0 instructions: 150000000 cycles: 305350853 heartbeat IPC: 0.341973 cumulative IPC: 0.341474 (Simulation time: 0 hr 19 min 3 sec) 
Simulation finished CPU 0 instructions: 100000004 cycles: 292848899 cumulative IPC: 0.341474 (Simulation time: 0 hr 19 min 3 sec) 

Simulation complete CPU 0 instructions: 100000004 cycles: 292848899 (Simulation time: 0 hr 19 min 3 sec) 


ChampSim completed all CPUs

Saving instructions large page distribution to /home/bsc/bsc018186/scratch/itp_asplos25_AE/dump/smt_srv85_ap_srv180_ap_1024i.pdst...
Saving data large page distribution to /home/bsc/bsc018186/scratch/itp_asplos25_AE/dump/smt_srv85_ap_srv180_ap_1024i.pdst...
=== Simulation ===
CPU 0 runs /gpfs/projects/bsc18/MN4/bsc18/romol/ChampSim/traces/qualcomm_srv/smt_srv85_ap_srv180_ap_1024i.champsimtrace.xz

Region of Interest Statistics

CPU 0 cumulative IPC: 0.341474 instructions: 100000004 cycles: 292848899
CPU 0 Branch Prediction Accuracy: 75.818% MPKI: 43.4496 Average ROB Occupancy at Mispredict: 11.4251
Branch type MPKI
BRANCH_DIRECT_JUMP: 1.30954
BRANCH_INDIRECT: 22.6756
BRANCH_CONDITIONAL: 12.6136
BRANCH_DIRECT_CALL: 2.49478
BRANCH_INDIRECT_CALL: 0.92066
BRANCH_RETURN: 3.43539

Instructions large pages: 0
Instructions small pages: 13336
Large page distribution for instructions: 0%

Data large pages: 0
Data small pages: 12088
Large page distribution for data: 0%

cpu0_L1I TOTAL       ACCESS:   39073266  HIT:   30390818  MISS:    8682448  iACCESS:   39073266  iHIT:   30390818  iMISS:    8682448  dACCESS:          0  dHIT:          0  dMISS:          0  itACCESS:          0  itHIT:          0  itMISS:          0  dtACCESS:          0  dtHIT:          0  dtMISS:          0
cpu0_L1I LOAD         ACCESS:   11755408  HIT:    9385982  MISS:    2369426  iACCESS:   11755408  iHIT:    9385982  iMISS:    2369426  dACCESS:          0  dHIT:          0  dMISS:          0  itACCESS:          0  itHIT:          0  itMISS:          0  dtACCESS:          0  dtHIT:          0  dtMISS:          0
cpu0_L1I RFO          ACCESS:          0  HIT:          0  MISS:          0  iACCESS:          0  iHIT:          0  iMISS:          0  dACCESS:          0  dHIT:          0  dMISS:          0  itACCESS:          0  itHIT:          0  itMISS:          0  dtACCESS:          0  dtHIT:          0  dtMISS:          0
cpu0_L1I PREFETCH     ACCESS:   27317858  HIT:   21004836  MISS:    6313022  iACCESS:   27317858  iHIT:   21004836  iMISS:    6313022  dACCESS:          0  dHIT:          0  dMISS:          0  itACCESS:          0  itHIT:          0  itMISS:          0  dtACCESS:          0  dtHIT:          0  dtMISS:          0
cpu0_L1I WRITE        ACCESS:          0  HIT:          0  MISS:          0  iACCESS:          0  iHIT:          0  iMISS:          0  dACCESS:          0  dHIT:          0  dMISS:          0  itACCESS:          0  itHIT:          0  itMISS:          0  dtACCESS:          0  dtHIT:          0  dtMISS:          0
cpu0_L1I TRANSLATION  ACCESS:          0  HIT:          0  MISS:          0  iACCESS:          0  iHIT:          0  iMISS:          0  dACCESS:          0  dHIT:          0  dMISS:          0  itACCESS:          0  itHIT:          0  itMISS:          0  dtACCESS:          0  dtHIT:          0  dtMISS:          0
cpu0_L1I PREFETCH  REQUESTED:   30192625  ISSUED:   30192618  CROSSED:          0  USEFUL:    2196134  USELESS:     753138
cpu0_L1I AVERAGE iMISS LATENCY: 23.419 cycles
cpu0_L1I AVERAGE dMISS LATENCY: 0 cycles
cpu0_L1I AVERAGE itMISS LATENCY: 0 cycles
cpu0_L1I AVERAGE dtMISS LATENCY: 0 cycles
cpu0_L1I PAGE CROSSINGS (TLB HIT):         0 
cpu0_L1I PAGE CROSSINGS (TLB MISS):         0 
cpu0_L1I AVERAGE MISS LATENCY: 23.419 cycles
cpu0_ITLB TOTAL       ACCESS:   32976631  HIT:   30773872  MISS:    2202759  iACCESS:   32976631  iHIT:   30773872  iMISS:    2202759  dACCESS:          0  dHIT:          0  dMISS:          0  itACCESS:          0  itHIT:          0  itMISS:          0  dtACCESS:          0  dtHIT:          0  dtMISS:          0
cpu0_ITLB LOAD         ACCESS:   32976631  HIT:   30773872  MISS:    2202759  iACCESS:   32976631  iHIT:   30773872  iMISS:    2202759  dACCESS:          0  dHIT:          0  dMISS:          0  itACCESS:          0  itHIT:          0  itMISS:          0  dtACCESS:          0  dtHIT:          0  dtMISS:          0
cpu0_ITLB RFO          ACCESS:          0  HIT:          0  MISS:          0  iACCESS:          0  iHIT:          0  iMISS:          0  dACCESS:          0  dHIT:          0  dMISS:          0  itACCESS:          0  itHIT:          0  itMISS:          0  dtACCESS:          0  dtHIT:          0  dtMISS:          0
cpu0_ITLB PREFETCH     ACCESS:          0  HIT:          0  MISS:          0  iACCESS:          0  iHIT:          0  iMISS:          0  dACCESS:          0  dHIT:          0  dMISS:          0  itACCESS:          0  itHIT:          0  itMISS:          0  dtACCESS:          0  dtHIT:          0  dtMISS:          0
cpu0_ITLB WRITE        ACCESS:          0  HIT:          0  MISS:          0  iACCESS:          0  iHIT:          0  iMISS:          0  dACCESS:          0  dHIT:          0  dMISS:          0  itACCESS:          0  itHIT:          0  itMISS:          0  dtACCESS:          0  dtHIT:          0  dtMISS:          0
cpu0_ITLB TRANSLATION  ACCESS:          0  HIT:          0  MISS:          0  iACCESS:          0  iHIT:          0  iMISS:          0  dACCESS:          0  dHIT:          0  dMISS:          0  itACCESS:          0  itHIT:          0  itMISS:          0  dtACCESS:          0  dtHIT:          0  dtMISS:          0
cpu0_ITLB PREFETCH  REQUESTED:          0  ISSUED:          0  CROSSED:          0  USEFUL:     383573  USELESS:      77333
cpu0_ITLB AVERAGE iMISS LATENCY: 9.96943 cycles
cpu0_ITLB AVERAGE dMISS LATENCY: 0 cycles
cpu0_ITLB AVERAGE itMISS LATENCY: 0 cycles
cpu0_ITLB AVERAGE dtMISS LATENCY: 0 cycles
cpu0_ITLB PAGE CROSSINGS (TLB HIT):         0 
cpu0_ITLB PAGE CROSSINGS (TLB MISS):         0 
cpu0_ITLB AVERAGE MISS LATENCY: 9.96943 cycles
cpu0_DTLB TOTAL       ACCESS:   28755271  HIT:   25067115  MISS:    3688156  iACCESS:          0  iHIT:          0  iMISS:          0  dACCESS:   28755271  dHIT:   25067115  dMISS:    3688156  itACCESS:          0  itHIT:          0  itMISS:          0  dtACCESS:          0  dtHIT:          0  dtMISS:          0
cpu0_DTLB LOAD         ACCESS:   28755271  HIT:   25067115  MISS:    3688156  iACCESS:          0  iHIT:          0  iMISS:          0  dACCESS:   28755271  dHIT:   25067115  dMISS:    3688156  itACCESS:          0  itHIT:          0  itMISS:          0  dtACCESS:          0  dtHIT:          0  dtMISS:          0
cpu0_DTLB RFO          ACCESS:          0  HIT:          0  MISS:          0  iACCESS:          0  iHIT:          0  iMISS:          0  dACCESS:          0  dHIT:          0  dMISS:          0  itACCESS:          0  itHIT:          0  itMISS:          0  dtACCESS:          0  dtHIT:          0  dtMISS:          0
cpu0_DTLB PREFETCH     ACCESS:          0  HIT:          0  MISS:          0  iACCESS:          0  iHIT:          0  iMISS:          0  dACCESS:          0  dHIT:          0  dMISS:          0  itACCESS:          0  itHIT:          0  itMISS:          0  dtACCESS:          0  dtHIT:          0  dtMISS:          0
cpu0_DTLB WRITE        ACCESS:          0  HIT:          0  MISS:          0  iACCESS:          0  iHIT:          0  iMISS:          0  dACCESS:          0  dHIT:          0  dMISS:          0  itACCESS:          0  itHIT:          0  itMISS:          0  dtACCESS:          0  dtHIT:          0  dtMISS:          0
cpu0_DTLB TRANSLATION  ACCESS:          0  HIT:          0  MISS:          0  iACCESS:          0  iHIT:          0  iMISS:          0  dACCESS:          0  dHIT:          0  dMISS:          0  itACCESS:          0  itHIT:          0  itMISS:          0  dtACCESS:          0  dtHIT:          0  dtMISS:          0
cpu0_DTLB PREFETCH  REQUESTED:          0  ISSUED:          0  CROSSED:          0  USEFUL:          0  USELESS:          0
cpu0_DTLB AVERAGE iMISS LATENCY: 0 cycles
cpu0_DTLB AVERAGE dMISS LATENCY: 24.5517 cycles
cpu0_DTLB AVERAGE itMISS LATENCY: 0 cycles
cpu0_DTLB AVERAGE dtMISS LATENCY: 0 cycles
cpu0_DTLB PAGE CROSSINGS (TLB HIT):         0 
cpu0_DTLB PAGE CROSSINGS (TLB MISS):         0 
cpu0_DTLB AVERAGE MISS LATENCY: 24.5517 cycles
cpu0_STLB TOTAL       ACCESS:    2608943  HIT:    2239418  MISS:     369525  iACCESS:     460912  iHIT:     352791  iMISS:     108121  dACCESS:    2148031  dHIT:    1886627  dMISS:     261404  itACCESS:          0  itHIT:          0  itMISS:          0  dtACCESS:          0  dtHIT:          0  dtMISS:          0
cpu0_STLB LOAD         ACCESS:    2608943  HIT:    2239418  MISS:     369525  iACCESS:     460912  iHIT:     352791  iMISS:     108121  dACCESS:    2148031  dHIT:    1886627  dMISS:     261404  itACCESS:          0  itHIT:          0  itMISS:          0  dtACCESS:          0  dtHIT:          0  dtMISS:          0
cpu0_STLB RFO          ACCESS:          0  HIT:          0  MISS:          0  iACCESS:          0  iHIT:          0  iMISS:          0  dACCESS:          0  dHIT:          0  dMISS:          0  itACCESS:          0  itHIT:          0  itMISS:          0  dtACCESS:          0  dtHIT:          0  dtMISS:          0
cpu0_STLB PREFETCH     ACCESS:          0  HIT:          0  MISS:          0  iACCESS:          0  iHIT:          0  iMISS:          0  dACCESS:          0  dHIT:          0  dMISS:          0  itACCESS:          0  itHIT:          0  itMISS:          0  dtACCESS:          0  dtHIT:          0  dtMISS:          0
cpu0_STLB WRITE        ACCESS:          0  HIT:          0  MISS:          0  iACCESS:          0  iHIT:          0  iMISS:          0  dACCESS:          0  dHIT:          0  dMISS:          0  itACCESS:          0  itHIT:          0  itMISS:          0  dtACCESS:          0  dtHIT:          0  dtMISS:          0
cpu0_STLB TRANSLATION  ACCESS:          0  HIT:          0  MISS:          0  iACCESS:          0  iHIT:          0  iMISS:          0  dACCESS:          0  dHIT:          0  dMISS:          0  itACCESS:          0  itHIT:          0  itMISS:          0  dtACCESS:          0  dtHIT:          0  dtMISS:          0
cpu0_STLB PREFETCH  REQUESTED:          0  ISSUED:          0  CROSSED:          0  USEFUL:          0  USELESS:          0
cpu0_STLB AVERAGE iMISS LATENCY: 49.464 cycles
cpu0_STLB AVERAGE dMISS LATENCY: 198.27 cycles
cpu0_STLB AVERAGE itMISS LATENCY: 0 cycles
cpu0_STLB AVERAGE dtMISS LATENCY: 0 cycles
cpu0_STLB PAGE CROSSINGS (TLB HIT):         0 
cpu0_STLB PAGE CROSSINGS (TLB MISS):         0 
cpu0_STLB AVERAGE MISS LATENCY: 247.734 cycles
cpu0_L1D TOTAL       ACCESS:   44339855  HIT:   39073948  MISS:    5265907  iACCESS:          0  iHIT:          0  iMISS:          0  dACCESS:   43796923  dHIT:   39039669  dMISS:    4757254  itACCESS:     122126  itHIT:      14373  itMISS:     107753  dtACCESS:     420806  dtHIT:      19906  dtMISS:     400900
cpu0_L1D LOAD         ACCESS:   19973856  HIT:   17851484  MISS:    2122372  iACCESS:          0  iHIT:          0  iMISS:          0  dACCESS:   19973856  dHIT:   17851484  dMISS:    2122372  itACCESS:          0  itHIT:          0  itMISS:          0  dtACCESS:          0  dtHIT:          0  dtMISS:          0
cpu0_L1D RFO          ACCESS:          0  HIT:          0  MISS:          0  iACCESS:          0  iHIT:          0  iMISS:          0  dACCESS:          0  dHIT:          0  dMISS:          0  itACCESS:          0  itHIT:          0  itMISS:          0  dtACCESS:          0  dtHIT:          0  dtMISS:          0
cpu0_L1D PREFETCH     ACCESS:   13687218  HIT:   11607860  MISS:    2079358  iACCESS:          0  iHIT:          0  iMISS:          0  dACCESS:   13687218  dHIT:   11607860  dMISS:    2079358  itACCESS:          0  itHIT:          0  itMISS:          0  dtACCESS:          0  dtHIT:          0  dtMISS:          0
cpu0_L1D WRITE        ACCESS:   10135849  HIT:    9580325  MISS:     555524  iACCESS:          0  iHIT:          0  iMISS:          0  dACCESS:   10135849  dHIT:    9580325  dMISS:     555524  itACCESS:          0  itHIT:          0  itMISS:          0  dtACCESS:          0  dtHIT:          0  dtMISS:          0
cpu0_L1D TRANSLATION  ACCESS:     542932  HIT:      34279  MISS:     508653  iACCESS:          0  iHIT:          0  iMISS:          0  dACCESS:          0  dHIT:          0  dMISS:          0  itACCESS:     122126  itHIT:      14373  itMISS:     107753  dtACCESS:     420806  dtHIT:      19906  dtMISS:     400900
cpu0_L1D PREFETCH  REQUESTED:   19973856  ISSUED:   18331317  CROSSED:          0  USEFUL:     357348  USELESS:     933528
cpu0_L1D AVERAGE iMISS LATENCY: 0 cycles
cpu0_L1D AVERAGE dMISS LATENCY: 51.7927 cycles
cpu0_L1D AVERAGE itMISS LATENCY: 3.28107 cycles
cpu0_L1D AVERAGE dtMISS LATENCY: 12.895 cycles
cpu0_L1D PAGE CROSSINGS (TLB HIT):         0 
cpu0_L1D PAGE CROSSINGS (TLB MISS):         0 
cpu0_L1D AVERAGE MISS LATENCY: 67.9688 cycles
cpu0_L2C TOTAL       ACCESS:    8553893  HIT:    4187860  MISS:    4366033  iACCESS:    3752976  iHIT:    2295692  iMISS:    1457284  dACCESS:    4318553  dHIT:    1833213  dMISS:    2485340  itACCESS:     106979  itHIT:      19468  itMISS:      87511  dtACCESS:     375385  dtHIT:      39487  dtMISS:     335898
cpu0_L2C LOAD         ACCESS:    2051581  HIT:    1016572  MISS:    1035009  iACCESS:     842463  iHIT:     539779  iMISS:     302684  dACCESS:    1209118  dHIT:     476793  dMISS:     732325  itACCESS:          0  itHIT:          0  itMISS:          0  dtACCESS:          0  dtHIT:          0  dtMISS:          0
cpu0_L2C RFO          ACCESS:     209741  HIT:      82797  MISS:     126944  iACCESS:          0  iHIT:          0  iMISS:          0  dACCESS:     209741  dHIT:      82797  dMISS:     126944  itACCESS:          0  itHIT:          0  itMISS:          0  dtACCESS:          0  dtHIT:          0  dtMISS:          0
cpu0_L2C PREFETCH     ACCESS:    5463293  HIT:    2686705  MISS:    2776588  iACCESS:    2910513  iHIT:    1755913  iMISS:    1154600  dACCESS:    2552780  dHIT:     930792  dMISS:    1621988  itACCESS:          0  itHIT:          0  itMISS:          0  dtACCESS:          0  dtHIT:          0  dtMISS:          0
cpu0_L2C WRITE        ACCESS:     346914  HIT:     342831  MISS:       4083  iACCESS:          0  iHIT:          0  iMISS:          0  dACCESS:     346914  dHIT:     342831  dMISS:       4083  itACCESS:          0  itHIT:          0  itMISS:          0  dtACCESS:          0  dtHIT:          0  dtMISS:          0
cpu0_L2C TRANSLATION  ACCESS:     482364  HIT:      58955  MISS:     423409  iACCESS:          0  iHIT:          0  iMISS:          0  dACCESS:          0  dHIT:          0  dMISS:          0  itACCESS:     106979  itHIT:      19468  itMISS:      87511  dtACCESS:     375385  dtHIT:      39487  dtMISS:     335898
cpu0_L2C PREFETCH  REQUESTED:    1509135  ISSUED:    1509129  CROSSED:          0  USEFUL:     359465  USELESS:     323530
cpu0_L2C AVERAGE iMISS LATENCY: 39.2504 cycles
cpu0_L2C AVERAGE dMISS LATENCY: 77.8041 cycles
cpu0_L2C AVERAGE itMISS LATENCY: 3.71605 cycles
cpu0_L2C AVERAGE dtMISS LATENCY: 14.697 cycles
cpu0_L2C PAGE CROSSINGS (TLB HIT):         0 
cpu0_L2C PAGE CROSSINGS (TLB MISS):         0 
cpu0_L2C AVERAGE MISS LATENCY: 135.468 cycles
LLC TOTAL       ACCESS:    4364912  HIT:    1390159  MISS:    2974753  iACCESS:    1364957  iHIT:     449207  iMISS:     915750  dACCESS:    2576546  dHIT:     897394  dMISS:    1679152  itACCESS:      87511  itHIT:       6483  itMISS:      81028  dtACCESS:     335898  dtHIT:      37075  dtMISS:     298823
LLC LOAD         ACCESS:    1029889  HIT:     347640  MISS:     682249  iACCESS:     301531  iHIT:     106897  iMISS:     194634  dACCESS:     728358  dHIT:     240743  dMISS:     487615  itACCESS:          0  itHIT:          0  itMISS:          0  dtACCESS:          0  dtHIT:          0  dtMISS:          0
LLC RFO          ACCESS:     126943  HIT:      40216  MISS:      86727  iACCESS:          0  iHIT:          0  iMISS:          0  dACCESS:     126943  dHIT:      40216  dMISS:      86727  itACCESS:          0  itHIT:          0  itMISS:          0  dtACCESS:          0  dtHIT:          0  dtMISS:          0
LLC PREFETCH     ACCESS:    2569992  HIT:     754727  MISS:    1815265  iACCESS:    1063426  iHIT:     342310  iMISS:     721116  dACCESS:    1506566  dHIT:     412417  dMISS:    1094149  itACCESS:          0  itHIT:          0  itMISS:          0  dtACCESS:          0  dtHIT:          0  dtMISS:          0
LLC WRITE        ACCESS:     214679  HIT:     204018  MISS:      10661  iACCESS:          0  iHIT:          0  iMISS:          0  dACCESS:     214679  dHIT:     204018  dMISS:      10661  itACCESS:          0  itHIT:          0  itMISS:          0  dtACCESS:          0  dtHIT:          0  dtMISS:          0
LLC TRANSLATION  ACCESS:     423409  HIT:      43558  MISS:     379851  iACCESS:          0  iHIT:          0  iMISS:          0  dACCESS:          0  dHIT:          0  dMISS:          0  itACCESS:      87511  itHIT:       6483  itMISS:      81028  dtACCESS:     335898  dtHIT:      37075  dtMISS:     298823
LLC PREFETCH  REQUESTED:          0  ISSUED:          0  CROSSED:          0  USEFUL:          0  USELESS:          0
LLC AVERAGE iMISS LATENCY: 48.5732 cycles
LLC AVERAGE dMISS LATENCY: 99.2232 cycles
LLC AVERAGE itMISS LATENCY: 4.87057 cycles
LLC AVERAGE dtMISS LATENCY: 19.3388 cycles
LLC PAGE CROSSINGS (TLB HIT):         0 
LLC PAGE CROSSINGS (TLB MISS):         0 
LLC AVERAGE MISS LATENCY: 172.006 cycles

PageTableWalker TOTAL       ACCESS:     184680  
PageTableWalker AVERAGE LATENCY: 6.59744 cycles
PageTableWalker TOTAL LATENCY: 1218414 cycles

DRAM Statistics
Channel 0
 RQ ROW_BUFFER_HIT:     630744
  ROW_BUFFER_MISS:    2323174
 AVG DBUS CONGESTED CYCLE:    3.64884
 WQ ROW_BUFFER_HIT:      64650
  ROW_BUFFER_MISS:      56471  FULL:          0

