last_page:0x200000000000000
VMEM_RES_CAP:0x100000
PAGE_SIZE:4096
LOG2_PAGE_SIZE:12
LOG2_PAGE_TABLE_SIZE:9
page_table_levels:5
WARNING: physical memory size is smaller than virtual memory size
FDiP enabled with aggresivity 16

*** ChampSim Multicore Out-of-Order Simulator ***

Warmup Instructions: 50000000
Simulation Instructions: 100000000
Number of CPUs: 1
Small page size: 4096
Large page size: 2097152

CPU 0 Bimodal branch predictor
Basic BTB sets: 1024 ways: 8 indirect buffer size: 4096 RAS size: 64
Instruction page size distrubution: 0
Loading instruction page size distribution from /home/bsc/bsc018186/scratch/itp_asplos25_AE/dump/smt_srv12_ap_srv697_ap_1024i.pdst
Data page size distrubution: 0
Loading data page size distribution from /home/bsc/bsc018186/scratch/itp_asplos25_AE/dump/smt_srv12_ap_srv697_ap_1024i.pdst
cpu0_L2C IP-based stride prefetcher
cpu0_L2C is using PTP replacement policy:
	TLB_STRESS_THRESHOLD:0
	PTE_EVICTION_RATIO:0
cpu0_L1D next line prefetcher
CHiRPing...
cpu0_L1I next line prefetcher
Off-chip DRAM Size: 4 GiB Channels: 1 Width: 64-bit Data Rate: 3200 MT/s
Heartbeat CPU 0 instructions: 10000000 cycles: 2500525 heartbeat IPC: 3.99917 cumulative IPC: 3.99917 (Simulation time: 0 hr 0 min 44 sec) 
Heartbeat CPU 0 instructions: 20000000 cycles: 5000790 heartbeat IPC: 3.99958 cumulative IPC: 3.99937 (Simulation time: 0 hr 1 min 30 sec) 
Heartbeat CPU 0 instructions: 30000001 cycles: 7501354 heartbeat IPC: 3.9991 cumulative IPC: 3.99928 (Simulation time: 0 hr 2 min 19 sec) 
Heartbeat CPU 0 instructions: 40000003 cycles: 10001634 heartbeat IPC: 3.99956 cumulative IPC: 3.99935 (Simulation time: 0 hr 3 min 7 sec) 
Heartbeat CPU 0 instructions: 50000000 cycles: 12502111 heartbeat IPC: 3.99924 cumulative IPC: 3.99933 (Simulation time: 0 hr 3 min 56 sec) 
Warmup finished CPU 0 instructions: 50000000 cycles: 12502112 cumulative IPC: 3.99933 (Simulation time: 0 hr 3 min 56 sec) 

Warmup complete CPU 0 instructions: 50000000 cycles: 12502112 (Simulation time: 0 hr 3 min 56 sec) 

Heartbeat CPU 0 instructions: 60000003 cycles: 43314769 heartbeat IPC: 0.324543 cumulative IPC: 0.324543 (Simulation time: 0 hr 5 min 35 sec) 
Heartbeat CPU 0 instructions: 70000002 cycles: 72074133 heartbeat IPC: 0.347713 cumulative IPC: 0.335729 (Simulation time: 0 hr 7 min 10 sec) 
Heartbeat CPU 0 instructions: 80000001 cycles: 102359215 heartbeat IPC: 0.330196 cumulative IPC: 0.333864 (Simulation time: 0 hr 8 min 48 sec) 
Heartbeat CPU 0 instructions: 90000000 cycles: 128447650 heartbeat IPC: 0.383312 cumulative IPC: 0.34499 (Simulation time: 0 hr 10 min 19 sec) 
Heartbeat CPU 0 instructions: 100000000 cycles: 157283833 heartbeat IPC: 0.346787 cumulative IPC: 0.345348 (Simulation time: 0 hr 11 min 54 sec) 
Heartbeat CPU 0 instructions: 110000002 cycles: 186410009 heartbeat IPC: 0.343334 cumulative IPC: 0.345011 (Simulation time: 0 hr 13 min 30 sec) 
Heartbeat CPU 0 instructions: 120000001 cycles: 215262203 heartbeat IPC: 0.346595 cumulative IPC: 0.345236 (Simulation time: 0 hr 15 min 7 sec) 
Heartbeat CPU 0 instructions: 130000004 cycles: 245007297 heartbeat IPC: 0.33619 cumulative IPC: 0.344079 (Simulation time: 0 hr 16 min 43 sec) 
Heartbeat CPU 0 instructions: 140000000 cycles: 273837254 heartbeat IPC: 0.346862 cumulative IPC: 0.344386 (Simulation time: 0 hr 18 min 19 sec) 
Heartbeat CPU 0 instructions: 150000002 cycles: 303858089 heartbeat IPC: 0.333103 cumulative IPC: 0.343223 (Simulation time: 0 hr 19 min 58 sec) 
Simulation finished CPU 0 instructions: 100000002 cycles: 291355978 cumulative IPC: 0.343223 (Simulation time: 0 hr 19 min 58 sec) 

Simulation complete CPU 0 instructions: 100000002 cycles: 291355978 (Simulation time: 0 hr 19 min 58 sec) 


ChampSim completed all CPUs

Saving instructions large page distribution to /home/bsc/bsc018186/scratch/itp_asplos25_AE/dump/smt_srv12_ap_srv697_ap_1024i.pdst...
Saving data large page distribution to /home/bsc/bsc018186/scratch/itp_asplos25_AE/dump/smt_srv12_ap_srv697_ap_1024i.pdst...
=== Simulation ===
CPU 0 runs /gpfs/projects/bsc18/MN4/bsc18/romol/ChampSim/traces/qualcomm_srv/smt_srv12_ap_srv697_ap_1024i.champsimtrace.xz

Region of Interest Statistics

CPU 0 cumulative IPC: 0.343223 instructions: 100000002 cycles: 291355978
CPU 0 Branch Prediction Accuracy: 75.5755% MPKI: 44.1383 Average ROB Occupancy at Mispredict: 11.1815
Branch type MPKI
BRANCH_DIRECT_JUMP: 1.35222
BRANCH_INDIRECT: 22.6827
BRANCH_CONDITIONAL: 13.0084
BRANCH_DIRECT_CALL: 2.59577
BRANCH_INDIRECT_CALL: 1.04259
BRANCH_RETURN: 3.45672

Instructions large pages: 0
Instructions small pages: 14672
Large page distribution for instructions: 0%

Data large pages: 0
Data small pages: 12955
Large page distribution for data: 0%

cpu0_L1I TOTAL       ACCESS:   38993077  HIT:   30397087  MISS:    8595990  iACCESS:   38993077  iHIT:   30397087  iMISS:    8595990  dACCESS:          0  dHIT:          0  dMISS:          0  itACCESS:          0  itHIT:          0  itMISS:          0  dtACCESS:          0  dtHIT:          0  dtMISS:          0
cpu0_L1I LOAD         ACCESS:   11651080  HIT:    9311144  MISS:    2339936  iACCESS:   11651080  iHIT:    9311144  iMISS:    2339936  dACCESS:          0  dHIT:          0  dMISS:          0  itACCESS:          0  itHIT:          0  itMISS:          0  dtACCESS:          0  dtHIT:          0  dtMISS:          0
cpu0_L1I RFO          ACCESS:          0  HIT:          0  MISS:          0  iACCESS:          0  iHIT:          0  iMISS:          0  dACCESS:          0  dHIT:          0  dMISS:          0  itACCESS:          0  itHIT:          0  itMISS:          0  dtACCESS:          0  dtHIT:          0  dtMISS:          0
cpu0_L1I PREFETCH     ACCESS:   27341997  HIT:   21085943  MISS:    6256054  iACCESS:   27341997  iHIT:   21085943  iMISS:    6256054  dACCESS:          0  dHIT:          0  dMISS:          0  itACCESS:          0  itHIT:          0  itMISS:          0  dtACCESS:          0  dtHIT:          0  dtMISS:          0
cpu0_L1I WRITE        ACCESS:          0  HIT:          0  MISS:          0  iACCESS:          0  iHIT:          0  iMISS:          0  dACCESS:          0  dHIT:          0  dMISS:          0  itACCESS:          0  itHIT:          0  itMISS:          0  dtACCESS:          0  dtHIT:          0  dtMISS:          0
cpu0_L1I TRANSLATION  ACCESS:          0  HIT:          0  MISS:          0  iACCESS:          0  iHIT:          0  iMISS:          0  dACCESS:          0  dHIT:          0  dMISS:          0  itACCESS:          0  itHIT:          0  itMISS:          0  dtACCESS:          0  dtHIT:          0  dtMISS:          0
cpu0_L1I PREFETCH  REQUESTED:   30153715  ISSUED:   30153535  CROSSED:          0  USEFUL:    2185740  USELESS:     754276
cpu0_L1I AVERAGE iMISS LATENCY: 23.8692 cycles
cpu0_L1I AVERAGE dMISS LATENCY: 0 cycles
cpu0_L1I AVERAGE itMISS LATENCY: 0 cycles
cpu0_L1I AVERAGE dtMISS LATENCY: 0 cycles
cpu0_L1I PAGE CROSSINGS (TLB HIT):         0 
cpu0_L1I PAGE CROSSINGS (TLB MISS):         0 
cpu0_L1I AVERAGE MISS LATENCY: 23.8692 cycles
cpu0_ITLB TOTAL       ACCESS:   32984608  HIT:   30794197  MISS:    2190411  iACCESS:   32984608  iHIT:   30794197  iMISS:    2190411  dACCESS:          0  dHIT:          0  dMISS:          0  itACCESS:          0  itHIT:          0  itMISS:          0  dtACCESS:          0  dtHIT:          0  dtMISS:          0
cpu0_ITLB LOAD         ACCESS:   32984608  HIT:   30794197  MISS:    2190411  iACCESS:   32984608  iHIT:   30794197  iMISS:    2190411  dACCESS:          0  dHIT:          0  dMISS:          0  itACCESS:          0  itHIT:          0  itMISS:          0  dtACCESS:          0  dtHIT:          0  dtMISS:          0
cpu0_ITLB RFO          ACCESS:          0  HIT:          0  MISS:          0  iACCESS:          0  iHIT:          0  iMISS:          0  dACCESS:          0  dHIT:          0  dMISS:          0  itACCESS:          0  itHIT:          0  itMISS:          0  dtACCESS:          0  dtHIT:          0  dtMISS:          0
cpu0_ITLB PREFETCH     ACCESS:          0  HIT:          0  MISS:          0  iACCESS:          0  iHIT:          0  iMISS:          0  dACCESS:          0  dHIT:          0  dMISS:          0  itACCESS:          0  itHIT:          0  itMISS:          0  dtACCESS:          0  dtHIT:          0  dtMISS:          0
cpu0_ITLB WRITE        ACCESS:          0  HIT:          0  MISS:          0  iACCESS:          0  iHIT:          0  iMISS:          0  dACCESS:          0  dHIT:          0  dMISS:          0  itACCESS:          0  itHIT:          0  itMISS:          0  dtACCESS:          0  dtHIT:          0  dtMISS:          0
cpu0_ITLB TRANSLATION  ACCESS:          0  HIT:          0  MISS:          0  iACCESS:          0  iHIT:          0  iMISS:          0  dACCESS:          0  dHIT:          0  dMISS:          0  itACCESS:          0  itHIT:          0  itMISS:          0  dtACCESS:          0  dtHIT:          0  dtMISS:          0
cpu0_ITLB PREFETCH  REQUESTED:          0  ISSUED:          0  CROSSED:          0  USEFUL:     385344  USELESS:      77521
cpu0_ITLB AVERAGE iMISS LATENCY: 10.2021 cycles
cpu0_ITLB AVERAGE dMISS LATENCY: 0 cycles
cpu0_ITLB AVERAGE itMISS LATENCY: 0 cycles
cpu0_ITLB AVERAGE dtMISS LATENCY: 0 cycles
cpu0_ITLB PAGE CROSSINGS (TLB HIT):         0 
cpu0_ITLB PAGE CROSSINGS (TLB MISS):         0 
cpu0_ITLB AVERAGE MISS LATENCY: 10.2021 cycles
cpu0_DTLB TOTAL       ACCESS:   28865679  HIT:   25253644  MISS:    3612035  iACCESS:          0  iHIT:          0  iMISS:          0  dACCESS:   28865679  dHIT:   25253644  dMISS:    3612035  itACCESS:          0  itHIT:          0  itMISS:          0  dtACCESS:          0  dtHIT:          0  dtMISS:          0
cpu0_DTLB LOAD         ACCESS:   28865679  HIT:   25253644  MISS:    3612035  iACCESS:          0  iHIT:          0  iMISS:          0  dACCESS:   28865679  dHIT:   25253644  dMISS:    3612035  itACCESS:          0  itHIT:          0  itMISS:          0  dtACCESS:          0  dtHIT:          0  dtMISS:          0
cpu0_DTLB RFO          ACCESS:          0  HIT:          0  MISS:          0  iACCESS:          0  iHIT:          0  iMISS:          0  dACCESS:          0  dHIT:          0  dMISS:          0  itACCESS:          0  itHIT:          0  itMISS:          0  dtACCESS:          0  dtHIT:          0  dtMISS:          0
cpu0_DTLB PREFETCH     ACCESS:          0  HIT:          0  MISS:          0  iACCESS:          0  iHIT:          0  iMISS:          0  dACCESS:          0  dHIT:          0  dMISS:          0  itACCESS:          0  itHIT:          0  itMISS:          0  dtACCESS:          0  dtHIT:          0  dtMISS:          0
cpu0_DTLB WRITE        ACCESS:          0  HIT:          0  MISS:          0  iACCESS:          0  iHIT:          0  iMISS:          0  dACCESS:          0  dHIT:          0  dMISS:          0  itACCESS:          0  itHIT:          0  itMISS:          0  dtACCESS:          0  dtHIT:          0  dtMISS:          0
cpu0_DTLB TRANSLATION  ACCESS:          0  HIT:          0  MISS:          0  iACCESS:          0  iHIT:          0  iMISS:          0  dACCESS:          0  dHIT:          0  dMISS:          0  itACCESS:          0  itHIT:          0  itMISS:          0  dtACCESS:          0  dtHIT:          0  dtMISS:          0
cpu0_DTLB PREFETCH  REQUESTED:          0  ISSUED:          0  CROSSED:          0  USEFUL:          0  USELESS:          0
cpu0_DTLB AVERAGE iMISS LATENCY: 0 cycles
cpu0_DTLB AVERAGE dMISS LATENCY: 24.2358 cycles
cpu0_DTLB AVERAGE itMISS LATENCY: 0 cycles
cpu0_DTLB AVERAGE dtMISS LATENCY: 0 cycles
cpu0_DTLB PAGE CROSSINGS (TLB HIT):         0 
cpu0_DTLB PAGE CROSSINGS (TLB MISS):         0 
cpu0_DTLB AVERAGE MISS LATENCY: 24.2358 cycles
cpu0_STLB TOTAL       ACCESS:    2566168  HIT:    2209004  MISS:     357164  iACCESS:     462871  iHIT:     353400  iMISS:     109471  dACCESS:    2103297  dHIT:    1855604  dMISS:     247693  itACCESS:          0  itHIT:          0  itMISS:          0  dtACCESS:          0  dtHIT:          0  dtMISS:          0
cpu0_STLB LOAD         ACCESS:    2566168  HIT:    2209004  MISS:     357164  iACCESS:     462871  iHIT:     353400  iMISS:     109471  dACCESS:    2103297  dHIT:    1855604  dMISS:     247693  itACCESS:          0  itHIT:          0  itMISS:          0  dtACCESS:          0  dtHIT:          0  dtMISS:          0
cpu0_STLB RFO          ACCESS:          0  HIT:          0  MISS:          0  iACCESS:          0  iHIT:          0  iMISS:          0  dACCESS:          0  dHIT:          0  dMISS:          0  itACCESS:          0  itHIT:          0  itMISS:          0  dtACCESS:          0  dtHIT:          0  dtMISS:          0
cpu0_STLB PREFETCH     ACCESS:          0  HIT:          0  MISS:          0  iACCESS:          0  iHIT:          0  iMISS:          0  dACCESS:          0  dHIT:          0  dMISS:          0  itACCESS:          0  itHIT:          0  itMISS:          0  dtACCESS:          0  dtHIT:          0  dtMISS:          0
cpu0_STLB WRITE        ACCESS:          0  HIT:          0  MISS:          0  iACCESS:          0  iHIT:          0  iMISS:          0  dACCESS:          0  dHIT:          0  dMISS:          0  itACCESS:          0  itHIT:          0  itMISS:          0  dtACCESS:          0  dtHIT:          0  dtMISS:          0
cpu0_STLB TRANSLATION  ACCESS:          0  HIT:          0  MISS:          0  iACCESS:          0  iHIT:          0  iMISS:          0  dACCESS:          0  dHIT:          0  dMISS:          0  itACCESS:          0  itHIT:          0  itMISS:          0  dtACCESS:          0  dtHIT:          0  dtMISS:          0
cpu0_STLB PREFETCH  REQUESTED:          0  ISSUED:          0  CROSSED:          0  USEFUL:          0  USELESS:          0
cpu0_STLB AVERAGE iMISS LATENCY: 52.2145 cycles
cpu0_STLB AVERAGE dMISS LATENCY: 197.725 cycles
cpu0_STLB AVERAGE itMISS LATENCY: 0 cycles
cpu0_STLB AVERAGE dtMISS LATENCY: 0 cycles
cpu0_STLB PAGE CROSSINGS (TLB HIT):         0 
cpu0_STLB PAGE CROSSINGS (TLB MISS):         0 
cpu0_STLB AVERAGE MISS LATENCY: 249.939 cycles
cpu0_L1D TOTAL       ACCESS:   44521034  HIT:   39184078  MISS:    5336956  iACCESS:          0  iHIT:          0  iMISS:          0  dACCESS:   43986642  dHIT:   39149857  dMISS:    4836785  itACCESS:     122989  itHIT:      15073  itMISS:     107916  dtACCESS:     411403  dtHIT:      19148  dtMISS:     392255
cpu0_L1D LOAD         ACCESS:   20107490  HIT:   17951458  MISS:    2156032  iACCESS:          0  iHIT:          0  iMISS:          0  dACCESS:   20107490  dHIT:   17951458  dMISS:    2156032  itACCESS:          0  itHIT:          0  itMISS:          0  dtACCESS:          0  dtHIT:          0  dtMISS:          0
cpu0_L1D RFO          ACCESS:          0  HIT:          0  MISS:          0  iACCESS:          0  iHIT:          0  iMISS:          0  dACCESS:          0  dHIT:          0  dMISS:          0  itACCESS:          0  itHIT:          0  itMISS:          0  dtACCESS:          0  dtHIT:          0  dtMISS:          0
cpu0_L1D PREFETCH     ACCESS:   13722142  HIT:   11590339  MISS:    2131803  iACCESS:          0  iHIT:          0  iMISS:          0  dACCESS:   13722142  dHIT:   11590339  dMISS:    2131803  itACCESS:          0  itHIT:          0  itMISS:          0  dtACCESS:          0  dtHIT:          0  dtMISS:          0
cpu0_L1D WRITE        ACCESS:   10157010  HIT:    9608060  MISS:     548950  iACCESS:          0  iHIT:          0  iMISS:          0  dACCESS:   10157010  dHIT:    9608060  dMISS:     548950  itACCESS:          0  itHIT:          0  itMISS:          0  dtACCESS:          0  dtHIT:          0  dtMISS:          0
cpu0_L1D TRANSLATION  ACCESS:     534392  HIT:      34221  MISS:     500171  iACCESS:          0  iHIT:          0  iMISS:          0  dACCESS:          0  dHIT:          0  dMISS:          0  itACCESS:     122989  itHIT:      15073  itMISS:     107916  dtACCESS:     411403  dtHIT:      19148  dtMISS:     392255
cpu0_L1D PREFETCH  REQUESTED:   20107490  ISSUED:   18405126  CROSSED:          0  USEFUL:     359311  USELESS:     923576
cpu0_L1D AVERAGE iMISS LATENCY: 0 cycles
cpu0_L1D AVERAGE dMISS LATENCY: 50.4416 cycles
cpu0_L1D AVERAGE itMISS LATENCY: 3.28803 cycles
cpu0_L1D AVERAGE dtMISS LATENCY: 12.2184 cycles
cpu0_L1D PAGE CROSSINGS (TLB HIT):         0 
cpu0_L1D PAGE CROSSINGS (TLB MISS):         0 
cpu0_L1D AVERAGE MISS LATENCY: 65.948 cycles
cpu0_L2C TOTAL       ACCESS:    8482131  HIT:    4166762  MISS:    4315369  iACCESS:    3736804  iHIT:    2274357  iMISS:    1462447  dACCESS:    4280220  dHIT:    1836362  dMISS:    2443858  itACCESS:     107417  itHIT:      18404  itMISS:      89013  dtACCESS:     357690  dtHIT:      37639  dtMISS:     320051
cpu0_L2C LOAD         ACCESS:    2025463  HIT:    1009051  MISS:    1016412  iACCESS:     835527  iHIT:     532840  iMISS:     302687  dACCESS:    1189936  dHIT:     476211  dMISS:     713725  itACCESS:          0  itHIT:          0  itMISS:          0  dtACCESS:          0  dtHIT:          0  dtMISS:          0
cpu0_L2C RFO          ACCESS:     208002  HIT:      80851  MISS:     127151  iACCESS:          0  iHIT:          0  iMISS:          0  dACCESS:     208002  dHIT:      80851  dMISS:     127151  itACCESS:          0  itHIT:          0  itMISS:          0  dtACCESS:          0  dtHIT:          0  dtMISS:          0
cpu0_L2C PREFETCH     ACCESS:    5443174  HIT:    2684590  MISS:    2758584  iACCESS:    2901277  iHIT:    1741517  iMISS:    1159760  dACCESS:    2541897  dHIT:     943073  dMISS:    1598824  itACCESS:          0  itHIT:          0  itMISS:          0  dtACCESS:          0  dtHIT:          0  dtMISS:          0
cpu0_L2C WRITE        ACCESS:     340385  HIT:     336227  MISS:       4158  iACCESS:          0  iHIT:          0  iMISS:          0  dACCESS:     340385  dHIT:     336227  dMISS:       4158  itACCESS:          0  itHIT:          0  itMISS:          0  dtACCESS:          0  dtHIT:          0  dtMISS:          0
cpu0_L2C TRANSLATION  ACCESS:     465107  HIT:      56043  MISS:     409064  iACCESS:          0  iHIT:          0  iMISS:          0  dACCESS:          0  dHIT:          0  dMISS:          0  itACCESS:     107417  itHIT:      18404  itMISS:      89013  dtACCESS:     357690  dtHIT:      37639  dtMISS:     320051
cpu0_L2C PREFETCH  REQUESTED:    1497781  ISSUED:    1497780  CROSSED:          0  USEFUL:     356572  USELESS:     320478
cpu0_L2C AVERAGE iMISS LATENCY: 40.1869 cycles
cpu0_L2C AVERAGE dMISS LATENCY: 77.8189 cycles
cpu0_L2C AVERAGE itMISS LATENCY: 3.82107 cycles
cpu0_L2C AVERAGE dtMISS LATENCY: 14.286 cycles
cpu0_L2C PAGE CROSSINGS (TLB HIT):         0 
cpu0_L2C PAGE CROSSINGS (TLB MISS):         0 
cpu0_L2C AVERAGE MISS LATENCY: 136.113 cycles
LLC TOTAL       ACCESS:    4315615  HIT:    1366695  MISS:    2948920  iACCESS:    1372810  iHIT:     446177  iMISS:     926633  dACCESS:    2533741  dHIT:     880172  dMISS:    1653569  itACCESS:      89013  itHIT:       6464  itMISS:      82549  dtACCESS:     320051  dtHIT:      33882  dtMISS:     286169
LLC LOAD         ACCESS:    1011937  HIT:     341058  MISS:     670879  iACCESS:     301489  iHIT:     104995  iMISS:     196494  dACCESS:     710448  dHIT:     236063  dMISS:     474385  itACCESS:          0  itHIT:          0  itMISS:          0  dtACCESS:          0  dtHIT:          0  dtMISS:          0
LLC RFO          ACCESS:     127144  HIT:      41072  MISS:      86072  iACCESS:          0  iHIT:          0  iMISS:          0  dACCESS:     127144  dHIT:      41072  dMISS:      86072  itACCESS:          0  itHIT:          0  itMISS:          0  dtACCESS:          0  dtHIT:          0  dtMISS:          0
LLC PREFETCH     ACCESS:    2559459  HIT:     746540  MISS:    1812919  iACCESS:    1071321  iHIT:     341182  iMISS:     730139  dACCESS:    1488138  dHIT:     405358  dMISS:    1082780  itACCESS:          0  itHIT:          0  itMISS:          0  dtACCESS:          0  dtHIT:          0  dtMISS:          0
LLC WRITE        ACCESS:     208011  HIT:     197679  MISS:      10332  iACCESS:          0  iHIT:          0  iMISS:          0  dACCESS:     208011  dHIT:     197679  dMISS:      10332  itACCESS:          0  itHIT:          0  itMISS:          0  dtACCESS:          0  dtHIT:          0  dtMISS:          0
LLC TRANSLATION  ACCESS:     409064  HIT:      40346  MISS:     368718  iACCESS:          0  iHIT:          0  iMISS:          0  dACCESS:          0  dHIT:          0  dMISS:          0  itACCESS:      89013  itHIT:       6464  itMISS:      82549  dtACCESS:     320051  dtHIT:      33882  dtMISS:     286169
LLC PREFETCH  REQUESTED:          0  ISSUED:          0  CROSSED:          0  USEFUL:          0  USELESS:          0
LLC AVERAGE iMISS LATENCY: 49.6372 cycles
LLC AVERAGE dMISS LATENCY: 99.0451 cycles
LLC AVERAGE itMISS LATENCY: 4.99301 cycles
LLC AVERAGE dtMISS LATENCY: 18.7604 cycles
LLC PAGE CROSSINGS (TLB HIT):         0 
LLC PAGE CROSSINGS (TLB MISS):         0 
LLC AVERAGE MISS LATENCY: 172.436 cycles

PageTableWalker TOTAL       ACCESS:     174580  
PageTableWalker AVERAGE LATENCY: 6.55846 cycles
PageTableWalker TOTAL LATENCY: 1144975 cycles

DRAM Statistics
Channel 0
 RQ ROW_BUFFER_HIT:     621082
  ROW_BUFFER_MISS:    2307465
 AVG DBUS CONGESTED CYCLE:    3.64711
 WQ ROW_BUFFER_HIT:      62718
  ROW_BUFFER_MISS:      52323  FULL:          0

