last_page:0x200000000000000
VMEM_RES_CAP:0x100000
PAGE_SIZE:4096
LOG2_PAGE_SIZE:12
LOG2_PAGE_TABLE_SIZE:9
page_table_levels:5
WARNING: physical memory size is smaller than virtual memory size
FDiP enabled with aggresivity 16

*** ChampSim Multicore Out-of-Order Simulator ***

Warmup Instructions: 50000000
Simulation Instructions: 100000000
Number of CPUs: 1
Small page size: 4096
Large page size: 2097152

CPU 0 Bimodal branch predictor
Basic BTB sets: 1024 ways: 8 indirect buffer size: 4096 RAS size: 64
Instruction page size distrubution: 0
Loading instruction page size distribution from /home/bsc/bsc018186/scratch/itp_asplos25_AE/dump/smt_srv537_ap_srv180_ap_1024i.pdst
Data page size distrubution: 0
Loading data page size distribution from /home/bsc/bsc018186/scratch/itp_asplos25_AE/dump/smt_srv537_ap_srv180_ap_1024i.pdst
cpu0_L2C IP-based stride prefetcher
cpu0_L1D next line prefetcher
cpu0_L1I next line prefetcher
Off-chip DRAM Size: 4 GiB Channels: 1 Width: 64-bit Data Rate: 3200 MT/s
Heartbeat CPU 0 instructions: 10000001 cycles: 2500609 heartbeat IPC: 3.99903 cumulative IPC: 3.99903 (Simulation time: 0 hr 0 min 41 sec) 
Heartbeat CPU 0 instructions: 20000001 cycles: 5000716 heartbeat IPC: 3.99983 cumulative IPC: 3.99943 (Simulation time: 0 hr 1 min 24 sec) 
Heartbeat CPU 0 instructions: 30000000 cycles: 7500987 heartbeat IPC: 3.99957 cumulative IPC: 3.99948 (Simulation time: 0 hr 2 min 8 sec) 
Heartbeat CPU 0 instructions: 40000001 cycles: 10001220 heartbeat IPC: 3.99963 cumulative IPC: 3.99952 (Simulation time: 0 hr 2 min 50 sec) 
Heartbeat CPU 0 instructions: 50000001 cycles: 12501410 heartbeat IPC: 3.9997 cumulative IPC: 3.99955 (Simulation time: 0 hr 3 min 34 sec) 
Warmup finished CPU 0 instructions: 50000001 cycles: 12501411 cumulative IPC: 3.99955 (Simulation time: 0 hr 3 min 34 sec) 

Warmup complete CPU 0 instructions: 50000001 cycles: 12501411 (Simulation time: 0 hr 3 min 34 sec) 

Heartbeat CPU 0 instructions: 60000001 cycles: 39437523 heartbeat IPC: 0.371249 cumulative IPC: 0.371249 (Simulation time: 0 hr 5 min 2 sec) 
Heartbeat CPU 0 instructions: 70000003 cycles: 65233330 heartbeat IPC: 0.38766 cumulative IPC: 0.379277 (Simulation time: 0 hr 6 min 26 sec) 
Heartbeat CPU 0 instructions: 80000003 cycles: 91722980 heartbeat IPC: 0.377506 cumulative IPC: 0.378685 (Simulation time: 0 hr 7 min 53 sec) 
Heartbeat CPU 0 instructions: 90000002 cycles: 117495001 heartbeat IPC: 0.388018 cumulative IPC: 0.380976 (Simulation time: 0 hr 9 min 18 sec) 
Heartbeat CPU 0 instructions: 100000003 cycles: 143479221 heartbeat IPC: 0.384849 cumulative IPC: 0.381745 (Simulation time: 0 hr 10 min 45 sec) 
Heartbeat CPU 0 instructions: 110000000 cycles: 170700518 heartbeat IPC: 0.36736 cumulative IPC: 0.379269 (Simulation time: 0 hr 12 min 14 sec) 
Heartbeat CPU 0 instructions: 120000000 cycles: 196564767 heartbeat IPC: 0.386635 cumulative IPC: 0.380304 (Simulation time: 0 hr 13 min 39 sec) 
Heartbeat CPU 0 instructions: 130000000 cycles: 221467188 heartbeat IPC: 0.401568 cumulative IPC: 0.382838 (Simulation time: 0 hr 15 min 6 sec) 
Heartbeat CPU 0 instructions: 140000003 cycles: 247959521 heartbeat IPC: 0.377468 cumulative IPC: 0.382234 (Simulation time: 0 hr 16 min 31 sec) 
Heartbeat CPU 0 instructions: 150000002 cycles: 273745139 heartbeat IPC: 0.387814 cumulative IPC: 0.382785 (Simulation time: 0 hr 17 min 51 sec) 
Simulation finished CPU 0 instructions: 100000001 cycles: 261243729 cumulative IPC: 0.382785 (Simulation time: 0 hr 17 min 51 sec) 

Simulation complete CPU 0 instructions: 100000001 cycles: 261243729 (Simulation time: 0 hr 17 min 51 sec) 


ChampSim completed all CPUs

Saving instructions large page distribution to /home/bsc/bsc018186/scratch/itp_asplos25_AE/dump/smt_srv537_ap_srv180_ap_1024i.pdst...
Saving data large page distribution to /home/bsc/bsc018186/scratch/itp_asplos25_AE/dump/smt_srv537_ap_srv180_ap_1024i.pdst...
=== Simulation ===
CPU 0 runs /gpfs/projects/bsc18/MN4/bsc18/romol/ChampSim/traces/qualcomm_srv/smt_srv537_ap_srv180_ap_1024i.champsimtrace.xz

Region of Interest Statistics

CPU 0 cumulative IPC: 0.382785 instructions: 100000001 cycles: 261243729
CPU 0 Branch Prediction Accuracy: 76.1345% MPKI: 42.9765 Average ROB Occupancy at Mispredict: 11.1026
Branch type MPKI
BRANCH_DIRECT_JUMP: 1.28044
BRANCH_INDIRECT: 22.3442
BRANCH_CONDITIONAL: 12.5476
BRANCH_DIRECT_CALL: 2.47422
BRANCH_INDIRECT_CALL: 0.92457
BRANCH_RETURN: 3.40554

Instructions large pages: 0
Instructions small pages: 13692
Large page distribution for instructions: 0%

Data large pages: 0
Data small pages: 12405
Large page distribution for data: 0%

cpu0_L1I TOTAL       ACCESS:   39456065  HIT:   30244395  MISS:    9211670  iACCESS:   39456065  iHIT:   30244395  iMISS:    9211670  dACCESS:          0  dHIT:          0  dMISS:          0  itACCESS:          0  itHIT:          0  itMISS:          0  dtACCESS:          0  dtHIT:          0  dtMISS:          0
cpu0_L1I LOAD         ACCESS:   11847991  HIT:    9338912  MISS:    2509079  iACCESS:   11847991  iHIT:    9338912  iMISS:    2509079  dACCESS:          0  dHIT:          0  dMISS:          0  itACCESS:          0  itHIT:          0  itMISS:          0  dtACCESS:          0  dtHIT:          0  dtMISS:          0
cpu0_L1I RFO          ACCESS:          0  HIT:          0  MISS:          0  iACCESS:          0  iHIT:          0  iMISS:          0  dACCESS:          0  dHIT:          0  dMISS:          0  itACCESS:          0  itHIT:          0  itMISS:          0  dtACCESS:          0  dtHIT:          0  dtMISS:          0
cpu0_L1I PREFETCH     ACCESS:   27608074  HIT:   20905483  MISS:    6702591  iACCESS:   27608074  iHIT:   20905483  iMISS:    6702591  dACCESS:          0  dHIT:          0  dMISS:          0  itACCESS:          0  itHIT:          0  itMISS:          0  dtACCESS:          0  dtHIT:          0  dtMISS:          0
cpu0_L1I WRITE        ACCESS:          0  HIT:          0  MISS:          0  iACCESS:          0  iHIT:          0  iMISS:          0  dACCESS:          0  dHIT:          0  dMISS:          0  itACCESS:          0  itHIT:          0  itMISS:          0  dtACCESS:          0  dtHIT:          0  dtMISS:          0
cpu0_L1I TRANSLATION  ACCESS:          0  HIT:          0  MISS:          0  iACCESS:          0  iHIT:          0  iMISS:          0  dACCESS:          0  dHIT:          0  dMISS:          0  itACCESS:          0  itHIT:          0  itMISS:          0  dtACCESS:          0  dtHIT:          0  dtMISS:          0
cpu0_L1I PREFETCH  REQUESTED:   30278825  ISSUED:   30277353  CROSSED:          0  USEFUL:    2201476  USELESS:     749837
cpu0_L1I AVERAGE iMISS LATENCY: 22.6156 cycles
cpu0_L1I AVERAGE dMISS LATENCY: 0 cycles
cpu0_L1I AVERAGE itMISS LATENCY: 0 cycles
cpu0_L1I AVERAGE dtMISS LATENCY: 0 cycles
cpu0_L1I PAGE CROSSINGS (TLB HIT):         0 
cpu0_L1I PAGE CROSSINGS (TLB MISS):         0 
cpu0_L1I AVERAGE MISS LATENCY: 22.6156 cycles
cpu0_ITLB TOTAL       ACCESS:   33051409  HIT:   30853014  MISS:    2198395  iACCESS:   33051409  iHIT:   30853014  iMISS:    2198395  dACCESS:          0  dHIT:          0  dMISS:          0  itACCESS:          0  itHIT:          0  itMISS:          0  dtACCESS:          0  dtHIT:          0  dtMISS:          0
cpu0_ITLB LOAD         ACCESS:   33051409  HIT:   30853014  MISS:    2198395  iACCESS:   33051409  iHIT:   30853014  iMISS:    2198395  dACCESS:          0  dHIT:          0  dMISS:          0  itACCESS:          0  itHIT:          0  itMISS:          0  dtACCESS:          0  dtHIT:          0  dtMISS:          0
cpu0_ITLB RFO          ACCESS:          0  HIT:          0  MISS:          0  iACCESS:          0  iHIT:          0  iMISS:          0  dACCESS:          0  dHIT:          0  dMISS:          0  itACCESS:          0  itHIT:          0  itMISS:          0  dtACCESS:          0  dtHIT:          0  dtMISS:          0
cpu0_ITLB PREFETCH     ACCESS:          0  HIT:          0  MISS:          0  iACCESS:          0  iHIT:          0  iMISS:          0  dACCESS:          0  dHIT:          0  dMISS:          0  itACCESS:          0  itHIT:          0  itMISS:          0  dtACCESS:          0  dtHIT:          0  dtMISS:          0
cpu0_ITLB WRITE        ACCESS:          0  HIT:          0  MISS:          0  iACCESS:          0  iHIT:          0  iMISS:          0  dACCESS:          0  dHIT:          0  dMISS:          0  itACCESS:          0  itHIT:          0  itMISS:          0  dtACCESS:          0  dtHIT:          0  dtMISS:          0
cpu0_ITLB TRANSLATION  ACCESS:          0  HIT:          0  MISS:          0  iACCESS:          0  iHIT:          0  iMISS:          0  dACCESS:          0  dHIT:          0  dMISS:          0  itACCESS:          0  itHIT:          0  itMISS:          0  dtACCESS:          0  dtHIT:          0  dtMISS:          0
cpu0_ITLB PREFETCH  REQUESTED:          0  ISSUED:          0  CROSSED:          0  USEFUL:     383565  USELESS:      77368
cpu0_ITLB AVERAGE iMISS LATENCY: 7.05127 cycles
cpu0_ITLB AVERAGE dMISS LATENCY: 0 cycles
cpu0_ITLB AVERAGE itMISS LATENCY: 0 cycles
cpu0_ITLB AVERAGE dtMISS LATENCY: 0 cycles
cpu0_ITLB PAGE CROSSINGS (TLB HIT):         0 
cpu0_ITLB PAGE CROSSINGS (TLB MISS):         0 
cpu0_ITLB AVERAGE MISS LATENCY: 7.05127 cycles
cpu0_DTLB TOTAL       ACCESS:   28756076  HIT:   25331061  MISS:    3425015  iACCESS:          0  iHIT:          0  iMISS:          0  dACCESS:   28756076  dHIT:   25331061  dMISS:    3425015  itACCESS:          0  itHIT:          0  itMISS:          0  dtACCESS:          0  dtHIT:          0  dtMISS:          0
cpu0_DTLB LOAD         ACCESS:   28756076  HIT:   25331061  MISS:    3425015  iACCESS:          0  iHIT:          0  iMISS:          0  dACCESS:   28756076  dHIT:   25331061  dMISS:    3425015  itACCESS:          0  itHIT:          0  itMISS:          0  dtACCESS:          0  dtHIT:          0  dtMISS:          0
cpu0_DTLB RFO          ACCESS:          0  HIT:          0  MISS:          0  iACCESS:          0  iHIT:          0  iMISS:          0  dACCESS:          0  dHIT:          0  dMISS:          0  itACCESS:          0  itHIT:          0  itMISS:          0  dtACCESS:          0  dtHIT:          0  dtMISS:          0
cpu0_DTLB PREFETCH     ACCESS:          0  HIT:          0  MISS:          0  iACCESS:          0  iHIT:          0  iMISS:          0  dACCESS:          0  dHIT:          0  dMISS:          0  itACCESS:          0  itHIT:          0  itMISS:          0  dtACCESS:          0  dtHIT:          0  dtMISS:          0
cpu0_DTLB WRITE        ACCESS:          0  HIT:          0  MISS:          0  iACCESS:          0  iHIT:          0  iMISS:          0  dACCESS:          0  dHIT:          0  dMISS:          0  itACCESS:          0  itHIT:          0  itMISS:          0  dtACCESS:          0  dtHIT:          0  dtMISS:          0
cpu0_DTLB TRANSLATION  ACCESS:          0  HIT:          0  MISS:          0  iACCESS:          0  iHIT:          0  iMISS:          0  dACCESS:          0  dHIT:          0  dMISS:          0  itACCESS:          0  itHIT:          0  itMISS:          0  dtACCESS:          0  dtHIT:          0  dtMISS:          0
cpu0_DTLB PREFETCH  REQUESTED:          0  ISSUED:          0  CROSSED:          0  USEFUL:          0  USELESS:          0
cpu0_DTLB AVERAGE iMISS LATENCY: 0 cycles
cpu0_DTLB AVERAGE dMISS LATENCY: 16.687 cycles
cpu0_DTLB AVERAGE itMISS LATENCY: 0 cycles
cpu0_DTLB AVERAGE dtMISS LATENCY: 0 cycles
cpu0_DTLB PAGE CROSSINGS (TLB HIT):         0 
cpu0_DTLB PAGE CROSSINGS (TLB MISS):         0 
cpu0_DTLB AVERAGE MISS LATENCY: 16.687 cycles
cpu0_STLB TOTAL       ACCESS:    2425875  HIT:    2078326  MISS:     347549  iACCESS:     460945  iHIT:     354814  iMISS:     106131  dACCESS:    1964930  dHIT:    1723512  dMISS:     241418  itACCESS:          0  itHIT:          0  itMISS:          0  dtACCESS:          0  dtHIT:          0  dtMISS:          0
cpu0_STLB LOAD         ACCESS:    2425875  HIT:    2078326  MISS:     347549  iACCESS:     460945  iHIT:     354814  iMISS:     106131  dACCESS:    1964930  dHIT:    1723512  dMISS:     241418  itACCESS:          0  itHIT:          0  itMISS:          0  dtACCESS:          0  dtHIT:          0  dtMISS:          0
cpu0_STLB RFO          ACCESS:          0  HIT:          0  MISS:          0  iACCESS:          0  iHIT:          0  iMISS:          0  dACCESS:          0  dHIT:          0  dMISS:          0  itACCESS:          0  itHIT:          0  itMISS:          0  dtACCESS:          0  dtHIT:          0  dtMISS:          0
cpu0_STLB PREFETCH     ACCESS:          0  HIT:          0  MISS:          0  iACCESS:          0  iHIT:          0  iMISS:          0  dACCESS:          0  dHIT:          0  dMISS:          0  itACCESS:          0  itHIT:          0  itMISS:          0  dtACCESS:          0  dtHIT:          0  dtMISS:          0
cpu0_STLB WRITE        ACCESS:          0  HIT:          0  MISS:          0  iACCESS:          0  iHIT:          0  iMISS:          0  dACCESS:          0  dHIT:          0  dMISS:          0  itACCESS:          0  itHIT:          0  itMISS:          0  dtACCESS:          0  dtHIT:          0  dtMISS:          0
cpu0_STLB TRANSLATION  ACCESS:          0  HIT:          0  MISS:          0  iACCESS:          0  iHIT:          0  iMISS:          0  dACCESS:          0  dHIT:          0  dMISS:          0  itACCESS:          0  itHIT:          0  itMISS:          0  dtACCESS:          0  dtHIT:          0  dtMISS:          0
cpu0_STLB PREFETCH  REQUESTED:          0  ISSUED:          0  CROSSED:          0  USEFUL:          0  USELESS:          0
cpu0_STLB AVERAGE iMISS LATENCY: 34.0274 cycles
cpu0_STLB AVERAGE dMISS LATENCY: 119.08 cycles
cpu0_STLB AVERAGE itMISS LATENCY: 0 cycles
cpu0_STLB AVERAGE dtMISS LATENCY: 0 cycles
cpu0_STLB PAGE CROSSINGS (TLB HIT):         0 
cpu0_STLB PAGE CROSSINGS (TLB MISS):         0 
cpu0_STLB AVERAGE MISS LATENCY: 153.107 cycles
cpu0_L1D TOTAL       ACCESS:   44340726  HIT:   39084783  MISS:    5255943  iACCESS:          0  iHIT:          0  iMISS:          0  dACCESS:   43827482  dHIT:   39050834  dMISS:    4776648  itACCESS:     118607  itHIT:      15532  itMISS:     103075  dtACCESS:     394637  dtHIT:      18417  dtMISS:     376220
cpu0_L1D LOAD         ACCESS:   19994368  HIT:   17857625  MISS:    2136743  iACCESS:          0  iHIT:          0  iMISS:          0  dACCESS:   19994368  dHIT:   17857625  dMISS:    2136743  itACCESS:          0  itHIT:          0  itMISS:          0  dtACCESS:          0  dtHIT:          0  dtMISS:          0
cpu0_L1D RFO          ACCESS:          0  HIT:          0  MISS:          0  iACCESS:          0  iHIT:          0  iMISS:          0  dACCESS:          0  dHIT:          0  dMISS:          0  itACCESS:          0  itHIT:          0  itMISS:          0  dtACCESS:          0  dtHIT:          0  dtMISS:          0
cpu0_L1D PREFETCH     ACCESS:   13669164  HIT:   11573524  MISS:    2095640  iACCESS:          0  iHIT:          0  iMISS:          0  dACCESS:   13669164  dHIT:   11573524  dMISS:    2095640  itACCESS:          0  itHIT:          0  itMISS:          0  dtACCESS:          0  dtHIT:          0  dtMISS:          0
cpu0_L1D WRITE        ACCESS:   10163950  HIT:    9619685  MISS:     544265  iACCESS:          0  iHIT:          0  iMISS:          0  dACCESS:   10163950  dHIT:    9619685  dMISS:     544265  itACCESS:          0  itHIT:          0  itMISS:          0  dtACCESS:          0  dtHIT:          0  dtMISS:          0
cpu0_L1D TRANSLATION  ACCESS:     513244  HIT:      33949  MISS:     479295  iACCESS:          0  iHIT:          0  iMISS:          0  dACCESS:          0  dHIT:          0  dMISS:          0  itACCESS:     118607  itHIT:      15532  itMISS:     103075  dtACCESS:     394637  dtHIT:      18417  dtMISS:     376220
cpu0_L1D PREFETCH  REQUESTED:   19994368  ISSUED:   18248202  CROSSED:          0  USEFUL:     371763  USELESS:     905285
cpu0_L1D AVERAGE iMISS LATENCY: 0 cycles
cpu0_L1D AVERAGE dMISS LATENCY: 51.0854 cycles
cpu0_L1D AVERAGE itMISS LATENCY: 2.06089 cycles
cpu0_L1D AVERAGE dtMISS LATENCY: 6.8886 cycles
cpu0_L1D PAGE CROSSINGS (TLB HIT):         0 
cpu0_L1D PAGE CROSSINGS (TLB MISS):         0 
cpu0_L1D AVERAGE MISS LATENCY: 60.0348 cycles
cpu0_L2C TOTAL       ACCESS:    8489795  HIT:    1543805  MISS:    6945990  iACCESS:    3752187  iHIT:     810712  iMISS:    2941475  dACCESS:    4285326  dHIT:     545061  dMISS:    3740265  itACCESS:     102585  itHIT:      38809  itMISS:      63776  dtACCESS:     349697  dtHIT:     149223  dtMISS:     200474
cpu0_L2C LOAD         ACCESS:    2030310  HIT:     216491  MISS:    1813819  iACCESS:     838785  iHIT:     120481  iMISS:     718304  dACCESS:    1191525  dHIT:      96010  dMISS:    1095515  itACCESS:          0  itHIT:          0  itMISS:          0  dtACCESS:          0  dtHIT:          0  dtMISS:          0
cpu0_L2C RFO          ACCESS:     208149  HIT:      28958  MISS:     179191  iACCESS:          0  iHIT:          0  iMISS:          0  dACCESS:     208149  dHIT:      28958  dMISS:     179191  itACCESS:          0  itHIT:          0  itMISS:          0  dtACCESS:          0  dtHIT:          0  dtMISS:          0
cpu0_L2C PREFETCH     ACCESS:    5452705  HIT:    1005361  MISS:    4447344  iACCESS:    2913402  iHIT:     690231  iMISS:    2223171  dACCESS:    2539303  dHIT:     315130  dMISS:    2224173  itACCESS:          0  itHIT:          0  itMISS:          0  dtACCESS:          0  dtHIT:          0  dtMISS:          0
cpu0_L2C WRITE        ACCESS:     346349  HIT:     104963  MISS:     241386  iACCESS:          0  iHIT:          0  iMISS:          0  dACCESS:     346349  dHIT:     104963  dMISS:     241386  itACCESS:          0  itHIT:          0  itMISS:          0  dtACCESS:          0  dtHIT:          0  dtMISS:          0
cpu0_L2C TRANSLATION  ACCESS:     452282  HIT:     188032  MISS:     264250  iACCESS:          0  iHIT:          0  iMISS:          0  dACCESS:          0  dHIT:          0  dMISS:          0  itACCESS:     102585  itHIT:      38809  itMISS:      63776  dtACCESS:     349697  dtHIT:     149223  dtMISS:     200474
cpu0_L2C PREFETCH  REQUESTED:    1507988  ISSUED:    1507987  CROSSED:          0  USEFUL:     415697  USELESS:     479094
cpu0_L2C AVERAGE iMISS LATENCY: 25.2375 cycles
cpu0_L2C AVERAGE dMISS LATENCY: 47.6261 cycles
cpu0_L2C AVERAGE itMISS LATENCY: 1.417 cycles
cpu0_L2C AVERAGE dtMISS LATENCY: 4.72836 cycles
cpu0_L2C PAGE CROSSINGS (TLB HIT):         0 
cpu0_L2C PAGE CROSSINGS (TLB MISS):         0 
cpu0_L2C AVERAGE MISS LATENCY: 79.009 cycles
LLC TOTAL       ACCESS:    6761105  HIT:    4263905  MISS:    2497200  iACCESS:    2848524  iHIT:    2079090  iMISS:     769434  dACCESS:    3648331  dHIT:    2121237  dMISS:    1527094  itACCESS:      63776  itHIT:      15592  itMISS:      48184  dtACCESS:     200474  dtHIT:      47986  dtMISS:     152488
LLC LOAD         ACCESS:    1808686  HIT:    1210148  MISS:     598538  iACCESS:     716969  iHIT:     556540  iMISS:     160429  dACCESS:    1091717  dHIT:     653608  dMISS:     438109  itACCESS:          0  itHIT:          0  itMISS:          0  dtACCESS:          0  dtHIT:          0  dtMISS:          0
LLC RFO          ACCESS:     179186  HIT:      93761  MISS:      85425  iACCESS:          0  iHIT:          0  iMISS:          0  dACCESS:     179186  dHIT:      93761  dMISS:      85425  itACCESS:          0  itHIT:          0  itMISS:          0  dtACCESS:          0  dtHIT:          0  dtMISS:          0
LLC PREFETCH     ACCESS:    4237816  HIT:    2633400  MISS:    1604416  iACCESS:    2131555  iHIT:    1522550  iMISS:     609005  dACCESS:    2106261  dHIT:    1110850  dMISS:     995411  itACCESS:          0  itHIT:          0  itMISS:          0  dtACCESS:          0  dtHIT:          0  dtMISS:          0
LLC WRITE        ACCESS:     271167  HIT:     263018  MISS:       8149  iACCESS:          0  iHIT:          0  iMISS:          0  dACCESS:     271167  dHIT:     263018  dMISS:       8149  itACCESS:          0  itHIT:          0  itMISS:          0  dtACCESS:          0  dtHIT:          0  dtMISS:          0
LLC TRANSLATION  ACCESS:     264250  HIT:      63578  MISS:     200672  iACCESS:          0  iHIT:          0  iMISS:          0  dACCESS:          0  dHIT:          0  dMISS:          0  itACCESS:      63776  itHIT:      15592  itMISS:      48184  dtACCESS:     200474  dtHIT:      47986  dtMISS:     152488
LLC PREFETCH  REQUESTED:          0  ISSUED:          0  CROSSED:          0  USEFUL:          0  USELESS:          0
LLC AVERAGE iMISS LATENCY: 48.0626 cycles
LLC AVERAGE dMISS LATENCY: 106.75 cycles
LLC AVERAGE itMISS LATENCY: 3.43855 cycles
LLC AVERAGE dtMISS LATENCY: 11.5713 cycles
LLC PAGE CROSSINGS (TLB HIT):         0 
LLC PAGE CROSSINGS (TLB MISS):         0 
LLC AVERAGE MISS LATENCY: 169.822 cycles

PageTableWalker TOTAL       ACCESS:     170316  
PageTableWalker AVERAGE LATENCY: 5.88465 cycles
PageTableWalker TOTAL LATENCY: 1002249 cycles

DRAM Statistics
Channel 0
 RQ ROW_BUFFER_HIT:     567534
  ROW_BUFFER_MISS:    1911803
 AVG DBUS CONGESTED CYCLE:    3.64937
 WQ ROW_BUFFER_HIT:      62753
  ROW_BUFFER_MISS:      59994  FULL:          0

