last_page:0x200000000000000
VMEM_RES_CAP:0x100000
PAGE_SIZE:4096
LOG2_PAGE_SIZE:12
LOG2_PAGE_TABLE_SIZE:9
page_table_levels:5
WARNING: physical memory size is smaller than virtual memory size
FDiP enabled with aggresivity 16

*** ChampSim Multicore Out-of-Order Simulator ***

Warmup Instructions: 50000000
Simulation Instructions: 100000000
Number of CPUs: 1
Small page size: 4096
Large page size: 2097152

CPU 0 Bimodal branch predictor
Basic BTB sets: 1024 ways: 8 indirect buffer size: 4096 RAS size: 64
Instruction page size distrubution: 0
Loading instruction page size distribution from /home/bsc/bsc018186/scratch/itp_asplos25_AE/dump/smt_srv537_ap_srv495_ap_1024i.pdst
Data page size distrubution: 0
Loading data page size distribution from /home/bsc/bsc018186/scratch/itp_asplos25_AE/dump/smt_srv537_ap_srv495_ap_1024i.pdst
cpu0_L2C IP-based stride prefetcher
cpu0_L1D next line prefetcher
CHiRPing...
cpu0_L1I next line prefetcher
Off-chip DRAM Size: 4 GiB Channels: 1 Width: 64-bit Data Rate: 3200 MT/s
Heartbeat CPU 0 instructions: 10000002 cycles: 2500817 heartbeat IPC: 3.9987 cumulative IPC: 3.9987 (Simulation time: 0 hr 0 min 40 sec) 
Heartbeat CPU 0 instructions: 20000000 cycles: 5001085 heartbeat IPC: 3.99958 cumulative IPC: 3.99914 (Simulation time: 0 hr 1 min 21 sec) 
Heartbeat CPU 0 instructions: 30000001 cycles: 7501561 heartbeat IPC: 3.99924 cumulative IPC: 3.99917 (Simulation time: 0 hr 2 min 3 sec) 
Heartbeat CPU 0 instructions: 40000000 cycles: 10001789 heartbeat IPC: 3.99964 cumulative IPC: 3.99929 (Simulation time: 0 hr 2 min 50 sec) 
Heartbeat CPU 0 instructions: 50000001 cycles: 12501941 heartbeat IPC: 3.99976 cumulative IPC: 3.99938 (Simulation time: 0 hr 3 min 39 sec) 
Warmup finished CPU 0 instructions: 50000001 cycles: 12501942 cumulative IPC: 3.99938 (Simulation time: 0 hr 3 min 39 sec) 

Warmup complete CPU 0 instructions: 50000001 cycles: 12501942 (Simulation time: 0 hr 3 min 39 sec) 

Heartbeat CPU 0 instructions: 60000001 cycles: 42597498 heartbeat IPC: 0.332275 cumulative IPC: 0.332275 (Simulation time: 0 hr 5 min 21 sec) 
Heartbeat CPU 0 instructions: 70000004 cycles: 73951653 heartbeat IPC: 0.318938 cumulative IPC: 0.32547 (Simulation time: 0 hr 7 min 3 sec) 
Heartbeat CPU 0 instructions: 80000002 cycles: 104752290 heartbeat IPC: 0.324669 cumulative IPC: 0.325203 (Simulation time: 0 hr 8 min 46 sec) 
Heartbeat CPU 0 instructions: 90000000 cycles: 134467924 heartbeat IPC: 0.336524 cumulative IPC: 0.327961 (Simulation time: 0 hr 10 min 26 sec) 
Heartbeat CPU 0 instructions: 100000003 cycles: 164320147 heartbeat IPC: 0.334984 cumulative IPC: 0.329342 (Simulation time: 0 hr 12 min 8 sec) 
Heartbeat CPU 0 instructions: 110000000 cycles: 195741317 heartbeat IPC: 0.318257 cumulative IPC: 0.327441 (Simulation time: 0 hr 13 min 52 sec) 
Heartbeat CPU 0 instructions: 120000000 cycles: 225637247 heartbeat IPC: 0.334494 cumulative IPC: 0.32843 (Simulation time: 0 hr 15 min 32 sec) 
Heartbeat CPU 0 instructions: 130000001 cycles: 255284353 heartbeat IPC: 0.337302 cumulative IPC: 0.329514 (Simulation time: 0 hr 17 min 13 sec) 
Heartbeat CPU 0 instructions: 140000003 cycles: 285101787 heartbeat IPC: 0.335375 cumulative IPC: 0.330155 (Simulation time: 0 hr 18 min 54 sec) 
Heartbeat CPU 0 instructions: 150000001 cycles: 315111462 heartbeat IPC: 0.333226 cumulative IPC: 0.330459 (Simulation time: 0 hr 20 min 34 sec) 
Simulation finished CPU 0 instructions: 100000000 cycles: 302609521 cumulative IPC: 0.330459 (Simulation time: 0 hr 20 min 34 sec) 

Simulation complete CPU 0 instructions: 100000000 cycles: 302609521 (Simulation time: 0 hr 20 min 34 sec) 


ChampSim completed all CPUs

Saving instructions large page distribution to /home/bsc/bsc018186/scratch/itp_asplos25_AE/dump/smt_srv537_ap_srv495_ap_1024i.pdst...
Saving data large page distribution to /home/bsc/bsc018186/scratch/itp_asplos25_AE/dump/smt_srv537_ap_srv495_ap_1024i.pdst...
=== Simulation ===
CPU 0 runs /gpfs/projects/bsc18/MN4/bsc18/romol/ChampSim/traces/qualcomm_srv/smt_srv537_ap_srv495_ap_1024i.champsimtrace.xz

Region of Interest Statistics

CPU 0 cumulative IPC: 0.330459 instructions: 100000000 cycles: 302609521
CPU 0 Branch Prediction Accuracy: 74.9718% MPKI: 45.2034 Average ROB Occupancy at Mispredict: 10.5601
Branch type MPKI
BRANCH_DIRECT_JUMP: 1.41108
BRANCH_INDIRECT: 23.2807
BRANCH_CONDITIONAL: 13.2201
BRANCH_DIRECT_CALL: 2.71228
BRANCH_INDIRECT_CALL: 1.0268
BRANCH_RETURN: 3.55251

Instructions large pages: 0
Instructions small pages: 10264
Large page distribution for instructions: 0%

Data large pages: 0
Data small pages: 8859
Large page distribution for data: 0%

cpu0_L1I TOTAL       ACCESS:   39470108  HIT:   30635007  MISS:    8835101  iACCESS:   39470108  iHIT:   30635007  iMISS:    8835101  dACCESS:          0  dHIT:          0  dMISS:          0  itACCESS:          0  itHIT:          0  itMISS:          0  dtACCESS:          0  dtHIT:          0  dtMISS:          0
cpu0_L1I LOAD         ACCESS:   11830831  HIT:    9426973  MISS:    2403858  iACCESS:   11830831  iHIT:    9426973  iMISS:    2403858  dACCESS:          0  dHIT:          0  dMISS:          0  itACCESS:          0  itHIT:          0  itMISS:          0  dtACCESS:          0  dtHIT:          0  dtMISS:          0
cpu0_L1I RFO          ACCESS:          0  HIT:          0  MISS:          0  iACCESS:          0  iHIT:          0  iMISS:          0  dACCESS:          0  dHIT:          0  dMISS:          0  itACCESS:          0  itHIT:          0  itMISS:          0  dtACCESS:          0  dtHIT:          0  dtMISS:          0
cpu0_L1I PREFETCH     ACCESS:   27639277  HIT:   21208034  MISS:    6431243  iACCESS:   27639277  iHIT:   21208034  iMISS:    6431243  dACCESS:          0  dHIT:          0  dMISS:          0  itACCESS:          0  itHIT:          0  itMISS:          0  dtACCESS:          0  dtHIT:          0  dtMISS:          0
cpu0_L1I WRITE        ACCESS:          0  HIT:          0  MISS:          0  iACCESS:          0  iHIT:          0  iMISS:          0  dACCESS:          0  dHIT:          0  dMISS:          0  itACCESS:          0  itHIT:          0  itMISS:          0  dtACCESS:          0  dtHIT:          0  dtMISS:          0
cpu0_L1I TRANSLATION  ACCESS:          0  HIT:          0  MISS:          0  iACCESS:          0  iHIT:          0  iMISS:          0  dACCESS:          0  dHIT:          0  dMISS:          0  itACCESS:          0  itHIT:          0  itMISS:          0  dtACCESS:          0  dtHIT:          0  dtMISS:          0
cpu0_L1I PREFETCH  REQUESTED:   30483125  ISSUED:   30482910  CROSSED:          0  USEFUL:    2245479  USELESS:     780139
cpu0_L1I AVERAGE iMISS LATENCY: 24.4316 cycles
cpu0_L1I AVERAGE dMISS LATENCY: 0 cycles
cpu0_L1I AVERAGE itMISS LATENCY: 0 cycles
cpu0_L1I AVERAGE dtMISS LATENCY: 0 cycles
cpu0_L1I PAGE CROSSINGS (TLB HIT):         0 
cpu0_L1I PAGE CROSSINGS (TLB MISS):         0 
cpu0_L1I AVERAGE MISS LATENCY: 24.4316 cycles
cpu0_ITLB TOTAL       ACCESS:   33431983  HIT:   31155725  MISS:    2276258  iACCESS:   33431983  iHIT:   31155725  iMISS:    2276258  dACCESS:          0  dHIT:          0  dMISS:          0  itACCESS:          0  itHIT:          0  itMISS:          0  dtACCESS:          0  dtHIT:          0  dtMISS:          0
cpu0_ITLB LOAD         ACCESS:   33431983  HIT:   31155725  MISS:    2276258  iACCESS:   33431983  iHIT:   31155725  iMISS:    2276258  dACCESS:          0  dHIT:          0  dMISS:          0  itACCESS:          0  itHIT:          0  itMISS:          0  dtACCESS:          0  dtHIT:          0  dtMISS:          0
cpu0_ITLB RFO          ACCESS:          0  HIT:          0  MISS:          0  iACCESS:          0  iHIT:          0  iMISS:          0  dACCESS:          0  dHIT:          0  dMISS:          0  itACCESS:          0  itHIT:          0  itMISS:          0  dtACCESS:          0  dtHIT:          0  dtMISS:          0
cpu0_ITLB PREFETCH     ACCESS:          0  HIT:          0  MISS:          0  iACCESS:          0  iHIT:          0  iMISS:          0  dACCESS:          0  dHIT:          0  dMISS:          0  itACCESS:          0  itHIT:          0  itMISS:          0  dtACCESS:          0  dtHIT:          0  dtMISS:          0
cpu0_ITLB WRITE        ACCESS:          0  HIT:          0  MISS:          0  iACCESS:          0  iHIT:          0  iMISS:          0  dACCESS:          0  dHIT:          0  dMISS:          0  itACCESS:          0  itHIT:          0  itMISS:          0  dtACCESS:          0  dtHIT:          0  dtMISS:          0
cpu0_ITLB TRANSLATION  ACCESS:          0  HIT:          0  MISS:          0  iACCESS:          0  iHIT:          0  iMISS:          0  dACCESS:          0  dHIT:          0  dMISS:          0  itACCESS:          0  itHIT:          0  itMISS:          0  dtACCESS:          0  dtHIT:          0  dtMISS:          0
cpu0_ITLB PREFETCH  REQUESTED:          0  ISSUED:          0  CROSSED:          0  USEFUL:     396572  USELESS:      81069
cpu0_ITLB AVERAGE iMISS LATENCY: 10.1791 cycles
cpu0_ITLB AVERAGE dMISS LATENCY: 0 cycles
cpu0_ITLB AVERAGE itMISS LATENCY: 0 cycles
cpu0_ITLB AVERAGE dtMISS LATENCY: 0 cycles
cpu0_ITLB PAGE CROSSINGS (TLB HIT):         0 
cpu0_ITLB PAGE CROSSINGS (TLB MISS):         0 
cpu0_ITLB AVERAGE MISS LATENCY: 10.1791 cycles
cpu0_DTLB TOTAL       ACCESS:   28851622  HIT:   25474614  MISS:    3377008  iACCESS:          0  iHIT:          0  iMISS:          0  dACCESS:   28851622  dHIT:   25474614  dMISS:    3377008  itACCESS:          0  itHIT:          0  itMISS:          0  dtACCESS:          0  dtHIT:          0  dtMISS:          0
cpu0_DTLB LOAD         ACCESS:   28851622  HIT:   25474614  MISS:    3377008  iACCESS:          0  iHIT:          0  iMISS:          0  dACCESS:   28851622  dHIT:   25474614  dMISS:    3377008  itACCESS:          0  itHIT:          0  itMISS:          0  dtACCESS:          0  dtHIT:          0  dtMISS:          0
cpu0_DTLB RFO          ACCESS:          0  HIT:          0  MISS:          0  iACCESS:          0  iHIT:          0  iMISS:          0  dACCESS:          0  dHIT:          0  dMISS:          0  itACCESS:          0  itHIT:          0  itMISS:          0  dtACCESS:          0  dtHIT:          0  dtMISS:          0
cpu0_DTLB PREFETCH     ACCESS:          0  HIT:          0  MISS:          0  iACCESS:          0  iHIT:          0  iMISS:          0  dACCESS:          0  dHIT:          0  dMISS:          0  itACCESS:          0  itHIT:          0  itMISS:          0  dtACCESS:          0  dtHIT:          0  dtMISS:          0
cpu0_DTLB WRITE        ACCESS:          0  HIT:          0  MISS:          0  iACCESS:          0  iHIT:          0  iMISS:          0  dACCESS:          0  dHIT:          0  dMISS:          0  itACCESS:          0  itHIT:          0  itMISS:          0  dtACCESS:          0  dtHIT:          0  dtMISS:          0
cpu0_DTLB TRANSLATION  ACCESS:          0  HIT:          0  MISS:          0  iACCESS:          0  iHIT:          0  iMISS:          0  dACCESS:          0  dHIT:          0  dMISS:          0  itACCESS:          0  itHIT:          0  itMISS:          0  dtACCESS:          0  dtHIT:          0  dtMISS:          0
cpu0_DTLB PREFETCH  REQUESTED:          0  ISSUED:          0  CROSSED:          0  USEFUL:          0  USELESS:          0
cpu0_DTLB AVERAGE iMISS LATENCY: 0 cycles
cpu0_DTLB AVERAGE dMISS LATENCY: 25.9503 cycles
cpu0_DTLB AVERAGE itMISS LATENCY: 0 cycles
cpu0_DTLB AVERAGE dtMISS LATENCY: 0 cycles
cpu0_DTLB PAGE CROSSINGS (TLB HIT):         0 
cpu0_DTLB PAGE CROSSINGS (TLB MISS):         0 
cpu0_DTLB AVERAGE MISS LATENCY: 25.9503 cycles
cpu0_STLB TOTAL       ACCESS:    2422644  HIT:    2051491  MISS:     371153  iACCESS:     477642  iHIT:     359248  iMISS:     118394  dACCESS:    1945002  dHIT:    1692243  dMISS:     252759  itACCESS:          0  itHIT:          0  itMISS:          0  dtACCESS:          0  dtHIT:          0  dtMISS:          0
cpu0_STLB LOAD         ACCESS:    2422644  HIT:    2051491  MISS:     371153  iACCESS:     477642  iHIT:     359248  iMISS:     118394  dACCESS:    1945002  dHIT:    1692243  dMISS:     252759  itACCESS:          0  itHIT:          0  itMISS:          0  dtACCESS:          0  dtHIT:          0  dtMISS:          0
cpu0_STLB RFO          ACCESS:          0  HIT:          0  MISS:          0  iACCESS:          0  iHIT:          0  iMISS:          0  dACCESS:          0  dHIT:          0  dMISS:          0  itACCESS:          0  itHIT:          0  itMISS:          0  dtACCESS:          0  dtHIT:          0  dtMISS:          0
cpu0_STLB PREFETCH     ACCESS:          0  HIT:          0  MISS:          0  iACCESS:          0  iHIT:          0  iMISS:          0  dACCESS:          0  dHIT:          0  dMISS:          0  itACCESS:          0  itHIT:          0  itMISS:          0  dtACCESS:          0  dtHIT:          0  dtMISS:          0
cpu0_STLB WRITE        ACCESS:          0  HIT:          0  MISS:          0  iACCESS:          0  iHIT:          0  iMISS:          0  dACCESS:          0  dHIT:          0  dMISS:          0  itACCESS:          0  itHIT:          0  itMISS:          0  dtACCESS:          0  dtHIT:          0  dtMISS:          0
cpu0_STLB TRANSLATION  ACCESS:          0  HIT:          0  MISS:          0  iACCESS:          0  iHIT:          0  iMISS:          0  dACCESS:          0  dHIT:          0  dMISS:          0  itACCESS:          0  itHIT:          0  itMISS:          0  dtACCESS:          0  dtHIT:          0  dtMISS:          0
cpu0_STLB PREFETCH  REQUESTED:          0  ISSUED:          0  CROSSED:          0  USEFUL:          0  USELESS:          0
cpu0_STLB AVERAGE iMISS LATENCY: 52.124 cycles
cpu0_STLB AVERAGE dMISS LATENCY: 193.969 cycles
cpu0_STLB AVERAGE itMISS LATENCY: 0 cycles
cpu0_STLB AVERAGE dtMISS LATENCY: 0 cycles
cpu0_STLB PAGE CROSSINGS (TLB HIT):         0 
cpu0_STLB PAGE CROSSINGS (TLB MISS):         0 
cpu0_STLB AVERAGE MISS LATENCY: 246.093 cycles
cpu0_L1D TOTAL       ACCESS:   44876173  HIT:   39281493  MISS:    5594680  iACCESS:          0  iHIT:          0  iMISS:          0  dACCESS:   44332667  dHIT:   39248304  dMISS:    5084363  itACCESS:     131322  itHIT:      16027  itMISS:     115295  dtACCESS:     412184  dtHIT:      17162  dtMISS:     395022
cpu0_L1D LOAD         ACCESS:   20206302  HIT:   17923306  MISS:    2282996  iACCESS:          0  iHIT:          0  iMISS:          0  dACCESS:   20206302  dHIT:   17923306  dMISS:    2282996  itACCESS:          0  itHIT:          0  itMISS:          0  dtACCESS:          0  dtHIT:          0  dtMISS:          0
cpu0_L1D RFO          ACCESS:          0  HIT:          0  MISS:          0  iACCESS:          0  iHIT:          0  iMISS:          0  dACCESS:          0  dHIT:          0  dMISS:          0  itACCESS:          0  itHIT:          0  itMISS:          0  dtACCESS:          0  dtHIT:          0  dtMISS:          0
cpu0_L1D PREFETCH     ACCESS:   13950819  HIT:   11707601  MISS:    2243218  iACCESS:          0  iHIT:          0  iMISS:          0  dACCESS:   13950819  dHIT:   11707601  dMISS:    2243218  itACCESS:          0  itHIT:          0  itMISS:          0  dtACCESS:          0  dtHIT:          0  dtMISS:          0
cpu0_L1D WRITE        ACCESS:   10175546  HIT:    9617397  MISS:     558149  iACCESS:          0  iHIT:          0  iMISS:          0  dACCESS:   10175546  dHIT:    9617397  dMISS:     558149  itACCESS:          0  itHIT:          0  itMISS:          0  dtACCESS:          0  dtHIT:          0  dtMISS:          0
cpu0_L1D TRANSLATION  ACCESS:     543506  HIT:      33189  MISS:     510317  iACCESS:          0  iHIT:          0  iMISS:          0  dACCESS:          0  dHIT:          0  dMISS:          0  itACCESS:     131322  itHIT:      16027  itMISS:     115295  dtACCESS:     412184  dtHIT:      17162  dtMISS:     395022
cpu0_L1D PREFETCH  REQUESTED:   20206302  ISSUED:   18428134  CROSSED:          0  USEFUL:     372744  USELESS:     912607
cpu0_L1D AVERAGE iMISS LATENCY: 0 cycles
cpu0_L1D AVERAGE dMISS LATENCY: 50.6653 cycles
cpu0_L1D AVERAGE itMISS LATENCY: 3.25831 cycles
cpu0_L1D AVERAGE dtMISS LATENCY: 12.0493 cycles
cpu0_L1D PAGE CROSSINGS (TLB HIT):         0 
cpu0_L1D PAGE CROSSINGS (TLB MISS):         0 
cpu0_L1D AVERAGE MISS LATENCY: 65.9728 cycles
cpu0_L2C TOTAL       ACCESS:    8692033  HIT:    4220554  MISS:    4471479  iACCESS:    3850410  iHIT:    2344667  iMISS:    1505743  dACCESS:    4364982  dHIT:    1819284  dMISS:    2545698  itACCESS:     114739  itHIT:      21283  itMISS:      93456  dtACCESS:     361902  dtHIT:      35320  dtMISS:     326582
cpu0_L2C LOAD         ACCESS:    2069100  HIT:    1016551  MISS:    1052549  iACCESS:     862967  iHIT:     550658  iMISS:     312309  dACCESS:    1206133  dHIT:     465893  dMISS:     740240  itACCESS:          0  itHIT:          0  itMISS:          0  dtACCESS:          0  dtHIT:          0  dtMISS:          0
cpu0_L2C RFO          ACCESS:     213632  HIT:      79102  MISS:     134530  iACCESS:          0  iHIT:          0  iMISS:          0  dACCESS:     213632  dHIT:      79102  dMISS:     134530  itACCESS:          0  itHIT:          0  itMISS:          0  dtACCESS:          0  dtHIT:          0  dtMISS:          0
cpu0_L2C PREFETCH     ACCESS:    5587790  HIT:    2727249  MISS:    2860541  iACCESS:    2987443  iHIT:    1794009  iMISS:    1193434  dACCESS:    2600347  dHIT:     933240  dMISS:    1667107  itACCESS:          0  itHIT:          0  itMISS:          0  dtACCESS:          0  dtHIT:          0  dtMISS:          0
cpu0_L2C WRITE        ACCESS:     344870  HIT:     341049  MISS:       3821  iACCESS:          0  iHIT:          0  iMISS:          0  dACCESS:     344870  dHIT:     341049  dMISS:       3821  itACCESS:          0  itHIT:          0  itMISS:          0  dtACCESS:          0  dtHIT:          0  dtMISS:          0
cpu0_L2C TRANSLATION  ACCESS:     476641  HIT:      56603  MISS:     420038  iACCESS:          0  iHIT:          0  iMISS:          0  dACCESS:          0  dHIT:          0  dMISS:          0  itACCESS:     114739  itHIT:      21283  itMISS:      93456  dtACCESS:     361902  dtHIT:      35320  dtMISS:     326582
cpu0_L2C PREFETCH  REQUESTED:    1561573  ISSUED:    1561567  CROSSED:          0  USEFUL:     365509  USELESS:     333666
cpu0_L2C AVERAGE iMISS LATENCY: 41.0097 cycles
cpu0_L2C AVERAGE dMISS LATENCY: 79.4824 cycles
cpu0_L2C AVERAGE itMISS LATENCY: 3.8242 cycles
cpu0_L2C AVERAGE dtMISS LATENCY: 14.2699 cycles
cpu0_L2C PAGE CROSSINGS (TLB HIT):         0 
cpu0_L2C PAGE CROSSINGS (TLB MISS):         0 
cpu0_L2C AVERAGE MISS LATENCY: 138.587 cycles
LLC TOTAL       ACCESS:    4455010  HIT:    1311346  MISS:    3143664  iACCESS:    1411448  iHIT:     424673  iMISS:     986775  dACCESS:    2623524  dHIT:     847840  dMISS:    1775684  itACCESS:      93456  itHIT:       8140  itMISS:      85316  dtACCESS:     326582  dtHIT:      30693  dtMISS:     295889
LLC LOAD         ACCESS:    1045595  HIT:     325479  MISS:     720116  iACCESS:     311124  iHIT:     101115  iMISS:     210009  dACCESS:     734471  dHIT:     224364  dMISS:     510107  itACCESS:          0  itHIT:          0  itMISS:          0  dtACCESS:          0  dtHIT:          0  dtMISS:          0
LLC RFO          ACCESS:     134521  HIT:      41003  MISS:      93518  iACCESS:          0  iHIT:          0  iMISS:          0  dACCESS:     134521  dHIT:      41003  dMISS:      93518  itACCESS:          0  itHIT:          0  itMISS:          0  dtACCESS:          0  dtHIT:          0  dtMISS:          0
LLC PREFETCH     ACCESS:    2639261  HIT:     701362  MISS:    1937899  iACCESS:    1100324  iHIT:     323558  iMISS:     776766  dACCESS:    1538937  dHIT:     377804  dMISS:    1161133  itACCESS:          0  itHIT:          0  itMISS:          0  dtACCESS:          0  dtHIT:          0  dtMISS:          0
LLC WRITE        ACCESS:     215595  HIT:     204669  MISS:      10926  iACCESS:          0  iHIT:          0  iMISS:          0  dACCESS:     215595  dHIT:     204669  dMISS:      10926  itACCESS:          0  itHIT:          0  itMISS:          0  dtACCESS:          0  dtHIT:          0  dtMISS:          0
LLC TRANSLATION  ACCESS:     420038  HIT:      38833  MISS:     381205  iACCESS:          0  iHIT:          0  iMISS:          0  dACCESS:          0  dHIT:          0  dMISS:          0  itACCESS:      93456  itHIT:       8140  itMISS:      85316  dtACCESS:     326582  dtHIT:      30693  dtMISS:     295889
LLC PREFETCH  REQUESTED:          0  ISSUED:          0  CROSSED:          0  USEFUL:          0  USELESS:          0
LLC AVERAGE iMISS LATENCY: 49.4817 cycles
LLC AVERAGE dMISS LATENCY: 98.7236 cycles
LLC AVERAGE itMISS LATENCY: 4.85014 cycles
LLC AVERAGE dtMISS LATENCY: 18.2426 cycles
LLC PAGE CROSSINGS (TLB HIT):         0 
LLC PAGE CROSSINGS (TLB MISS):         0 
LLC AVERAGE MISS LATENCY: 171.298 cycles

PageTableWalker TOTAL       ACCESS:     181668  
PageTableWalker AVERAGE LATENCY: 6.52981 cycles
PageTableWalker TOTAL LATENCY: 1186257 cycles

DRAM Statistics
Channel 0
 RQ ROW_BUFFER_HIT:     669124
  ROW_BUFFER_MISS:    2446012
 AVG DBUS CONGESTED CYCLE:    3.64919
 WQ ROW_BUFFER_HIT:      66916
  ROW_BUFFER_MISS:      56480  FULL:          0

