last_page:0x200000000000000
VMEM_RES_CAP:0x100000
PAGE_SIZE:4096
LOG2_PAGE_SIZE:12
LOG2_PAGE_TABLE_SIZE:9
page_table_levels:5
WARNING: physical memory size is smaller than virtual memory size
FDiP enabled with aggresivity 16

*** ChampSim Multicore Out-of-Order Simulator ***

Warmup Instructions: 50000000
Simulation Instructions: 100000000
Number of CPUs: 1
Small page size: 4096
Large page size: 2097152

CPU 0 Bimodal branch predictor
Basic BTB sets: 1024 ways: 8 indirect buffer size: 4096 RAS size: 64
Instruction page size distrubution: 0
Loading instruction page size distribution from /home/bsc/bsc018186/scratch/itp_asplos25_AE/dump/smt_srv12_ap_srv180_ap_1024i.pdst
Data page size distrubution: 0
Loading data page size distribution from /home/bsc/bsc018186/scratch/itp_asplos25_AE/dump/smt_srv12_ap_srv180_ap_1024i.pdst
cpu0_L2C IP-based stride prefetcher
cpu0_L1D next line prefetcher
CHiRPing...
cpu0_L1I next line prefetcher
Off-chip DRAM Size: 4 GiB Channels: 1 Width: 64-bit Data Rate: 3200 MT/s
Heartbeat CPU 0 instructions: 10000000 cycles: 2500562 heartbeat IPC: 3.99911 cumulative IPC: 3.99911 (Simulation time: 0 hr 0 min 42 sec) 
Heartbeat CPU 0 instructions: 20000003 cycles: 5000720 heartbeat IPC: 3.99975 cumulative IPC: 3.99943 (Simulation time: 0 hr 1 min 27 sec) 
Heartbeat CPU 0 instructions: 30000003 cycles: 7501732 heartbeat IPC: 3.99839 cumulative IPC: 3.99908 (Simulation time: 0 hr 2 min 13 sec) 
Heartbeat CPU 0 instructions: 40000000 cycles: 10002121 heartbeat IPC: 3.99938 cumulative IPC: 3.99916 (Simulation time: 0 hr 3 min 0 sec) 
Heartbeat CPU 0 instructions: 50000001 cycles: 12502337 heartbeat IPC: 3.99966 cumulative IPC: 3.99926 (Simulation time: 0 hr 3 min 45 sec) 
Warmup finished CPU 0 instructions: 50000001 cycles: 12502338 cumulative IPC: 3.99926 (Simulation time: 0 hr 3 min 45 sec) 

Warmup complete CPU 0 instructions: 50000001 cycles: 12502338 (Simulation time: 0 hr 3 min 45 sec) 

Heartbeat CPU 0 instructions: 60000001 cycles: 40327868 heartbeat IPC: 0.359383 cumulative IPC: 0.359383 (Simulation time: 0 hr 5 min 15 sec) 
Heartbeat CPU 0 instructions: 70000001 cycles: 67089712 heartbeat IPC: 0.373667 cumulative IPC: 0.366386 (Simulation time: 0 hr 6 min 42 sec) 
Heartbeat CPU 0 instructions: 80000001 cycles: 95422693 heartbeat IPC: 0.352946 cumulative IPC: 0.361793 (Simulation time: 0 hr 8 min 13 sec) 
Heartbeat CPU 0 instructions: 90000000 cycles: 119790337 heartbeat IPC: 0.410381 cumulative IPC: 0.372829 (Simulation time: 0 hr 9 min 37 sec) 
Heartbeat CPU 0 instructions: 100000000 cycles: 146576133 heartbeat IPC: 0.373333 cumulative IPC: 0.372929 (Simulation time: 0 hr 11 min 1 sec) 
Heartbeat CPU 0 instructions: 110000000 cycles: 173889771 heartbeat IPC: 0.366118 cumulative IPC: 0.371777 (Simulation time: 0 hr 12 min 26 sec) 
Heartbeat CPU 0 instructions: 120000000 cycles: 200643956 heartbeat IPC: 0.373774 cumulative IPC: 0.372061 (Simulation time: 0 hr 13 min 49 sec) 
Heartbeat CPU 0 instructions: 130000000 cycles: 227061680 heartbeat IPC: 0.378534 cumulative IPC: 0.372858 (Simulation time: 0 hr 15 min 13 sec) 
Heartbeat CPU 0 instructions: 140000000 cycles: 254772292 heartbeat IPC: 0.360873 cumulative IPC: 0.371487 (Simulation time: 0 hr 16 min 41 sec) 
Heartbeat CPU 0 instructions: 150000002 cycles: 281511801 heartbeat IPC: 0.373979 cumulative IPC: 0.371735 (Simulation time: 0 hr 18 min 10 sec) 
Simulation finished CPU 0 instructions: 100000001 cycles: 269009464 cumulative IPC: 0.371735 (Simulation time: 0 hr 18 min 10 sec) 

Simulation complete CPU 0 instructions: 100000001 cycles: 269009464 (Simulation time: 0 hr 18 min 10 sec) 


ChampSim completed all CPUs

Saving instructions large page distribution to /home/bsc/bsc018186/scratch/itp_asplos25_AE/dump/smt_srv12_ap_srv180_ap_1024i.pdst...
Saving data large page distribution to /home/bsc/bsc018186/scratch/itp_asplos25_AE/dump/smt_srv12_ap_srv180_ap_1024i.pdst...
=== Simulation ===
CPU 0 runs /gpfs/projects/bsc18/MN4/bsc18/romol/ChampSim/traces/qualcomm_srv/smt_srv12_ap_srv180_ap_1024i.champsimtrace.xz

Region of Interest Statistics

CPU 0 cumulative IPC: 0.371735 instructions: 100000001 cycles: 269009464
CPU 0 Branch Prediction Accuracy: 75.5619% MPKI: 44.1516 Average ROB Occupancy at Mispredict: 10.8841
Branch type MPKI
BRANCH_DIRECT_JUMP: 1.35207
BRANCH_INDIRECT: 22.6833
BRANCH_CONDITIONAL: 13.0284
BRANCH_DIRECT_CALL: 2.59576
BRANCH_INDIRECT_CALL: 1.03949
BRANCH_RETURN: 3.45256

Instructions large pages: 0
Instructions small pages: 14796
Large page distribution for instructions: 0%

Data large pages: 0
Data small pages: 13082
Large page distribution for data: 0%

cpu0_L1I TOTAL       ACCESS:   39332912  HIT:   30213515  MISS:    9119397  iACCESS:   39332912  iHIT:   30213515  iMISS:    9119397  dACCESS:          0  dHIT:          0  dMISS:          0  itACCESS:          0  itHIT:          0  itMISS:          0  dtACCESS:          0  dtHIT:          0  dtMISS:          0
cpu0_L1I LOAD         ACCESS:   11730460  HIT:    9256596  MISS:    2473864  iACCESS:   11730460  iHIT:    9256596  iMISS:    2473864  dACCESS:          0  dHIT:          0  dMISS:          0  itACCESS:          0  itHIT:          0  itMISS:          0  dtACCESS:          0  dtHIT:          0  dtMISS:          0
cpu0_L1I RFO          ACCESS:          0  HIT:          0  MISS:          0  iACCESS:          0  iHIT:          0  iMISS:          0  dACCESS:          0  dHIT:          0  dMISS:          0  itACCESS:          0  itHIT:          0  itMISS:          0  dtACCESS:          0  dtHIT:          0  dtMISS:          0
cpu0_L1I PREFETCH     ACCESS:   27602452  HIT:   20956919  MISS:    6645533  iACCESS:   27602452  iHIT:   20956919  iMISS:    6645533  dACCESS:          0  dHIT:          0  dMISS:          0  itACCESS:          0  itHIT:          0  itMISS:          0  dtACCESS:          0  dtHIT:          0  dtMISS:          0
cpu0_L1I WRITE        ACCESS:          0  HIT:          0  MISS:          0  iACCESS:          0  iHIT:          0  iMISS:          0  dACCESS:          0  dHIT:          0  dMISS:          0  itACCESS:          0  itHIT:          0  itMISS:          0  dtACCESS:          0  dtHIT:          0  dtMISS:          0
cpu0_L1I TRANSLATION  ACCESS:          0  HIT:          0  MISS:          0  iACCESS:          0  iHIT:          0  iMISS:          0  dACCESS:          0  dHIT:          0  dMISS:          0  itACCESS:          0  itHIT:          0  itMISS:          0  dtACCESS:          0  dtHIT:          0  dtMISS:          0
cpu0_L1I PREFETCH  REQUESTED:   30215593  ISSUED:   30214555  CROSSED:          0  USEFUL:    2197308  USELESS:     754293
cpu0_L1I AVERAGE iMISS LATENCY: 23.6702 cycles
cpu0_L1I AVERAGE dMISS LATENCY: 0 cycles
cpu0_L1I AVERAGE itMISS LATENCY: 0 cycles
cpu0_L1I AVERAGE dtMISS LATENCY: 0 cycles
cpu0_L1I PAGE CROSSINGS (TLB HIT):         0 
cpu0_L1I PAGE CROSSINGS (TLB MISS):         0 
cpu0_L1I AVERAGE MISS LATENCY: 23.6702 cycles
cpu0_ITLB TOTAL       ACCESS:   33066738  HIT:   30881398  MISS:    2185340  iACCESS:   33066738  iHIT:   30881398  iMISS:    2185340  dACCESS:          0  dHIT:          0  dMISS:          0  itACCESS:          0  itHIT:          0  itMISS:          0  dtACCESS:          0  dtHIT:          0  dtMISS:          0
cpu0_ITLB LOAD         ACCESS:   33066738  HIT:   30881398  MISS:    2185340  iACCESS:   33066738  iHIT:   30881398  iMISS:    2185340  dACCESS:          0  dHIT:          0  dMISS:          0  itACCESS:          0  itHIT:          0  itMISS:          0  dtACCESS:          0  dtHIT:          0  dtMISS:          0
cpu0_ITLB RFO          ACCESS:          0  HIT:          0  MISS:          0  iACCESS:          0  iHIT:          0  iMISS:          0  dACCESS:          0  dHIT:          0  dMISS:          0  itACCESS:          0  itHIT:          0  itMISS:          0  dtACCESS:          0  dtHIT:          0  dtMISS:          0
cpu0_ITLB PREFETCH     ACCESS:          0  HIT:          0  MISS:          0  iACCESS:          0  iHIT:          0  iMISS:          0  dACCESS:          0  dHIT:          0  dMISS:          0  itACCESS:          0  itHIT:          0  itMISS:          0  dtACCESS:          0  dtHIT:          0  dtMISS:          0
cpu0_ITLB WRITE        ACCESS:          0  HIT:          0  MISS:          0  iACCESS:          0  iHIT:          0  iMISS:          0  dACCESS:          0  dHIT:          0  dMISS:          0  itACCESS:          0  itHIT:          0  itMISS:          0  dtACCESS:          0  dtHIT:          0  dtMISS:          0
cpu0_ITLB TRANSLATION  ACCESS:          0  HIT:          0  MISS:          0  iACCESS:          0  iHIT:          0  iMISS:          0  dACCESS:          0  dHIT:          0  dMISS:          0  itACCESS:          0  itHIT:          0  itMISS:          0  dtACCESS:          0  dtHIT:          0  dtMISS:          0
cpu0_ITLB PREFETCH  REQUESTED:          0  ISSUED:          0  CROSSED:          0  USEFUL:     386929  USELESS:      77542
cpu0_ITLB AVERAGE iMISS LATENCY: 7.74355 cycles
cpu0_ITLB AVERAGE dMISS LATENCY: 0 cycles
cpu0_ITLB AVERAGE itMISS LATENCY: 0 cycles
cpu0_ITLB AVERAGE dtMISS LATENCY: 0 cycles
cpu0_ITLB PAGE CROSSINGS (TLB HIT):         0 
cpu0_ITLB PAGE CROSSINGS (TLB MISS):         0 
cpu0_ITLB AVERAGE MISS LATENCY: 7.74355 cycles
cpu0_DTLB TOTAL       ACCESS:   28888075  HIT:   25325779  MISS:    3562296  iACCESS:          0  iHIT:          0  iMISS:          0  dACCESS:   28888075  dHIT:   25325779  dMISS:    3562296  itACCESS:          0  itHIT:          0  itMISS:          0  dtACCESS:          0  dtHIT:          0  dtMISS:          0
cpu0_DTLB LOAD         ACCESS:   28888075  HIT:   25325779  MISS:    3562296  iACCESS:          0  iHIT:          0  iMISS:          0  dACCESS:   28888075  dHIT:   25325779  dMISS:    3562296  itACCESS:          0  itHIT:          0  itMISS:          0  dtACCESS:          0  dtHIT:          0  dtMISS:          0
cpu0_DTLB RFO          ACCESS:          0  HIT:          0  MISS:          0  iACCESS:          0  iHIT:          0  iMISS:          0  dACCESS:          0  dHIT:          0  dMISS:          0  itACCESS:          0  itHIT:          0  itMISS:          0  dtACCESS:          0  dtHIT:          0  dtMISS:          0
cpu0_DTLB PREFETCH     ACCESS:          0  HIT:          0  MISS:          0  iACCESS:          0  iHIT:          0  iMISS:          0  dACCESS:          0  dHIT:          0  dMISS:          0  itACCESS:          0  itHIT:          0  itMISS:          0  dtACCESS:          0  dtHIT:          0  dtMISS:          0
cpu0_DTLB WRITE        ACCESS:          0  HIT:          0  MISS:          0  iACCESS:          0  iHIT:          0  iMISS:          0  dACCESS:          0  dHIT:          0  dMISS:          0  itACCESS:          0  itHIT:          0  itMISS:          0  dtACCESS:          0  dtHIT:          0  dtMISS:          0
cpu0_DTLB TRANSLATION  ACCESS:          0  HIT:          0  MISS:          0  iACCESS:          0  iHIT:          0  iMISS:          0  dACCESS:          0  dHIT:          0  dMISS:          0  itACCESS:          0  itHIT:          0  itMISS:          0  dtACCESS:          0  dtHIT:          0  dtMISS:          0
cpu0_DTLB PREFETCH  REQUESTED:          0  ISSUED:          0  CROSSED:          0  USEFUL:          0  USELESS:          0
cpu0_DTLB AVERAGE iMISS LATENCY: 0 cycles
cpu0_DTLB AVERAGE dMISS LATENCY: 16.6498 cycles
cpu0_DTLB AVERAGE itMISS LATENCY: 0 cycles
cpu0_DTLB AVERAGE dtMISS LATENCY: 0 cycles
cpu0_DTLB PAGE CROSSINGS (TLB HIT):         0 
cpu0_DTLB PAGE CROSSINGS (TLB MISS):         0 
cpu0_DTLB AVERAGE MISS LATENCY: 16.6498 cycles
cpu0_STLB TOTAL       ACCESS:    2554679  HIT:    2195749  MISS:     358930  iACCESS:     464479  iHIT:     354552  iMISS:     109927  dACCESS:    2090200  dHIT:    1841197  dMISS:     249003  itACCESS:          0  itHIT:          0  itMISS:          0  dtACCESS:          0  dtHIT:          0  dtMISS:          0
cpu0_STLB LOAD         ACCESS:    2554679  HIT:    2195749  MISS:     358930  iACCESS:     464479  iHIT:     354552  iMISS:     109927  dACCESS:    2090200  dHIT:    1841197  dMISS:     249003  itACCESS:          0  itHIT:          0  itMISS:          0  dtACCESS:          0  dtHIT:          0  dtMISS:          0
cpu0_STLB RFO          ACCESS:          0  HIT:          0  MISS:          0  iACCESS:          0  iHIT:          0  iMISS:          0  dACCESS:          0  dHIT:          0  dMISS:          0  itACCESS:          0  itHIT:          0  itMISS:          0  dtACCESS:          0  dtHIT:          0  dtMISS:          0
cpu0_STLB PREFETCH     ACCESS:          0  HIT:          0  MISS:          0  iACCESS:          0  iHIT:          0  iMISS:          0  dACCESS:          0  dHIT:          0  dMISS:          0  itACCESS:          0  itHIT:          0  itMISS:          0  dtACCESS:          0  dtHIT:          0  dtMISS:          0
cpu0_STLB WRITE        ACCESS:          0  HIT:          0  MISS:          0  iACCESS:          0  iHIT:          0  iMISS:          0  dACCESS:          0  dHIT:          0  dMISS:          0  itACCESS:          0  itHIT:          0  itMISS:          0  dtACCESS:          0  dtHIT:          0  dtMISS:          0
cpu0_STLB TRANSLATION  ACCESS:          0  HIT:          0  MISS:          0  iACCESS:          0  iHIT:          0  iMISS:          0  dACCESS:          0  dHIT:          0  dMISS:          0  itACCESS:          0  itHIT:          0  itMISS:          0  dtACCESS:          0  dtHIT:          0  dtMISS:          0
cpu0_STLB PREFETCH  REQUESTED:          0  ISSUED:          0  CROSSED:          0  USEFUL:          0  USELESS:          0
cpu0_STLB AVERAGE iMISS LATENCY: 36.8178 cycles
cpu0_STLB AVERAGE dMISS LATENCY: 118.474 cycles
cpu0_STLB AVERAGE itMISS LATENCY: 0 cycles
cpu0_STLB AVERAGE dtMISS LATENCY: 0 cycles
cpu0_STLB PAGE CROSSINGS (TLB HIT):         0 
cpu0_STLB PAGE CROSSINGS (TLB MISS):         0 
cpu0_STLB AVERAGE MISS LATENCY: 155.292 cycles
cpu0_L1D TOTAL       ACCESS:   44421476  HIT:   39194706  MISS:    5226770  iACCESS:          0  iHIT:          0  iMISS:          0  dACCESS:   43888927  dHIT:   39160416  dMISS:    4728511  itACCESS:     124170  itHIT:      15000  itMISS:     109170  dtACCESS:     408379  dtHIT:      19290  dtMISS:     389089
cpu0_L1D LOAD         ACCESS:   20056443  HIT:   17961082  MISS:    2095361  iACCESS:          0  iHIT:          0  iMISS:          0  dACCESS:   20056443  dHIT:   17961082  dMISS:    2095361  itACCESS:          0  itHIT:          0  itMISS:          0  dtACCESS:          0  dtHIT:          0  dtMISS:          0
cpu0_L1D RFO          ACCESS:          0  HIT:          0  MISS:          0  iACCESS:          0  iHIT:          0  iMISS:          0  dACCESS:          0  dHIT:          0  dMISS:          0  itACCESS:          0  itHIT:          0  itMISS:          0  dtACCESS:          0  dtHIT:          0  dtMISS:          0
cpu0_L1D PREFETCH     ACCESS:   13672689  HIT:   11597902  MISS:    2074787  iACCESS:          0  iHIT:          0  iMISS:          0  dACCESS:   13672689  dHIT:   11597902  dMISS:    2074787  itACCESS:          0  itHIT:          0  itMISS:          0  dtACCESS:          0  dtHIT:          0  dtMISS:          0
cpu0_L1D WRITE        ACCESS:   10159795  HIT:    9601432  MISS:     558363  iACCESS:          0  iHIT:          0  iMISS:          0  dACCESS:   10159795  dHIT:    9601432  dMISS:     558363  itACCESS:          0  itHIT:          0  itMISS:          0  dtACCESS:          0  dtHIT:          0  dtMISS:          0
cpu0_L1D TRANSLATION  ACCESS:     532549  HIT:      34290  MISS:     498259  iACCESS:          0  iHIT:          0  iMISS:          0  dACCESS:          0  dHIT:          0  dMISS:          0  itACCESS:     124170  itHIT:      15000  itMISS:     109170  dtACCESS:     408379  dtHIT:      19290  dtMISS:     389089
cpu0_L1D PREFETCH  REQUESTED:   20056443  ISSUED:   18416572  CROSSED:          0  USEFUL:     360889  USELESS:     924355
cpu0_L1D AVERAGE iMISS LATENCY: 0 cycles
cpu0_L1D AVERAGE dMISS LATENCY: 52.3087 cycles
cpu0_L1D AVERAGE itMISS LATENCY: 2.31745 cycles
cpu0_L1D AVERAGE dtMISS LATENCY: 7.11974 cycles
cpu0_L1D PAGE CROSSINGS (TLB HIT):         0 
cpu0_L1D PAGE CROSSINGS (TLB MISS):         0 
cpu0_L1D AVERAGE MISS LATENCY: 61.7459 cycles
cpu0_L2C TOTAL       ACCESS:    8510035  HIT:    1542502  MISS:    6967533  iACCESS:    3746709  iHIT:     817000  iMISS:    2929709  dACCESS:    4295298  dHIT:     533850  dMISS:    3761448  itACCESS:     108125  itHIT:      38439  itMISS:      69686  dtACCESS:     359903  dtHIT:     153213  dtMISS:     206690
cpu0_L2C LOAD         ACCESS:    2024032  HIT:     213400  MISS:    1810632  iACCESS:     832356  iHIT:     118150  iMISS:     714206  dACCESS:    1191676  dHIT:      95250  dMISS:    1096426  itACCESS:          0  itHIT:          0  itMISS:          0  dtACCESS:          0  dtHIT:          0  dtMISS:          0
cpu0_L2C RFO          ACCESS:     208438  HIT:      28123  MISS:     180315  iACCESS:          0  iHIT:          0  iMISS:          0  dACCESS:     208438  dHIT:      28123  dMISS:     180315  itACCESS:          0  itHIT:          0  itMISS:          0  dtACCESS:          0  dtHIT:          0  dtMISS:          0
cpu0_L2C PREFETCH     ACCESS:    5469003  HIT:    1007279  MISS:    4461724  iACCESS:    2914353  iHIT:     698850  iMISS:    2215503  dACCESS:    2554650  dHIT:     308429  dMISS:    2246221  itACCESS:          0  itHIT:          0  itMISS:          0  dtACCESS:          0  dtHIT:          0  dtMISS:          0
cpu0_L2C WRITE        ACCESS:     340534  HIT:     102048  MISS:     238486  iACCESS:          0  iHIT:          0  iMISS:          0  dACCESS:     340534  dHIT:     102048  dMISS:     238486  itACCESS:          0  itHIT:          0  itMISS:          0  dtACCESS:          0  dtHIT:          0  dtMISS:          0
cpu0_L2C TRANSLATION  ACCESS:     468028  HIT:     191652  MISS:     276376  iACCESS:          0  iHIT:          0  iMISS:          0  dACCESS:          0  dHIT:          0  dMISS:          0  itACCESS:     108125  itHIT:      38439  itMISS:      69686  dtACCESS:     359903  dtHIT:     153213  dtMISS:     206690
cpu0_L2C PREFETCH  REQUESTED:    1511882  ISSUED:    1511878  CROSSED:          0  USEFUL:     413826  USELESS:     491900
cpu0_L2C AVERAGE iMISS LATENCY: 26.3065 cycles
cpu0_L2C AVERAGE dMISS LATENCY: 48.6112 cycles
cpu0_L2C AVERAGE itMISS LATENCY: 1.58839 cycles
cpu0_L2C AVERAGE dtMISS LATENCY: 4.84415 cycles
cpu0_L2C PAGE CROSSINGS (TLB HIT):         0 
cpu0_L2C PAGE CROSSINGS (TLB MISS):         0 
cpu0_L2C AVERAGE MISS LATENCY: 81.3502 cycles
LLC TOTAL       ACCESS:    6781525  HIT:    4179642  MISS:    2601883  iACCESS:    2835108  iHIT:    2009127  iMISS:     825981  dACCESS:    3670041  dHIT:    2104544  dMISS:    1565497  itACCESS:      69686  itHIT:      15420  itMISS:      54266  dtACCESS:     206690  dtHIT:      50551  dtMISS:     156139
LLC LOAD         ACCESS:    1805683  HIT:    1187737  MISS:     617946  iACCESS:     712850  iHIT:     540710  iMISS:     172140  dACCESS:    1092833  dHIT:     647027  dMISS:     445806  itACCESS:          0  itHIT:          0  itMISS:          0  dtACCESS:          0  dtHIT:          0  dtMISS:          0
LLC RFO          ACCESS:     180306  HIT:      94496  MISS:      85810  iACCESS:          0  iHIT:          0  iMISS:          0  dACCESS:     180306  dHIT:      94496  dMISS:      85810  itACCESS:          0  itHIT:          0  itMISS:          0  dtACCESS:          0  dtHIT:          0  dtMISS:          0
LLC PREFETCH     ACCESS:    4251002  HIT:    2570266  MISS:    1680736  iACCESS:    2122258  iHIT:    1468417  iMISS:     653841  dACCESS:    2128744  dHIT:    1101849  dMISS:    1026895  itACCESS:          0  itHIT:          0  itMISS:          0  dtACCESS:          0  dtHIT:          0  dtMISS:          0
LLC WRITE        ACCESS:     268158  HIT:     261172  MISS:       6986  iACCESS:          0  iHIT:          0  iMISS:          0  dACCESS:     268158  dHIT:     261172  dMISS:       6986  itACCESS:          0  itHIT:          0  itMISS:          0  dtACCESS:          0  dtHIT:          0  dtMISS:          0
LLC TRANSLATION  ACCESS:     276376  HIT:      65971  MISS:     210405  iACCESS:          0  iHIT:          0  iMISS:          0  dACCESS:          0  dHIT:          0  dMISS:          0  itACCESS:      69686  itHIT:      15420  itMISS:      54266  dtACCESS:     206690  dtHIT:      50551  dtMISS:     156139
LLC PREFETCH  REQUESTED:          0  ISSUED:          0  CROSSED:          0  USEFUL:          0  USELESS:          0
LLC AVERAGE iMISS LATENCY: 49.2919 cycles
LLC AVERAGE dMISS LATENCY: 105.318 cycles
LLC AVERAGE itMISS LATENCY: 3.72561 cycles
LLC AVERAGE dtMISS LATENCY: 11.4084 cycles
LLC PAGE CROSSINGS (TLB HIT):         0 
LLC PAGE CROSSINGS (TLB MISS):         0 
LLC AVERAGE MISS LATENCY: 169.744 cycles

PageTableWalker TOTAL       ACCESS:     173719  
PageTableWalker AVERAGE LATENCY: 5.8853 cycles
PageTableWalker TOTAL LATENCY: 1022387 cycles

DRAM Statistics
Channel 0
 RQ ROW_BUFFER_HIT:     609466
  ROW_BUFFER_MISS:    1976130
 AVG DBUS CONGESTED CYCLE:    3.64977
 WQ ROW_BUFFER_HIT:      62964
  ROW_BUFFER_MISS:      57417  FULL:          0

