last_page:0x200000000000000
VMEM_RES_CAP:0x100000
PAGE_SIZE:4096
LOG2_PAGE_SIZE:12
LOG2_PAGE_TABLE_SIZE:9
page_table_levels:5
WARNING: physical memory size is smaller than virtual memory size
FDiP enabled with aggresivity 16

*** ChampSim Multicore Out-of-Order Simulator ***

Warmup Instructions: 50000000
Simulation Instructions: 100000000
Number of CPUs: 1
Small page size: 4096
Large page size: 2097152

CPU 0 Bimodal branch predictor
Basic BTB sets: 1024 ways: 8 indirect buffer size: 4096 RAS size: 64
Instruction page size distrubution: 0
Loading instruction page size distribution from /home/bsc/bsc018186/scratch/itp_asplos25_AE/dump/smt_srv85_ap_srv298_ap_1024i.pdst
Data page size distrubution: 0
Loading data page size distribution from /home/bsc/bsc018186/scratch/itp_asplos25_AE/dump/smt_srv85_ap_srv298_ap_1024i.pdst
cpu0_L2C IP-based stride prefetcher
cpu0_L1D next line prefetcher
CHiRPing...
cpu0_L1I next line prefetcher
Off-chip DRAM Size: 4 GiB Channels: 1 Width: 64-bit Data Rate: 3200 MT/s
Heartbeat CPU 0 instructions: 10000000 cycles: 2500387 heartbeat IPC: 3.99939 cumulative IPC: 3.99939 (Simulation time: 0 hr 0 min 39 sec) 
Heartbeat CPU 0 instructions: 20000003 cycles: 5000671 heartbeat IPC: 3.99955 cumulative IPC: 3.99947 (Simulation time: 0 hr 1 min 20 sec) 
Heartbeat CPU 0 instructions: 30000000 cycles: 7500843 heartbeat IPC: 3.99973 cumulative IPC: 3.99956 (Simulation time: 0 hr 2 min 2 sec) 
Heartbeat CPU 0 instructions: 40000000 cycles: 10001252 heartbeat IPC: 3.99935 cumulative IPC: 3.9995 (Simulation time: 0 hr 2 min 44 sec) 
Heartbeat CPU 0 instructions: 50000000 cycles: 12501481 heartbeat IPC: 3.99964 cumulative IPC: 3.99953 (Simulation time: 0 hr 3 min 27 sec) 
Warmup finished CPU 0 instructions: 50000000 cycles: 12501482 cumulative IPC: 3.99953 (Simulation time: 0 hr 3 min 27 sec) 

Warmup complete CPU 0 instructions: 50000000 cycles: 12501482 (Simulation time: 0 hr 3 min 27 sec) 

Heartbeat CPU 0 instructions: 60000003 cycles: 41450673 heartbeat IPC: 0.345433 cumulative IPC: 0.345433 (Simulation time: 0 hr 4 min 54 sec) 
Heartbeat CPU 0 instructions: 70000001 cycles: 69691257 heartbeat IPC: 0.354101 cumulative IPC: 0.349713 (Simulation time: 0 hr 6 min 20 sec) 
Heartbeat CPU 0 instructions: 80000000 cycles: 97539793 heartbeat IPC: 0.359086 cumulative IPC: 0.352783 (Simulation time: 0 hr 7 min 45 sec) 
Heartbeat CPU 0 instructions: 90000002 cycles: 126837234 heartbeat IPC: 0.341327 cumulative IPC: 0.349847 (Simulation time: 0 hr 9 min 11 sec) 
Heartbeat CPU 0 instructions: 100000000 cycles: 155659411 heartbeat IPC: 0.346955 cumulative IPC: 0.349265 (Simulation time: 0 hr 10 min 36 sec) 
Heartbeat CPU 0 instructions: 110000001 cycles: 185315505 heartbeat IPC: 0.337199 cumulative IPC: 0.347195 (Simulation time: 0 hr 12 min 3 sec) 
Heartbeat CPU 0 instructions: 120000000 cycles: 213843405 heartbeat IPC: 0.350535 cumulative IPC: 0.347668 (Simulation time: 0 hr 13 min 29 sec) 
Heartbeat CPU 0 instructions: 130000003 cycles: 244328840 heartbeat IPC: 0.328026 cumulative IPC: 0.345085 (Simulation time: 0 hr 14 min 57 sec) 
Heartbeat CPU 0 instructions: 140000004 cycles: 273590901 heartbeat IPC: 0.34174 cumulative IPC: 0.34471 (Simulation time: 0 hr 16 min 23 sec) 
Heartbeat CPU 0 instructions: 150000000 cycles: 303769763 heartbeat IPC: 0.331358 cumulative IPC: 0.343327 (Simulation time: 0 hr 17 min 51 sec) 
Simulation finished CPU 0 instructions: 100000000 cycles: 291268282 cumulative IPC: 0.343327 (Simulation time: 0 hr 17 min 51 sec) 

Simulation complete CPU 0 instructions: 100000000 cycles: 291268282 (Simulation time: 0 hr 17 min 51 sec) 


ChampSim completed all CPUs

Saving instructions large page distribution to /home/bsc/bsc018186/scratch/itp_asplos25_AE/dump/smt_srv85_ap_srv298_ap_1024i.pdst...
Saving data large page distribution to /home/bsc/bsc018186/scratch/itp_asplos25_AE/dump/smt_srv85_ap_srv298_ap_1024i.pdst...
=== Simulation ===
CPU 0 runs /gpfs/projects/bsc18/MN4/bsc18/romol/ChampSim/traces/qualcomm_srv/smt_srv85_ap_srv298_ap_1024i.champsimtrace.xz

Region of Interest Statistics

CPU 0 cumulative IPC: 0.343327 instructions: 100000000 cycles: 291268282
CPU 0 Branch Prediction Accuracy: 75.772% MPKI: 43.5968 Average ROB Occupancy at Mispredict: 11.3297
Branch type MPKI
BRANCH_DIRECT_JUMP: 1.31238
BRANCH_INDIRECT: 22.8552
BRANCH_CONDITIONAL: 12.5628
BRANCH_DIRECT_CALL: 2.48015
BRANCH_INDIRECT_CALL: 0.940351
BRANCH_RETURN: 3.44597

Instructions large pages: 0
Instructions small pages: 13541
Large page distribution for instructions: 0%

Data large pages: 0
Data small pages: 12237
Large page distribution for data: 0%

cpu0_L1I TOTAL       ACCESS:   39284881  HIT:   30528975  MISS:    8755906  iACCESS:   39284881  iHIT:   30528975  iMISS:    8755906  dACCESS:          0  dHIT:          0  dMISS:          0  itACCESS:          0  itHIT:          0  itMISS:          0  dtACCESS:          0  dtHIT:          0  dtMISS:          0
cpu0_L1I LOAD         ACCESS:   11837468  HIT:    9443129  MISS:    2394339  iACCESS:   11837468  iHIT:    9443129  iMISS:    2394339  dACCESS:          0  dHIT:          0  dMISS:          0  itACCESS:          0  itHIT:          0  itMISS:          0  dtACCESS:          0  dtHIT:          0  dtMISS:          0
cpu0_L1I RFO          ACCESS:          0  HIT:          0  MISS:          0  iACCESS:          0  iHIT:          0  iMISS:          0  dACCESS:          0  dHIT:          0  dMISS:          0  itACCESS:          0  itHIT:          0  itMISS:          0  dtACCESS:          0  dtHIT:          0  dtMISS:          0
cpu0_L1I PREFETCH     ACCESS:   27447413  HIT:   21085846  MISS:    6361567  iACCESS:   27447413  iHIT:   21085846  iMISS:    6361567  dACCESS:          0  dHIT:          0  dMISS:          0  itACCESS:          0  itHIT:          0  itMISS:          0  dtACCESS:          0  dtHIT:          0  dtMISS:          0
cpu0_L1I WRITE        ACCESS:          0  HIT:          0  MISS:          0  iACCESS:          0  iHIT:          0  iMISS:          0  dACCESS:          0  dHIT:          0  dMISS:          0  itACCESS:          0  itHIT:          0  itMISS:          0  dtACCESS:          0  dtHIT:          0  dtMISS:          0
cpu0_L1I TRANSLATION  ACCESS:          0  HIT:          0  MISS:          0  iACCESS:          0  iHIT:          0  iMISS:          0  dACCESS:          0  dHIT:          0  dMISS:          0  itACCESS:          0  itHIT:          0  itMISS:          0  dtACCESS:          0  dtHIT:          0  dtMISS:          0
cpu0_L1I PREFETCH  REQUESTED:   30345532  ISSUED:   30345524  CROSSED:          0  USEFUL:    2211390  USELESS:     765687
cpu0_L1I AVERAGE iMISS LATENCY: 22.9441 cycles
cpu0_L1I AVERAGE dMISS LATENCY: 0 cycles
cpu0_L1I AVERAGE itMISS LATENCY: 0 cycles
cpu0_L1I AVERAGE dtMISS LATENCY: 0 cycles
cpu0_L1I PAGE CROSSINGS (TLB HIT):         0 
cpu0_L1I PAGE CROSSINGS (TLB MISS):         0 
cpu0_L1I AVERAGE MISS LATENCY: 22.9441 cycles
cpu0_ITLB TOTAL       ACCESS:   33145521  HIT:   30914798  MISS:    2230723  iACCESS:   33145521  iHIT:   30914798  iMISS:    2230723  dACCESS:          0  dHIT:          0  dMISS:          0  itACCESS:          0  itHIT:          0  itMISS:          0  dtACCESS:          0  dtHIT:          0  dtMISS:          0
cpu0_ITLB LOAD         ACCESS:   33145521  HIT:   30914798  MISS:    2230723  iACCESS:   33145521  iHIT:   30914798  iMISS:    2230723  dACCESS:          0  dHIT:          0  dMISS:          0  itACCESS:          0  itHIT:          0  itMISS:          0  dtACCESS:          0  dtHIT:          0  dtMISS:          0
cpu0_ITLB RFO          ACCESS:          0  HIT:          0  MISS:          0  iACCESS:          0  iHIT:          0  iMISS:          0  dACCESS:          0  dHIT:          0  dMISS:          0  itACCESS:          0  itHIT:          0  itMISS:          0  dtACCESS:          0  dtHIT:          0  dtMISS:          0
cpu0_ITLB PREFETCH     ACCESS:          0  HIT:          0  MISS:          0  iACCESS:          0  iHIT:          0  iMISS:          0  dACCESS:          0  dHIT:          0  dMISS:          0  itACCESS:          0  itHIT:          0  itMISS:          0  dtACCESS:          0  dtHIT:          0  dtMISS:          0
cpu0_ITLB WRITE        ACCESS:          0  HIT:          0  MISS:          0  iACCESS:          0  iHIT:          0  iMISS:          0  dACCESS:          0  dHIT:          0  dMISS:          0  itACCESS:          0  itHIT:          0  itMISS:          0  dtACCESS:          0  dtHIT:          0  dtMISS:          0
cpu0_ITLB TRANSLATION  ACCESS:          0  HIT:          0  MISS:          0  iACCESS:          0  iHIT:          0  iMISS:          0  dACCESS:          0  dHIT:          0  dMISS:          0  itACCESS:          0  itHIT:          0  itMISS:          0  dtACCESS:          0  dtHIT:          0  dtMISS:          0
cpu0_ITLB PREFETCH  REQUESTED:          0  ISSUED:          0  CROSSED:          0  USEFUL:     388500  USELESS:      78315
cpu0_ITLB AVERAGE iMISS LATENCY: 9.76025 cycles
cpu0_ITLB AVERAGE dMISS LATENCY: 0 cycles
cpu0_ITLB AVERAGE itMISS LATENCY: 0 cycles
cpu0_ITLB AVERAGE dtMISS LATENCY: 0 cycles
cpu0_ITLB PAGE CROSSINGS (TLB HIT):         0 
cpu0_ITLB PAGE CROSSINGS (TLB MISS):         0 
cpu0_ITLB AVERAGE MISS LATENCY: 9.76025 cycles
cpu0_DTLB TOTAL       ACCESS:   28795618  HIT:   25080614  MISS:    3715004  iACCESS:          0  iHIT:          0  iMISS:          0  dACCESS:   28795618  dHIT:   25080614  dMISS:    3715004  itACCESS:          0  itHIT:          0  itMISS:          0  dtACCESS:          0  dtHIT:          0  dtMISS:          0
cpu0_DTLB LOAD         ACCESS:   28795618  HIT:   25080614  MISS:    3715004  iACCESS:          0  iHIT:          0  iMISS:          0  dACCESS:   28795618  dHIT:   25080614  dMISS:    3715004  itACCESS:          0  itHIT:          0  itMISS:          0  dtACCESS:          0  dtHIT:          0  dtMISS:          0
cpu0_DTLB RFO          ACCESS:          0  HIT:          0  MISS:          0  iACCESS:          0  iHIT:          0  iMISS:          0  dACCESS:          0  dHIT:          0  dMISS:          0  itACCESS:          0  itHIT:          0  itMISS:          0  dtACCESS:          0  dtHIT:          0  dtMISS:          0
cpu0_DTLB PREFETCH     ACCESS:          0  HIT:          0  MISS:          0  iACCESS:          0  iHIT:          0  iMISS:          0  dACCESS:          0  dHIT:          0  dMISS:          0  itACCESS:          0  itHIT:          0  itMISS:          0  dtACCESS:          0  dtHIT:          0  dtMISS:          0
cpu0_DTLB WRITE        ACCESS:          0  HIT:          0  MISS:          0  iACCESS:          0  iHIT:          0  iMISS:          0  dACCESS:          0  dHIT:          0  dMISS:          0  itACCESS:          0  itHIT:          0  itMISS:          0  dtACCESS:          0  dtHIT:          0  dtMISS:          0
cpu0_DTLB TRANSLATION  ACCESS:          0  HIT:          0  MISS:          0  iACCESS:          0  iHIT:          0  iMISS:          0  dACCESS:          0  dHIT:          0  dMISS:          0  itACCESS:          0  itHIT:          0  itMISS:          0  dtACCESS:          0  dtHIT:          0  dtMISS:          0
cpu0_DTLB PREFETCH  REQUESTED:          0  ISSUED:          0  CROSSED:          0  USEFUL:          0  USELESS:          0
cpu0_DTLB AVERAGE iMISS LATENCY: 0 cycles
cpu0_DTLB AVERAGE dMISS LATENCY: 24.0986 cycles
cpu0_DTLB AVERAGE itMISS LATENCY: 0 cycles
cpu0_DTLB AVERAGE dtMISS LATENCY: 0 cycles
cpu0_DTLB PAGE CROSSINGS (TLB HIT):         0 
cpu0_DTLB PAGE CROSSINGS (TLB MISS):         0 
cpu0_DTLB AVERAGE MISS LATENCY: 24.0986 cycles
cpu0_STLB TOTAL       ACCESS:    2613177  HIT:    2248688  MISS:     364489  iACCESS:     466818  iHIT:     359547  iMISS:     107271  dACCESS:    2146359  dHIT:    1889141  dMISS:     257218  itACCESS:          0  itHIT:          0  itMISS:          0  dtACCESS:          0  dtHIT:          0  dtMISS:          0
cpu0_STLB LOAD         ACCESS:    2613177  HIT:    2248688  MISS:     364489  iACCESS:     466818  iHIT:     359547  iMISS:     107271  dACCESS:    2146359  dHIT:    1889141  dMISS:     257218  itACCESS:          0  itHIT:          0  itMISS:          0  dtACCESS:          0  dtHIT:          0  dtMISS:          0
cpu0_STLB RFO          ACCESS:          0  HIT:          0  MISS:          0  iACCESS:          0  iHIT:          0  iMISS:          0  dACCESS:          0  dHIT:          0  dMISS:          0  itACCESS:          0  itHIT:          0  itMISS:          0  dtACCESS:          0  dtHIT:          0  dtMISS:          0
cpu0_STLB PREFETCH     ACCESS:          0  HIT:          0  MISS:          0  iACCESS:          0  iHIT:          0  iMISS:          0  dACCESS:          0  dHIT:          0  dMISS:          0  itACCESS:          0  itHIT:          0  itMISS:          0  dtACCESS:          0  dtHIT:          0  dtMISS:          0
cpu0_STLB WRITE        ACCESS:          0  HIT:          0  MISS:          0  iACCESS:          0  iHIT:          0  iMISS:          0  dACCESS:          0  dHIT:          0  dMISS:          0  itACCESS:          0  itHIT:          0  itMISS:          0  dtACCESS:          0  dtHIT:          0  dtMISS:          0
cpu0_STLB TRANSLATION  ACCESS:          0  HIT:          0  MISS:          0  iACCESS:          0  iHIT:          0  iMISS:          0  dACCESS:          0  dHIT:          0  dMISS:          0  itACCESS:          0  itHIT:          0  itMISS:          0  dtACCESS:          0  dtHIT:          0  dtMISS:          0
cpu0_STLB PREFETCH  REQUESTED:          0  ISSUED:          0  CROSSED:          0  USEFUL:          0  USELESS:          0
cpu0_STLB AVERAGE iMISS LATENCY: 49.5091 cycles
cpu0_STLB AVERAGE dMISS LATENCY: 198.243 cycles
cpu0_STLB AVERAGE itMISS LATENCY: 0 cycles
cpu0_STLB AVERAGE dtMISS LATENCY: 0 cycles
cpu0_STLB PAGE CROSSINGS (TLB HIT):         0 
cpu0_STLB PAGE CROSSINGS (TLB MISS):         0 
cpu0_STLB AVERAGE MISS LATENCY: 247.752 cycles
cpu0_L1D TOTAL       ACCESS:   44491126  HIT:   39108123  MISS:    5383003  iACCESS:          0  iHIT:          0  iMISS:          0  dACCESS:   43952974  dHIT:   39073903  dMISS:    4879071  itACCESS:     120694  itHIT:      14448  itMISS:     106246  dtACCESS:     417458  dtHIT:      19772  dtMISS:     397686
cpu0_L1D LOAD         ACCESS:   20027183  HIT:   17843703  MISS:    2183480  iACCESS:          0  iHIT:          0  iMISS:          0  dACCESS:   20027183  dHIT:   17843703  dMISS:    2183480  itACCESS:          0  itHIT:          0  itMISS:          0  dtACCESS:          0  dtHIT:          0  dtMISS:          0
cpu0_L1D RFO          ACCESS:          0  HIT:          0  MISS:          0  iACCESS:          0  iHIT:          0  iMISS:          0  dACCESS:          0  dHIT:          0  dMISS:          0  itACCESS:          0  itHIT:          0  itMISS:          0  dtACCESS:          0  dtHIT:          0  dtMISS:          0
cpu0_L1D PREFETCH     ACCESS:   13760210  HIT:   11624978  MISS:    2135232  iACCESS:          0  iHIT:          0  iMISS:          0  dACCESS:   13760210  dHIT:   11624978  dMISS:    2135232  itACCESS:          0  itHIT:          0  itMISS:          0  dtACCESS:          0  dtHIT:          0  dtMISS:          0
cpu0_L1D WRITE        ACCESS:   10165581  HIT:    9605222  MISS:     560359  iACCESS:          0  iHIT:          0  iMISS:          0  dACCESS:   10165581  dHIT:    9605222  dMISS:     560359  itACCESS:          0  itHIT:          0  itMISS:          0  dtACCESS:          0  dtHIT:          0  dtMISS:          0
cpu0_L1D TRANSLATION  ACCESS:     538152  HIT:      34220  MISS:     503932  iACCESS:          0  iHIT:          0  iMISS:          0  dACCESS:          0  dHIT:          0  dMISS:          0  itACCESS:     120694  itHIT:      14448  itMISS:     106246  dtACCESS:     417458  dtHIT:      19772  dtMISS:     397686
cpu0_L1D PREFETCH  REQUESTED:   20027183  ISSUED:   18362793  CROSSED:          0  USEFUL:     357738  USELESS:     934860
cpu0_L1D AVERAGE iMISS LATENCY: 0 cycles
cpu0_L1D AVERAGE dMISS LATENCY: 50.5978 cycles
cpu0_L1D AVERAGE itMISS LATENCY: 3.16402 cycles
cpu0_L1D AVERAGE dtMISS LATENCY: 12.4364 cycles
cpu0_L1D PAGE CROSSINGS (TLB HIT):         0 
cpu0_L1D PAGE CROSSINGS (TLB MISS):         0 
cpu0_L1D AVERAGE MISS LATENCY: 66.1982 cycles
cpu0_L2C TOTAL       ACCESS:    8599073  HIT:    4265372  MISS:    4333701  iACCESS:    3793091  iHIT:    2347374  iMISS:    1445717  dACCESS:    4331233  dHIT:    1859980  dMISS:    2471253  itACCESS:     105777  itHIT:      19185  itMISS:      86592  dtACCESS:     368972  dtHIT:      38833  dtMISS:     330139
cpu0_L2C LOAD         ACCESS:    2069260  HIT:    1039138  MISS:    1030122  iACCESS:     855427  iHIT:     555261  iMISS:     300166  dACCESS:    1213833  dHIT:     483877  dMISS:     729956  itACCESS:          0  itHIT:          0  itMISS:          0  dtACCESS:          0  dtHIT:          0  dtMISS:          0
cpu0_L2C RFO          ACCESS:     210548  HIT:      84155  MISS:     126393  iACCESS:          0  iHIT:          0  iMISS:          0  dACCESS:     210548  dHIT:      84155  dMISS:     126393  itACCESS:          0  itHIT:          0  itMISS:          0  dtACCESS:          0  dtHIT:          0  dtMISS:          0
cpu0_L2C PREFETCH     ACCESS:    5494545  HIT:    2738426  MISS:    2756119  iACCESS:    2937664  iHIT:    1792113  iMISS:    1145551  dACCESS:    2556881  dHIT:     946313  dMISS:    1610568  itACCESS:          0  itHIT:          0  itMISS:          0  dtACCESS:          0  dtHIT:          0  dtMISS:          0
cpu0_L2C WRITE        ACCESS:     349971  HIT:     345635  MISS:       4336  iACCESS:          0  iHIT:          0  iMISS:          0  dACCESS:     349971  dHIT:     345635  dMISS:       4336  itACCESS:          0  itHIT:          0  itMISS:          0  dtACCESS:          0  dtHIT:          0  dtMISS:          0
cpu0_L2C TRANSLATION  ACCESS:     474749  HIT:      58018  MISS:     416731  iACCESS:          0  iHIT:          0  iMISS:          0  dACCESS:          0  dHIT:          0  dMISS:          0  itACCESS:     105777  itHIT:      19185  itMISS:      86592  dtACCESS:     368972  dtHIT:      38833  dtMISS:     330139
cpu0_L2C PREFETCH  REQUESTED:    1512406  ISSUED:    1512401  CROSSED:          0  USEFUL:     356999  USELESS:     321089
cpu0_L2C AVERAGE iMISS LATENCY: 38.8818 cycles
cpu0_L2C AVERAGE dMISS LATENCY: 77.8252 cycles
cpu0_L2C AVERAGE itMISS LATENCY: 3.6898 cycles
cpu0_L2C AVERAGE dtMISS LATENCY: 14.6001 cycles
cpu0_L2C PAGE CROSSINGS (TLB HIT):         0 
cpu0_L2C PAGE CROSSINGS (TLB MISS):         0 
cpu0_L2C AVERAGE MISS LATENCY: 134.997 cycles
LLC TOTAL       ACCESS:    4335393  HIT:    1399269  MISS:    2936124  iACCESS:    1355325  iHIT:     457321  iMISS:     898004  dACCESS:    2563337  dHIT:     899463  dMISS:    1663874  itACCESS:      86592  itHIT:       6871  itMISS:      79721  dtACCESS:     330139  dtHIT:      35614  dtMISS:     294525
LLC LOAD         ACCESS:    1024569  HIT:     349167  MISS:     675402  iACCESS:     299035  iHIT:     107806  iMISS:     191229  dACCESS:     725534  dHIT:     241361  dMISS:     484173  itACCESS:          0  itHIT:          0  itMISS:          0  dtACCESS:          0  dtHIT:          0  dtMISS:          0
LLC RFO          ACCESS:     126386  HIT:      40089  MISS:      86297  iACCESS:          0  iHIT:          0  iMISS:          0  dACCESS:     126386  dHIT:      40089  dMISS:      86297  itACCESS:          0  itHIT:          0  itMISS:          0  dtACCESS:          0  dtHIT:          0  dtMISS:          0
LLC PREFETCH     ACCESS:    2552815  HIT:     763951  MISS:    1788864  iACCESS:    1056290  iHIT:     349515  iMISS:     706775  dACCESS:    1496525  dHIT:     414436  dMISS:    1082089  itACCESS:          0  itHIT:          0  itMISS:          0  dtACCESS:          0  dtHIT:          0  dtMISS:          0
LLC WRITE        ACCESS:     214892  HIT:     203577  MISS:      11315  iACCESS:          0  iHIT:          0  iMISS:          0  dACCESS:     214892  dHIT:     203577  dMISS:      11315  itACCESS:          0  itHIT:          0  itMISS:          0  dtACCESS:          0  dtHIT:          0  dtMISS:          0
LLC TRANSLATION  ACCESS:     416731  HIT:      42485  MISS:     374246  iACCESS:          0  iHIT:          0  iMISS:          0  dACCESS:          0  dHIT:          0  dMISS:          0  itACCESS:      86592  itHIT:       6871  itMISS:      79721  dtACCESS:     330139  dtHIT:      35614  dtMISS:     294525
LLC PREFETCH  REQUESTED:          0  ISSUED:          0  CROSSED:          0  USEFUL:          0  USELESS:          0
LLC AVERAGE iMISS LATENCY: 48.302 cycles
LLC AVERAGE dMISS LATENCY: 99.8372 cycles
LLC AVERAGE itMISS LATENCY: 4.86132 cycles
LLC AVERAGE dtMISS LATENCY: 19.327 cycles
LLC PAGE CROSSINGS (TLB HIT):         0 
LLC PAGE CROSSINGS (TLB MISS):         0 
LLC AVERAGE MISS LATENCY: 172.328 cycles

PageTableWalker TOTAL       ACCESS:     185331  
PageTableWalker AVERAGE LATENCY: 6.55493 cycles
PageTableWalker TOTAL LATENCY: 1214830 cycles

DRAM Statistics
Channel 0
 RQ ROW_BUFFER_HIT:     619012
  ROW_BUFFER_MISS:    2295903
 AVG DBUS CONGESTED CYCLE:    3.64618
 WQ ROW_BUFFER_HIT:      64948
  ROW_BUFFER_MISS:      54756  FULL:          0

