last_page:0x200000000000000
VMEM_RES_CAP:0x100000
PAGE_SIZE:4096
LOG2_PAGE_SIZE:12
LOG2_PAGE_TABLE_SIZE:9
page_table_levels:5
WARNING: physical memory size is smaller than virtual memory size
FDiP enabled with aggresivity 16

*** ChampSim Multicore Out-of-Order Simulator ***

Warmup Instructions: 50000000
Simulation Instructions: 100000000
Number of CPUs: 1
Small page size: 4096
Large page size: 2097152

CPU 0 Bimodal branch predictor
Basic BTB sets: 1024 ways: 8 indirect buffer size: 4096 RAS size: 64
Instruction page size distrubution: 0
Loading instruction page size distribution from /home/bsc/bsc018186/scratch/itp_asplos25_AE/dump/smt_srv85_ap_srv194_ap_1024i.pdst
Data page size distrubution: 0
Loading data page size distribution from /home/bsc/bsc018186/scratch/itp_asplos25_AE/dump/smt_srv85_ap_srv194_ap_1024i.pdst
cpu0_L2C IP-based stride prefetcher
cpu0_L1D next line prefetcher
cpu0_L1I next line prefetcher
Off-chip DRAM Size: 4 GiB Channels: 1 Width: 64-bit Data Rate: 3200 MT/s
Heartbeat CPU 0 instructions: 10000003 cycles: 2500385 heartbeat IPC: 3.99939 cumulative IPC: 3.99939 (Simulation time: 0 hr 0 min 39 sec) 
Heartbeat CPU 0 instructions: 20000000 cycles: 5000928 heartbeat IPC: 3.99914 cumulative IPC: 3.99926 (Simulation time: 0 hr 1 min 20 sec) 
Heartbeat CPU 0 instructions: 30000001 cycles: 7501315 heartbeat IPC: 3.99939 cumulative IPC: 3.9993 (Simulation time: 0 hr 2 min 5 sec) 
Heartbeat CPU 0 instructions: 40000002 cycles: 10002129 heartbeat IPC: 3.9987 cumulative IPC: 3.99915 (Simulation time: 0 hr 2 min 50 sec) 
Heartbeat CPU 0 instructions: 50000000 cycles: 12577967 heartbeat IPC: 3.88224 cumulative IPC: 3.97521 (Simulation time: 0 hr 3 min 32 sec) 
Warmup finished CPU 0 instructions: 50000000 cycles: 12577968 cumulative IPC: 3.97521 (Simulation time: 0 hr 3 min 32 sec) 

Warmup complete CPU 0 instructions: 50000000 cycles: 12577968 (Simulation time: 0 hr 3 min 32 sec) 

Heartbeat CPU 0 instructions: 60000004 cycles: 28795983 heartbeat IPC: 0.616599 cumulative IPC: 0.616599 (Simulation time: 0 hr 4 min 42 sec) 
Heartbeat CPU 0 instructions: 70000002 cycles: 50608478 heartbeat IPC: 0.458453 cumulative IPC: 0.525894 (Simulation time: 0 hr 5 min 59 sec) 
Heartbeat CPU 0 instructions: 80000002 cycles: 82837909 heartbeat IPC: 0.310276 cumulative IPC: 0.426986 (Simulation time: 0 hr 7 min 30 sec) 
Heartbeat CPU 0 instructions: 90000002 cycles: 114736697 heartbeat IPC: 0.313492 cumulative IPC: 0.391548 (Simulation time: 0 hr 9 min 1 sec) 
Heartbeat CPU 0 instructions: 100000000 cycles: 147110143 heartbeat IPC: 0.308896 cumulative IPC: 0.371659 (Simulation time: 0 hr 10 min 34 sec) 
Heartbeat CPU 0 instructions: 110000000 cycles: 178517895 heartbeat IPC: 0.318393 cumulative IPC: 0.361577 (Simulation time: 0 hr 12 min 6 sec) 
Heartbeat CPU 0 instructions: 120000003 cycles: 211526119 heartbeat IPC: 0.302955 cumulative IPC: 0.351851 (Simulation time: 0 hr 13 min 47 sec) 
Heartbeat CPU 0 instructions: 130000001 cycles: 244540139 heartbeat IPC: 0.302902 cumulative IPC: 0.344884 (Simulation time: 0 hr 15 min 28 sec) 
Heartbeat CPU 0 instructions: 140000002 cycles: 277000574 heartbeat IPC: 0.308068 cumulative IPC: 0.340365 (Simulation time: 0 hr 17 min 4 sec) 
Heartbeat CPU 0 instructions: 150000000 cycles: 310348242 heartbeat IPC: 0.299871 cumulative IPC: 0.33583 (Simulation time: 0 hr 18 min 46 sec) 
Simulation finished CPU 0 instructions: 100000000 cycles: 297770275 cumulative IPC: 0.33583 (Simulation time: 0 hr 18 min 46 sec) 

Simulation complete CPU 0 instructions: 100000000 cycles: 297770275 (Simulation time: 0 hr 18 min 46 sec) 


ChampSim completed all CPUs

Saving instructions large page distribution to /home/bsc/bsc018186/scratch/itp_asplos25_AE/dump/smt_srv85_ap_srv194_ap_1024i.pdst...
Saving data large page distribution to /home/bsc/bsc018186/scratch/itp_asplos25_AE/dump/smt_srv85_ap_srv194_ap_1024i.pdst...
=== Simulation ===
CPU 0 runs /gpfs/projects/bsc18/MN4/bsc18/romol/ChampSim/traces/qualcomm_srv/smt_srv85_ap_srv194_ap_1024i.champsimtrace.xz

Region of Interest Statistics

CPU 0 cumulative IPC: 0.33583 instructions: 100000000 cycles: 297770275
CPU 0 Branch Prediction Accuracy: 76.7098% MPKI: 44.3237 Average ROB Occupancy at Mispredict: 10.6107
Branch type MPKI
BRANCH_DIRECT_JUMP: 1.39154
BRANCH_INDIRECT: 23.3942
BRANCH_CONDITIONAL: 12.3325
BRANCH_DIRECT_CALL: 2.62713
BRANCH_INDIRECT_CALL: 1.1123
BRANCH_RETURN: 3.46615

Instructions large pages: 0
Instructions small pages: 11317
Large page distribution for instructions: 0%

Data large pages: 0
Data small pages: 9525
Large page distribution for data: 0%

cpu0_L1I TOTAL       ACCESS:   39850675  HIT:   31555201  MISS:    8295474  iACCESS:   39850675  iHIT:   31555201  iMISS:    8295474  dACCESS:          0  dHIT:          0  dMISS:          0  itACCESS:          0  itHIT:          0  itMISS:          0  dtACCESS:          0  dtHIT:          0  dtMISS:          0
cpu0_L1I LOAD         ACCESS:   11470466  HIT:    9202486  MISS:    2267980  iACCESS:   11470466  iHIT:    9202486  iMISS:    2267980  dACCESS:          0  dHIT:          0  dMISS:          0  itACCESS:          0  itHIT:          0  itMISS:          0  dtACCESS:          0  dtHIT:          0  dtMISS:          0
cpu0_L1I RFO          ACCESS:          0  HIT:          0  MISS:          0  iACCESS:          0  iHIT:          0  iMISS:          0  dACCESS:          0  dHIT:          0  dMISS:          0  itACCESS:          0  itHIT:          0  itMISS:          0  dtACCESS:          0  dtHIT:          0  dtMISS:          0
cpu0_L1I PREFETCH     ACCESS:   28380209  HIT:   22352715  MISS:    6027494  iACCESS:   28380209  iHIT:   22352715  iMISS:    6027494  dACCESS:          0  dHIT:          0  dMISS:          0  itACCESS:          0  itHIT:          0  itMISS:          0  dtACCESS:          0  dtHIT:          0  dtMISS:          0
cpu0_L1I WRITE        ACCESS:          0  HIT:          0  MISS:          0  iACCESS:          0  iHIT:          0  iMISS:          0  dACCESS:          0  dHIT:          0  dMISS:          0  itACCESS:          0  itHIT:          0  itMISS:          0  dtACCESS:          0  dtHIT:          0  dtMISS:          0
cpu0_L1I TRANSLATION  ACCESS:          0  HIT:          0  MISS:          0  iACCESS:          0  iHIT:          0  iMISS:          0  dACCESS:          0  dHIT:          0  dMISS:          0  itACCESS:          0  itHIT:          0  itMISS:          0  dtACCESS:          0  dtHIT:          0  dtMISS:          0
cpu0_L1I PREFETCH  REQUESTED:   31027450  ISSUED:   31027418  CROSSED:          0  USEFUL:    2091479  USELESS:     752635
cpu0_L1I AVERAGE iMISS LATENCY: 25.0745 cycles
cpu0_L1I AVERAGE dMISS LATENCY: 0 cycles
cpu0_L1I AVERAGE itMISS LATENCY: 0 cycles
cpu0_L1I AVERAGE dtMISS LATENCY: 0 cycles
cpu0_L1I PAGE CROSSINGS (TLB HIT):         0 
cpu0_L1I PAGE CROSSINGS (TLB MISS):         0 
cpu0_L1I AVERAGE MISS LATENCY: 25.0745 cycles
cpu0_ITLB TOTAL       ACCESS:   33721027  HIT:   31545193  MISS:    2175834  iACCESS:   33721027  iHIT:   31545193  iMISS:    2175834  dACCESS:          0  dHIT:          0  dMISS:          0  itACCESS:          0  itHIT:          0  itMISS:          0  dtACCESS:          0  dtHIT:          0  dtMISS:          0
cpu0_ITLB LOAD         ACCESS:   33721027  HIT:   31545193  MISS:    2175834  iACCESS:   33721027  iHIT:   31545193  iMISS:    2175834  dACCESS:          0  dHIT:          0  dMISS:          0  itACCESS:          0  itHIT:          0  itMISS:          0  dtACCESS:          0  dtHIT:          0  dtMISS:          0
cpu0_ITLB RFO          ACCESS:          0  HIT:          0  MISS:          0  iACCESS:          0  iHIT:          0  iMISS:          0  dACCESS:          0  dHIT:          0  dMISS:          0  itACCESS:          0  itHIT:          0  itMISS:          0  dtACCESS:          0  dtHIT:          0  dtMISS:          0
cpu0_ITLB PREFETCH     ACCESS:          0  HIT:          0  MISS:          0  iACCESS:          0  iHIT:          0  iMISS:          0  dACCESS:          0  dHIT:          0  dMISS:          0  itACCESS:          0  itHIT:          0  itMISS:          0  dtACCESS:          0  dtHIT:          0  dtMISS:          0
cpu0_ITLB WRITE        ACCESS:          0  HIT:          0  MISS:          0  iACCESS:          0  iHIT:          0  iMISS:          0  dACCESS:          0  dHIT:          0  dMISS:          0  itACCESS:          0  itHIT:          0  itMISS:          0  dtACCESS:          0  dtHIT:          0  dtMISS:          0
cpu0_ITLB TRANSLATION  ACCESS:          0  HIT:          0  MISS:          0  iACCESS:          0  iHIT:          0  iMISS:          0  dACCESS:          0  dHIT:          0  dMISS:          0  itACCESS:          0  itHIT:          0  itMISS:          0  dtACCESS:          0  dtHIT:          0  dtMISS:          0
cpu0_ITLB PREFETCH  REQUESTED:          0  ISSUED:          0  CROSSED:          0  USEFUL:     380644  USELESS:      82547
cpu0_ITLB AVERAGE iMISS LATENCY: 10.9236 cycles
cpu0_ITLB AVERAGE dMISS LATENCY: 0 cycles
cpu0_ITLB AVERAGE itMISS LATENCY: 0 cycles
cpu0_ITLB AVERAGE dtMISS LATENCY: 0 cycles
cpu0_ITLB PAGE CROSSINGS (TLB HIT):         0 
cpu0_ITLB PAGE CROSSINGS (TLB MISS):         0 
cpu0_ITLB AVERAGE MISS LATENCY: 10.9236 cycles
cpu0_DTLB TOTAL       ACCESS:   30333967  HIT:   25074892  MISS:    5259075  iACCESS:          0  iHIT:          0  iMISS:          0  dACCESS:   30333967  dHIT:   25074892  dMISS:    5259075  itACCESS:          0  itHIT:          0  itMISS:          0  dtACCESS:          0  dtHIT:          0  dtMISS:          0
cpu0_DTLB LOAD         ACCESS:   30333967  HIT:   25074892  MISS:    5259075  iACCESS:          0  iHIT:          0  iMISS:          0  dACCESS:   30333967  dHIT:   25074892  dMISS:    5259075  itACCESS:          0  itHIT:          0  itMISS:          0  dtACCESS:          0  dtHIT:          0  dtMISS:          0
cpu0_DTLB RFO          ACCESS:          0  HIT:          0  MISS:          0  iACCESS:          0  iHIT:          0  iMISS:          0  dACCESS:          0  dHIT:          0  dMISS:          0  itACCESS:          0  itHIT:          0  itMISS:          0  dtACCESS:          0  dtHIT:          0  dtMISS:          0
cpu0_DTLB PREFETCH     ACCESS:          0  HIT:          0  MISS:          0  iACCESS:          0  iHIT:          0  iMISS:          0  dACCESS:          0  dHIT:          0  dMISS:          0  itACCESS:          0  itHIT:          0  itMISS:          0  dtACCESS:          0  dtHIT:          0  dtMISS:          0
cpu0_DTLB WRITE        ACCESS:          0  HIT:          0  MISS:          0  iACCESS:          0  iHIT:          0  iMISS:          0  dACCESS:          0  dHIT:          0  dMISS:          0  itACCESS:          0  itHIT:          0  itMISS:          0  dtACCESS:          0  dtHIT:          0  dtMISS:          0
cpu0_DTLB TRANSLATION  ACCESS:          0  HIT:          0  MISS:          0  iACCESS:          0  iHIT:          0  iMISS:          0  dACCESS:          0  dHIT:          0  dMISS:          0  itACCESS:          0  itHIT:          0  itMISS:          0  dtACCESS:          0  dtHIT:          0  dtMISS:          0
cpu0_DTLB PREFETCH  REQUESTED:          0  ISSUED:          0  CROSSED:          0  USEFUL:          0  USELESS:          0
cpu0_DTLB AVERAGE iMISS LATENCY: 0 cycles
cpu0_DTLB AVERAGE dMISS LATENCY: 17.9123 cycles
cpu0_DTLB AVERAGE itMISS LATENCY: 0 cycles
cpu0_DTLB AVERAGE dtMISS LATENCY: 0 cycles
cpu0_DTLB PAGE CROSSINGS (TLB HIT):         0 
cpu0_DTLB PAGE CROSSINGS (TLB MISS):         0 
cpu0_DTLB AVERAGE MISS LATENCY: 17.9123 cycles
cpu0_STLB TOTAL       ACCESS:    3332973  HIT:    2964131  MISS:     368842  iACCESS:     463190  iHIT:     347279  iMISS:     115911  dACCESS:    2869783  dHIT:    2616852  dMISS:     252931  itACCESS:          0  itHIT:          0  itMISS:          0  dtACCESS:          0  dtHIT:          0  dtMISS:          0
cpu0_STLB LOAD         ACCESS:    3332973  HIT:    2964131  MISS:     368842  iACCESS:     463190  iHIT:     347279  iMISS:     115911  dACCESS:    2869783  dHIT:    2616852  dMISS:     252931  itACCESS:          0  itHIT:          0  itMISS:          0  dtACCESS:          0  dtHIT:          0  dtMISS:          0
cpu0_STLB RFO          ACCESS:          0  HIT:          0  MISS:          0  iACCESS:          0  iHIT:          0  iMISS:          0  dACCESS:          0  dHIT:          0  dMISS:          0  itACCESS:          0  itHIT:          0  itMISS:          0  dtACCESS:          0  dtHIT:          0  dtMISS:          0
cpu0_STLB PREFETCH     ACCESS:          0  HIT:          0  MISS:          0  iACCESS:          0  iHIT:          0  iMISS:          0  dACCESS:          0  dHIT:          0  dMISS:          0  itACCESS:          0  itHIT:          0  itMISS:          0  dtACCESS:          0  dtHIT:          0  dtMISS:          0
cpu0_STLB WRITE        ACCESS:          0  HIT:          0  MISS:          0  iACCESS:          0  iHIT:          0  iMISS:          0  dACCESS:          0  dHIT:          0  dMISS:          0  itACCESS:          0  itHIT:          0  itMISS:          0  dtACCESS:          0  dtHIT:          0  dtMISS:          0
cpu0_STLB TRANSLATION  ACCESS:          0  HIT:          0  MISS:          0  iACCESS:          0  iHIT:          0  iMISS:          0  dACCESS:          0  dHIT:          0  dMISS:          0  itACCESS:          0  itHIT:          0  itMISS:          0  dtACCESS:          0  dtHIT:          0  dtMISS:          0
cpu0_STLB PREFETCH  REQUESTED:          0  ISSUED:          0  CROSSED:          0  USEFUL:          0  USELESS:          0
cpu0_STLB AVERAGE iMISS LATENCY: 54.3853 cycles
cpu0_STLB AVERAGE dMISS LATENCY: 192.449 cycles
cpu0_STLB AVERAGE itMISS LATENCY: 0 cycles
cpu0_STLB AVERAGE dtMISS LATENCY: 0 cycles
cpu0_STLB PAGE CROSSINGS (TLB HIT):         0 
cpu0_STLB PAGE CROSSINGS (TLB MISS):         0 
cpu0_STLB AVERAGE MISS LATENCY: 246.835 cycles
cpu0_L1D TOTAL       ACCESS:   47298643  HIT:   39760722  MISS:    7537921  iACCESS:          0  iHIT:          0  iMISS:          0  dACCESS:   46757686  dHIT:   39730345  dMISS:    7027341  itACCESS:     130323  itHIT:      13392  itMISS:     116931  dtACCESS:     410634  dtHIT:      16985  dtMISS:     393649
cpu0_L1D LOAD         ACCESS:   21989141  HIT:   18253497  MISS:    3735644  iACCESS:          0  iHIT:          0  iMISS:          0  dACCESS:   21989141  dHIT:   18253497  dMISS:    3735644  itACCESS:          0  itHIT:          0  itMISS:          0  dtACCESS:          0  dtHIT:          0  dtMISS:          0
cpu0_L1D RFO          ACCESS:          0  HIT:          0  MISS:          0  iACCESS:          0  iHIT:          0  iMISS:          0  dACCESS:          0  dHIT:          0  dMISS:          0  itACCESS:          0  itHIT:          0  itMISS:          0  dtACCESS:          0  dtHIT:          0  dtMISS:          0
cpu0_L1D PREFETCH     ACCESS:   14709748  HIT:   12035694  MISS:    2674054  iACCESS:          0  iHIT:          0  iMISS:          0  dACCESS:   14709748  dHIT:   12035694  dMISS:    2674054  itACCESS:          0  itHIT:          0  itMISS:          0  dtACCESS:          0  dtHIT:          0  dtMISS:          0
cpu0_L1D WRITE        ACCESS:   10058797  HIT:    9441154  MISS:     617643  iACCESS:          0  iHIT:          0  iMISS:          0  dACCESS:   10058797  dHIT:    9441154  dMISS:     617643  itACCESS:          0  itHIT:          0  itMISS:          0  dtACCESS:          0  dtHIT:          0  dtMISS:          0
cpu0_L1D TRANSLATION  ACCESS:     540957  HIT:      30377  MISS:     510580  iACCESS:          0  iHIT:          0  iMISS:          0  dACCESS:          0  dHIT:          0  dMISS:          0  itACCESS:     130323  itHIT:      13392  itMISS:     116931  dtACCESS:     410634  dtHIT:      16985  dtMISS:     393649
cpu0_L1D PREFETCH  REQUESTED:   21989141  ISSUED:   18875803  CROSSED:          0  USEFUL:     332474  USELESS:    1059861
cpu0_L1D AVERAGE iMISS LATENCY: 0 cycles
cpu0_L1D AVERAGE dMISS LATENCY: 39.0211 cycles
cpu0_L1D AVERAGE itMISS LATENCY: 2.51618 cycles
cpu0_L1D AVERAGE dtMISS LATENCY: 8.83666 cycles
cpu0_L1D PAGE CROSSINGS (TLB HIT):         0 
cpu0_L1D PAGE CROSSINGS (TLB MISS):         0 
cpu0_L1D AVERAGE MISS LATENCY: 50.374 cycles
cpu0_L2C TOTAL       ACCESS:    9633981  HIT:    5405068  MISS:    4228913  iACCESS:    3632017  iHIT:    2181501  iMISS:    1450516  dACCESS:    5526193  dHIT:    3165953  dMISS:    2360240  itACCESS:     116361  itHIT:      19898  itMISS:      96463  dtACCESS:     359410  dtHIT:      37716  dtMISS:     321694
cpu0_L2C LOAD         ACCESS:    3179557  HIT:    2173190  MISS:    1006367  iACCESS:     820166  iHIT:     516039  iMISS:     304127  dACCESS:    2359391  dHIT:    1657151  dMISS:     702240  itACCESS:          0  itHIT:          0  itMISS:          0  dtACCESS:          0  dtHIT:          0  dtMISS:          0
cpu0_L2C RFO          ACCESS:     239941  HIT:     112696  MISS:     127245  iACCESS:          0  iHIT:          0  iMISS:          0  dACCESS:     239941  dHIT:     112696  dMISS:     127245  itACCESS:          0  itHIT:          0  itMISS:          0  dtACCESS:          0  dtHIT:          0  dtMISS:          0
cpu0_L2C PREFETCH     ACCESS:    5402620  HIT:    2728751  MISS:    2673869  iACCESS:    2811851  iHIT:    1665462  iMISS:    1146389  dACCESS:    2590769  dHIT:    1063289  dMISS:    1527480  itACCESS:          0  itHIT:          0  itMISS:          0  dtACCESS:          0  dtHIT:          0  dtMISS:          0
cpu0_L2C WRITE        ACCESS:     336092  HIT:     332817  MISS:       3275  iACCESS:          0  iHIT:          0  iMISS:          0  dACCESS:     336092  dHIT:     332817  dMISS:       3275  itACCESS:          0  itHIT:          0  itMISS:          0  dtACCESS:          0  dtHIT:          0  dtMISS:          0
cpu0_L2C TRANSLATION  ACCESS:     475771  HIT:      57614  MISS:     418157  iACCESS:          0  iHIT:          0  iMISS:          0  dACCESS:          0  dHIT:          0  dMISS:          0  itACCESS:     116361  itHIT:      19898  itMISS:      96463  dtACCESS:     359410  dtHIT:      37716  dtMISS:     321694
cpu0_L2C PREFETCH  REQUESTED:    1417314  ISSUED:    1417284  CROSSED:          0  USEFUL:     325799  USELESS:     305808
cpu0_L2C AVERAGE iMISS LATENCY: 42.073 cycles
cpu0_L2C AVERAGE dMISS LATENCY: 80.4149 cycles
cpu0_L2C AVERAGE itMISS LATENCY: 4.21375 cycles
cpu0_L2C AVERAGE dtMISS LATENCY: 14.9053 cycles
cpu0_L2C PAGE CROSSINGS (TLB HIT):         0 
cpu0_L2C PAGE CROSSINGS (TLB MISS):         0 
cpu0_L2C AVERAGE MISS LATENCY: 141.607 cycles
LLC TOTAL       ACCESS:    4222914  HIT:    1207381  MISS:    3015533  iACCESS:    1369172  iHIT:     416883  iMISS:     952289  dACCESS:    2435585  dHIT:     752198  dMISS:    1683387  itACCESS:      96463  itHIT:       7613  itMISS:      88850  dtACCESS:     321694  dtHIT:      30687  dtMISS:     291007
LLC LOAD         ACCESS:     998870  HIT:     297075  MISS:     701795  iACCESS:     303046  iHIT:      99754  iMISS:     203292  dACCESS:     695824  dHIT:     197321  dMISS:     498503  itACCESS:          0  itHIT:          0  itMISS:          0  dtACCESS:          0  dtHIT:          0  dtMISS:          0
LLC RFO          ACCESS:     127239  HIT:      34267  MISS:      92972  iACCESS:          0  iHIT:          0  iMISS:          0  dACCESS:     127239  dHIT:      34267  dMISS:      92972  itACCESS:          0  itHIT:          0  itMISS:          0  dtACCESS:          0  dtHIT:          0  dtMISS:          0
LLC PREFETCH     ACCESS:    2482547  HIT:     651881  MISS:    1830666  iACCESS:    1066126  iHIT:     317129  iMISS:     748997  dACCESS:    1416421  dHIT:     334752  dMISS:    1081669  itACCESS:          0  itHIT:          0  itMISS:          0  dtACCESS:          0  dtHIT:          0  dtMISS:          0
LLC WRITE        ACCESS:     196101  HIT:     185858  MISS:      10243  iACCESS:          0  iHIT:          0  iMISS:          0  dACCESS:     196101  dHIT:     185858  dMISS:      10243  itACCESS:          0  itHIT:          0  itMISS:          0  dtACCESS:          0  dtHIT:          0  dtMISS:          0
LLC TRANSLATION  ACCESS:     418157  HIT:      38300  MISS:     379857  iACCESS:          0  iHIT:          0  iMISS:          0  dACCESS:          0  dHIT:          0  dMISS:          0  itACCESS:      96463  itHIT:       7613  itMISS:      88850  dtACCESS:     321694  dtHIT:      30687  dtMISS:     291007
LLC PREFETCH  REQUESTED:          0  ISSUED:          0  CROSSED:          0  USEFUL:          0  USELESS:          0
LLC AVERAGE iMISS LATENCY: 50.055 cycles
LLC AVERAGE dMISS LATENCY: 98.9994 cycles
LLC AVERAGE itMISS LATENCY: 5.27492 cycles
LLC AVERAGE dtMISS LATENCY: 18.7933 cycles
LLC PAGE CROSSINGS (TLB HIT):         0 
LLC PAGE CROSSINGS (TLB MISS):         0 
LLC AVERAGE MISS LATENCY: 173.123 cycles

PageTableWalker TOTAL       ACCESS:     182459  
PageTableWalker AVERAGE LATENCY: 6.55343 cycles
PageTableWalker TOTAL LATENCY: 1195732 cycles

DRAM Statistics
Channel 0
 RQ ROW_BUFFER_HIT:     623375
  ROW_BUFFER_MISS:    2365038
 AVG DBUS CONGESTED CYCLE:    3.65085
 WQ ROW_BUFFER_HIT:      63828
  ROW_BUFFER_MISS:      56212  FULL:          0

