last_page:0x200000000000000
VMEM_RES_CAP:0x100000
PAGE_SIZE:4096
LOG2_PAGE_SIZE:12
LOG2_PAGE_TABLE_SIZE:9
page_table_levels:5
WARNING: physical memory size is smaller than virtual memory size
FDiP enabled with aggresivity 16

*** ChampSim Multicore Out-of-Order Simulator ***

Warmup Instructions: 50000000
Simulation Instructions: 100000000
Number of CPUs: 1
Small page size: 4096
Large page size: 2097152

CPU 0 Bimodal branch predictor
Basic BTB sets: 1024 ways: 8 indirect buffer size: 4096 RAS size: 64
Instruction page size distrubution: 0
Loading instruction page size distribution from /home/bsc/bsc018186/scratch/itp_asplos25_AE/dump/smt_srv85_ap_srv495_ap_1024i.pdst
Data page size distrubution: 0
Loading data page size distribution from /home/bsc/bsc018186/scratch/itp_asplos25_AE/dump/smt_srv85_ap_srv495_ap_1024i.pdst
cpu0_L2C IP-based stride prefetcher
cpu0_L1D next line prefetcher
cpu0_STLB using iTP with max lru@8
cpu0_STLB using iTP with instr@0 and data@2
Init sat counter with 3 bits (max:50).
cpu0_L1I next line prefetcher
Off-chip DRAM Size: 4 GiB Channels: 1 Width: 64-bit Data Rate: 3200 MT/s
Heartbeat CPU 0 instructions: 10000003 cycles: 2500271 heartbeat IPC: 3.99957 cumulative IPC: 3.99957 (Simulation time: 0 hr 0 min 38 sec) 
Heartbeat CPU 0 instructions: 20000002 cycles: 5000340 heartbeat IPC: 3.99989 cumulative IPC: 3.99973 (Simulation time: 0 hr 1 min 18 sec) 
Heartbeat CPU 0 instructions: 30000001 cycles: 7500380 heartbeat IPC: 3.99994 cumulative IPC: 3.9998 (Simulation time: 0 hr 1 min 58 sec) 
Heartbeat CPU 0 instructions: 40000002 cycles: 10000585 heartbeat IPC: 3.99968 cumulative IPC: 3.99977 (Simulation time: 0 hr 2 min 39 sec) 
Heartbeat CPU 0 instructions: 50000002 cycles: 12500682 heartbeat IPC: 3.99985 cumulative IPC: 3.99979 (Simulation time: 0 hr 3 min 21 sec) 
Warmup finished CPU 0 instructions: 50000002 cycles: 12500683 cumulative IPC: 3.99979 (Simulation time: 0 hr 3 min 21 sec) 

Warmup complete CPU 0 instructions: 50000002 cycles: 12500683 (Simulation time: 0 hr 3 min 21 sec) 

Heartbeat CPU 0 instructions: 60000001 cycles: 43461379 heartbeat IPC: 0.322991 cumulative IPC: 0.322991 (Simulation time: 0 hr 4 min 50 sec) 
Heartbeat CPU 0 instructions: 70000003 cycles: 74608348 heartbeat IPC: 0.321059 cumulative IPC: 0.322022 (Simulation time: 0 hr 6 min 22 sec) 
Heartbeat CPU 0 instructions: 80000000 cycles: 105825268 heartbeat IPC: 0.32034 cumulative IPC: 0.321459 (Simulation time: 0 hr 7 min 55 sec) 
Heartbeat CPU 0 instructions: 90000002 cycles: 137153959 heartbeat IPC: 0.319197 cumulative IPC: 0.320891 (Simulation time: 0 hr 9 min 28 sec) 
Heartbeat CPU 0 instructions: 100000000 cycles: 167860708 heartbeat IPC: 0.325662 cumulative IPC: 0.321834 (Simulation time: 0 hr 10 min 57 sec) 
Heartbeat CPU 0 instructions: 110000000 cycles: 199315702 heartbeat IPC: 0.317915 cumulative IPC: 0.321174 (Simulation time: 0 hr 12 min 29 sec) 
Heartbeat CPU 0 instructions: 120000000 cycles: 229775382 heartbeat IPC: 0.328303 cumulative IPC: 0.322173 (Simulation time: 0 hr 13 min 55 sec) 
Heartbeat CPU 0 instructions: 130000002 cycles: 260856111 heartbeat IPC: 0.321743 cumulative IPC: 0.322119 (Simulation time: 0 hr 15 min 20 sec) 
Heartbeat CPU 0 instructions: 140000004 cycles: 291543647 heartbeat IPC: 0.325866 cumulative IPC: 0.322531 (Simulation time: 0 hr 16 min 45 sec) 
Heartbeat CPU 0 instructions: 150000000 cycles: 322464893 heartbeat IPC: 0.323403 cumulative IPC: 0.322618 (Simulation time: 0 hr 18 min 9 sec) 
Simulation finished CPU 0 instructions: 100000003 cycles: 309964212 cumulative IPC: 0.322618 (Simulation time: 0 hr 18 min 9 sec) 

Simulation complete CPU 0 instructions: 100000003 cycles: 309964212 (Simulation time: 0 hr 18 min 9 sec) 


ChampSim completed all CPUs

Saving instructions large page distribution to /home/bsc/bsc018186/scratch/itp_asplos25_AE/dump/smt_srv85_ap_srv495_ap_1024i.pdst...
Saving data large page distribution to /home/bsc/bsc018186/scratch/itp_asplos25_AE/dump/smt_srv85_ap_srv495_ap_1024i.pdst...
=== Simulation ===
CPU 0 runs /gpfs/projects/bsc18/MN4/bsc18/romol/ChampSim/traces/qualcomm_srv/smt_srv85_ap_srv495_ap_1024i.champsimtrace.xz

Region of Interest Statistics

CPU 0 cumulative IPC: 0.322618 instructions: 100000003 cycles: 309964212
CPU 0 Branch Prediction Accuracy: 74.693% MPKI: 45.6057 Average ROB Occupancy at Mispredict: 10.7388
Branch type MPKI
BRANCH_DIRECT_JUMP: 1.43109
BRANCH_INDIRECT: 23.5974
BRANCH_CONDITIONAL: 13.2603
BRANCH_DIRECT_CALL: 2.72313
BRANCH_INDIRECT_CALL: 1.02023
BRANCH_RETURN: 3.57353

Instructions large pages: 0
Instructions small pages: 9904
Large page distribution for instructions: 0%

Data large pages: 0
Data small pages: 8542
Large page distribution for data: 0%

cpu0_L1I TOTAL       ACCESS:   39466838  HIT:   30633030  MISS:    8833808  iACCESS:   39466838  iHIT:   30633030  iMISS:    8833808  dACCESS:          0  dHIT:          0  dMISS:          0  itACCESS:          0  itHIT:          0  itMISS:          0  dtACCESS:          0  dtHIT:          0  dtMISS:          0
cpu0_L1I LOAD         ACCESS:   11826526  HIT:    9426751  MISS:    2399775  iACCESS:   11826526  iHIT:    9426751  iMISS:    2399775  dACCESS:          0  dHIT:          0  dMISS:          0  itACCESS:          0  itHIT:          0  itMISS:          0  dtACCESS:          0  dtHIT:          0  dtMISS:          0
cpu0_L1I RFO          ACCESS:          0  HIT:          0  MISS:          0  iACCESS:          0  iHIT:          0  iMISS:          0  dACCESS:          0  dHIT:          0  dMISS:          0  itACCESS:          0  itHIT:          0  itMISS:          0  dtACCESS:          0  dtHIT:          0  dtMISS:          0
cpu0_L1I PREFETCH     ACCESS:   27640312  HIT:   21206279  MISS:    6434033  iACCESS:   27640312  iHIT:   21206279  iMISS:    6434033  dACCESS:          0  dHIT:          0  dMISS:          0  itACCESS:          0  itHIT:          0  itMISS:          0  dtACCESS:          0  dtHIT:          0  dtMISS:          0
cpu0_L1I WRITE        ACCESS:          0  HIT:          0  MISS:          0  iACCESS:          0  iHIT:          0  iMISS:          0  dACCESS:          0  dHIT:          0  dMISS:          0  itACCESS:          0  itHIT:          0  itMISS:          0  dtACCESS:          0  dtHIT:          0  dtMISS:          0
cpu0_L1I TRANSLATION  ACCESS:          0  HIT:          0  MISS:          0  iACCESS:          0  iHIT:          0  iMISS:          0  dACCESS:          0  dHIT:          0  dMISS:          0  itACCESS:          0  itHIT:          0  itMISS:          0  dtACCESS:          0  dtHIT:          0  dtMISS:          0
cpu0_L1I PREFETCH  REQUESTED:   30467936  ISSUED:   30467762  CROSSED:          0  USEFUL:    2243146  USELESS:     780696
cpu0_L1I AVERAGE iMISS LATENCY: 25.0244 cycles
cpu0_L1I AVERAGE dMISS LATENCY: 0 cycles
cpu0_L1I AVERAGE itMISS LATENCY: 0 cycles
cpu0_L1I AVERAGE dtMISS LATENCY: 0 cycles
cpu0_L1I PAGE CROSSINGS (TLB HIT):         0 
cpu0_L1I PAGE CROSSINGS (TLB MISS):         0 
cpu0_L1I AVERAGE MISS LATENCY: 25.0244 cycles
cpu0_ITLB TOTAL       ACCESS:   33439288  HIT:   31169660  MISS:    2269628  iACCESS:   33439288  iHIT:   31169660  iMISS:    2269628  dACCESS:          0  dHIT:          0  dMISS:          0  itACCESS:          0  itHIT:          0  itMISS:          0  dtACCESS:          0  dtHIT:          0  dtMISS:          0
cpu0_ITLB LOAD         ACCESS:   33439288  HIT:   31169660  MISS:    2269628  iACCESS:   33439288  iHIT:   31169660  iMISS:    2269628  dACCESS:          0  dHIT:          0  dMISS:          0  itACCESS:          0  itHIT:          0  itMISS:          0  dtACCESS:          0  dtHIT:          0  dtMISS:          0
cpu0_ITLB RFO          ACCESS:          0  HIT:          0  MISS:          0  iACCESS:          0  iHIT:          0  iMISS:          0  dACCESS:          0  dHIT:          0  dMISS:          0  itACCESS:          0  itHIT:          0  itMISS:          0  dtACCESS:          0  dtHIT:          0  dtMISS:          0
cpu0_ITLB PREFETCH     ACCESS:          0  HIT:          0  MISS:          0  iACCESS:          0  iHIT:          0  iMISS:          0  dACCESS:          0  dHIT:          0  dMISS:          0  itACCESS:          0  itHIT:          0  itMISS:          0  dtACCESS:          0  dtHIT:          0  dtMISS:          0
cpu0_ITLB WRITE        ACCESS:          0  HIT:          0  MISS:          0  iACCESS:          0  iHIT:          0  iMISS:          0  dACCESS:          0  dHIT:          0  dMISS:          0  itACCESS:          0  itHIT:          0  itMISS:          0  dtACCESS:          0  dtHIT:          0  dtMISS:          0
cpu0_ITLB TRANSLATION  ACCESS:          0  HIT:          0  MISS:          0  iACCESS:          0  iHIT:          0  iMISS:          0  dACCESS:          0  dHIT:          0  dMISS:          0  itACCESS:          0  itHIT:          0  itMISS:          0  dtACCESS:          0  dtHIT:          0  dtMISS:          0
cpu0_ITLB PREFETCH  REQUESTED:          0  ISSUED:          0  CROSSED:          0  USEFUL:     397088  USELESS:      81321
cpu0_ITLB AVERAGE iMISS LATENCY: 6.83644 cycles
cpu0_ITLB AVERAGE dMISS LATENCY: 0 cycles
cpu0_ITLB AVERAGE itMISS LATENCY: 0 cycles
cpu0_ITLB AVERAGE dtMISS LATENCY: 0 cycles
cpu0_ITLB PAGE CROSSINGS (TLB HIT):         0 
cpu0_ITLB PAGE CROSSINGS (TLB MISS):         0 
cpu0_ITLB AVERAGE MISS LATENCY: 6.83644 cycles
cpu0_DTLB TOTAL       ACCESS:   28879283  HIT:   25233048  MISS:    3646235  iACCESS:          0  iHIT:          0  iMISS:          0  dACCESS:   28879283  dHIT:   25233048  dMISS:    3646235  itACCESS:          0  itHIT:          0  itMISS:          0  dtACCESS:          0  dtHIT:          0  dtMISS:          0
cpu0_DTLB LOAD         ACCESS:   28879283  HIT:   25233048  MISS:    3646235  iACCESS:          0  iHIT:          0  iMISS:          0  dACCESS:   28879283  dHIT:   25233048  dMISS:    3646235  itACCESS:          0  itHIT:          0  itMISS:          0  dtACCESS:          0  dtHIT:          0  dtMISS:          0
cpu0_DTLB RFO          ACCESS:          0  HIT:          0  MISS:          0  iACCESS:          0  iHIT:          0  iMISS:          0  dACCESS:          0  dHIT:          0  dMISS:          0  itACCESS:          0  itHIT:          0  itMISS:          0  dtACCESS:          0  dtHIT:          0  dtMISS:          0
cpu0_DTLB PREFETCH     ACCESS:          0  HIT:          0  MISS:          0  iACCESS:          0  iHIT:          0  iMISS:          0  dACCESS:          0  dHIT:          0  dMISS:          0  itACCESS:          0  itHIT:          0  itMISS:          0  dtACCESS:          0  dtHIT:          0  dtMISS:          0
cpu0_DTLB WRITE        ACCESS:          0  HIT:          0  MISS:          0  iACCESS:          0  iHIT:          0  iMISS:          0  dACCESS:          0  dHIT:          0  dMISS:          0  itACCESS:          0  itHIT:          0  itMISS:          0  dtACCESS:          0  dtHIT:          0  dtMISS:          0
cpu0_DTLB TRANSLATION  ACCESS:          0  HIT:          0  MISS:          0  iACCESS:          0  iHIT:          0  iMISS:          0  dACCESS:          0  dHIT:          0  dMISS:          0  itACCESS:          0  itHIT:          0  itMISS:          0  dtACCESS:          0  dtHIT:          0  dtMISS:          0
cpu0_DTLB PREFETCH  REQUESTED:          0  ISSUED:          0  CROSSED:          0  USEFUL:          0  USELESS:          0
cpu0_DTLB AVERAGE iMISS LATENCY: 0 cycles
cpu0_DTLB AVERAGE dMISS LATENCY: 28.7532 cycles
cpu0_DTLB AVERAGE itMISS LATENCY: 0 cycles
cpu0_DTLB AVERAGE dtMISS LATENCY: 0 cycles
cpu0_DTLB PAGE CROSSINGS (TLB HIT):         0 
cpu0_DTLB PAGE CROSSINGS (TLB MISS):         0 
cpu0_DTLB AVERAGE MISS LATENCY: 28.7532 cycles
cpu0_STLB TOTAL       ACCESS:    2612129  HIT:    2225124  MISS:     387005  iACCESS:     478409  iHIT:     417834  iMISS:      60575  dACCESS:    2133720  dHIT:    1807290  dMISS:     326430  itACCESS:          0  itHIT:          0  itMISS:          0  dtACCESS:          0  dtHIT:          0  dtMISS:          0
cpu0_STLB LOAD         ACCESS:    2612129  HIT:    2225124  MISS:     387005  iACCESS:     478409  iHIT:     417834  iMISS:      60575  dACCESS:    2133720  dHIT:    1807290  dMISS:     326430  itACCESS:          0  itHIT:          0  itMISS:          0  dtACCESS:          0  dtHIT:          0  dtMISS:          0
cpu0_STLB RFO          ACCESS:          0  HIT:          0  MISS:          0  iACCESS:          0  iHIT:          0  iMISS:          0  dACCESS:          0  dHIT:          0  dMISS:          0  itACCESS:          0  itHIT:          0  itMISS:          0  dtACCESS:          0  dtHIT:          0  dtMISS:          0
cpu0_STLB PREFETCH     ACCESS:          0  HIT:          0  MISS:          0  iACCESS:          0  iHIT:          0  iMISS:          0  dACCESS:          0  dHIT:          0  dMISS:          0  itACCESS:          0  itHIT:          0  itMISS:          0  dtACCESS:          0  dtHIT:          0  dtMISS:          0
cpu0_STLB WRITE        ACCESS:          0  HIT:          0  MISS:          0  iACCESS:          0  iHIT:          0  iMISS:          0  dACCESS:          0  dHIT:          0  dMISS:          0  itACCESS:          0  itHIT:          0  itMISS:          0  dtACCESS:          0  dtHIT:          0  dtMISS:          0
cpu0_STLB TRANSLATION  ACCESS:          0  HIT:          0  MISS:          0  iACCESS:          0  iHIT:          0  iMISS:          0  dACCESS:          0  dHIT:          0  dMISS:          0  itACCESS:          0  itHIT:          0  itMISS:          0  dtACCESS:          0  dtHIT:          0  dtMISS:          0
cpu0_STLB PREFETCH  REQUESTED:          0  ISSUED:          0  CROSSED:          0  USEFUL:          0  USELESS:          0
cpu0_STLB AVERAGE iMISS LATENCY: 30.3629 cycles
cpu0_STLB AVERAGE dMISS LATENCY: 226.375 cycles
cpu0_STLB AVERAGE itMISS LATENCY: 0 cycles
cpu0_STLB AVERAGE dtMISS LATENCY: 0 cycles
cpu0_STLB PAGE CROSSINGS (TLB HIT):         0 
cpu0_STLB PAGE CROSSINGS (TLB MISS):         0 
cpu0_STLB AVERAGE MISS LATENCY: 256.738 cycles
cpu0_L1D TOTAL       ACCESS:   44983062  HIT:   39249205  MISS:    5733857  iACCESS:          0  iHIT:          0  iMISS:          0  dACCESS:   44393404  dHIT:   39220192  dMISS:    5173212  itACCESS:      71385  itHIT:       5293  itMISS:      66092  dtACCESS:     518273  dtHIT:      23720  dtMISS:     494553
cpu0_L1D LOAD         ACCESS:   20234968  HIT:   17912586  MISS:    2322382  iACCESS:          0  iHIT:          0  iMISS:          0  dACCESS:   20234968  dHIT:   17912586  dMISS:    2322382  itACCESS:          0  itHIT:          0  itMISS:          0  dtACCESS:          0  dtHIT:          0  dtMISS:          0
cpu0_L1D RFO          ACCESS:          0  HIT:          0  MISS:          0  iACCESS:          0  iHIT:          0  iMISS:          0  dACCESS:          0  dHIT:          0  dMISS:          0  itACCESS:          0  itHIT:          0  itMISS:          0  dtACCESS:          0  dtHIT:          0  dtMISS:          0
cpu0_L1D PREFETCH     ACCESS:   14009017  HIT:   11736163  MISS:    2272854  iACCESS:          0  iHIT:          0  iMISS:          0  dACCESS:   14009017  dHIT:   11736163  dMISS:    2272854  itACCESS:          0  itHIT:          0  itMISS:          0  dtACCESS:          0  dtHIT:          0  dtMISS:          0
cpu0_L1D WRITE        ACCESS:   10149419  HIT:    9571443  MISS:     577976  iACCESS:          0  iHIT:          0  iMISS:          0  dACCESS:   10149419  dHIT:    9571443  dMISS:     577976  itACCESS:          0  itHIT:          0  itMISS:          0  dtACCESS:          0  dtHIT:          0  dtMISS:          0
cpu0_L1D TRANSLATION  ACCESS:     589658  HIT:      29013  MISS:     560645  iACCESS:          0  iHIT:          0  iMISS:          0  dACCESS:          0  dHIT:          0  dMISS:          0  itACCESS:      71385  itHIT:       5293  itMISS:      66092  dtACCESS:     518273  dtHIT:      23720  dtMISS:     494553
cpu0_L1D PREFETCH  REQUESTED:   20234968  ISSUED:   18529324  CROSSED:          0  USEFUL:     361858  USELESS:     943389
cpu0_L1D AVERAGE iMISS LATENCY: 0 cycles
cpu0_L1D AVERAGE dMISS LATENCY: 51.1888 cycles
cpu0_L1D AVERAGE itMISS LATENCY: 1.94211 cycles
cpu0_L1D AVERAGE dtMISS LATENCY: 14.3506 cycles
cpu0_L1D PAGE CROSSINGS (TLB HIT):         0 
cpu0_L1D PAGE CROSSINGS (TLB MISS):         0 
cpu0_L1D AVERAGE MISS LATENCY: 67.4814 cycles
cpu0_L2C TOTAL       ACCESS:    8789554  HIT:    4192925  MISS:    4596629  iACCESS:    3843884  iHIT:    2301212  iMISS:    1542672  dACCESS:    4413549  dHIT:    1824428  dMISS:    2589121  itACCESS:      65590  itHIT:       9663  itMISS:      55927  dtACCESS:     466531  dtHIT:      57622  dtMISS:     408909
cpu0_L2C LOAD         ACCESS:    2085885  HIT:    1004549  MISS:    1081336  iACCESS:     857824  iHIT:     538969  iMISS:     318855  dACCESS:    1228061  dHIT:     465580  dMISS:     762481  itACCESS:          0  itHIT:          0  itMISS:          0  dtACCESS:          0  dtHIT:          0  dtMISS:          0
cpu0_L2C RFO          ACCESS:     216118  HIT:      80994  MISS:     135124  iACCESS:          0  iHIT:          0  iMISS:          0  dACCESS:     216118  dHIT:      80994  dMISS:     135124  itACCESS:          0  itHIT:          0  itMISS:          0  dtACCESS:          0  dtHIT:          0  dtMISS:          0
cpu0_L2C PREFETCH     ACCESS:    5609172  HIT:    2697954  MISS:    2911218  iACCESS:    2986060  iHIT:    1762243  iMISS:    1223817  dACCESS:    2623112  dHIT:     935711  dMISS:    1687401  itACCESS:          0  itHIT:          0  itMISS:          0  dtACCESS:          0  dtHIT:          0  dtMISS:          0
cpu0_L2C WRITE        ACCESS:     346258  HIT:     342143  MISS:       4115  iACCESS:          0  iHIT:          0  iMISS:          0  dACCESS:     346258  dHIT:     342143  dMISS:       4115  itACCESS:          0  itHIT:          0  itMISS:          0  dtACCESS:          0  dtHIT:          0  dtMISS:          0
cpu0_L2C TRANSLATION  ACCESS:     532121  HIT:      67285  MISS:     464836  iACCESS:          0  iHIT:          0  iMISS:          0  dACCESS:          0  dHIT:          0  dMISS:          0  itACCESS:      65590  itHIT:       9663  itMISS:      55927  dtACCESS:     466531  dtHIT:      57622  dtMISS:     408909
cpu0_L2C PREFETCH  REQUESTED:    1564286  ISSUED:    1564286  CROSSED:          0  USEFUL:     366343  USELESS:     334597
cpu0_L2C AVERAGE iMISS LATENCY: 41.1982 cycles
cpu0_L2C AVERAGE dMISS LATENCY: 79.6523 cycles
cpu0_L2C AVERAGE itMISS LATENCY: 2.28155 cycles
cpu0_L2C AVERAGE dtMISS LATENCY: 16.8926 cycles
cpu0_L2C PAGE CROSSINGS (TLB HIT):         0 
cpu0_L2C PAGE CROSSINGS (TLB MISS):         0 
cpu0_L2C AVERAGE MISS LATENCY: 140.025 cycles
LLC TOTAL       ACCESS:    4582932  HIT:    1336446  MISS:    3246486  iACCESS:    1448670  iHIT:     438443  iMISS:    1010227  dACCESS:    2669426  dHIT:     844743  dMISS:    1824683  itACCESS:      55927  itHIT:       3448  itMISS:      52479  dtACCESS:     408909  dtHIT:      49812  dtMISS:     359097
LLC LOAD         ACCESS:    1073998  HIT:     326398  MISS:     747600  iACCESS:     317603  iHIT:     103040  iMISS:     214563  dACCESS:     756395  dHIT:     223358  dMISS:     533037  itACCESS:          0  itHIT:          0  itMISS:          0  dtACCESS:          0  dtHIT:          0  dtMISS:          0
LLC RFO          ACCESS:     135123  HIT:      39743  MISS:      95380  iACCESS:          0  iHIT:          0  iMISS:          0  dACCESS:     135123  dHIT:      39743  dMISS:      95380  itACCESS:          0  itHIT:          0  itMISS:          0  dtACCESS:          0  dtHIT:          0  dtMISS:          0
LLC PREFETCH     ACCESS:    2690906  HIT:     709605  MISS:    1981301  iACCESS:    1131067  iHIT:     335403  iMISS:     795664  dACCESS:    1559839  dHIT:     374202  dMISS:    1185637  itACCESS:          0  itHIT:          0  itMISS:          0  dtACCESS:          0  dtHIT:          0  dtMISS:          0
LLC WRITE        ACCESS:     218069  HIT:     207440  MISS:      10629  iACCESS:          0  iHIT:          0  iMISS:          0  dACCESS:     218069  dHIT:     207440  dMISS:      10629  itACCESS:          0  itHIT:          0  itMISS:          0  dtACCESS:          0  dtHIT:          0  dtMISS:          0
LLC TRANSLATION  ACCESS:     464836  HIT:      53260  MISS:     411576  iACCESS:          0  iHIT:          0  iMISS:          0  dACCESS:          0  dHIT:          0  dMISS:          0  itACCESS:      55927  itHIT:       3448  itMISS:      52479  dtACCESS:     408909  dtHIT:      49812  dtMISS:     359097
LLC PREFETCH  REQUESTED:          0  ISSUED:          0  CROSSED:          0  USEFUL:          0  USELESS:          0
LLC AVERAGE iMISS LATENCY: 49.5404 cycles
LLC AVERAGE dMISS LATENCY: 98.7684 cycles
LLC AVERAGE itMISS LATENCY: 2.88855 cycles
LLC AVERAGE dtMISS LATENCY: 21.4286 cycles
LLC PAGE CROSSINGS (TLB HIT):         0 
LLC PAGE CROSSINGS (TLB MISS):         0 
LLC AVERAGE MISS LATENCY: 172.626 cycles

PageTableWalker TOTAL       ACCESS:     190910  
PageTableWalker AVERAGE LATENCY: 6.87297 cycles
PageTableWalker TOTAL LATENCY: 1312118 cycles

DRAM Statistics
Channel 0
 RQ ROW_BUFFER_HIT:     692707
  ROW_BUFFER_MISS:    2524361
 AVG DBUS CONGESTED CYCLE:    3.65033
 WQ ROW_BUFFER_HIT:      69804
  ROW_BUFFER_MISS:      59291  FULL:          0

