last_page:0x200000000000000
VMEM_RES_CAP:0x100000
PAGE_SIZE:4096
LOG2_PAGE_SIZE:12
LOG2_PAGE_TABLE_SIZE:9
page_table_levels:5
WARNING: physical memory size is smaller than virtual memory size
FDiP enabled with aggresivity 16

*** ChampSim Multicore Out-of-Order Simulator ***

Warmup Instructions: 50000000
Simulation Instructions: 100000000
Number of CPUs: 1
Small page size: 4096
Large page size: 2097152

CPU 0 Bimodal branch predictor
Basic BTB sets: 1024 ways: 8 indirect buffer size: 4096 RAS size: 64
Instruction page size distrubution: 0
Loading instruction page size distribution from /home/bsc/bsc018186/scratch/itp_asplos25_AE/dump/smt_srv85_ap_srv526_ap_1024i.pdst
Data page size distrubution: 0
Loading data page size distribution from /home/bsc/bsc018186/scratch/itp_asplos25_AE/dump/smt_srv85_ap_srv526_ap_1024i.pdst
cpu0_L2C IP-based stride prefetcher
cpu0_L2C is using xPTP/LRU
	TLB_LOWER_STRESS_THRESHOLD:1
	TLB_UPPER_STRESS_THRESHOLD:4
	MIN_EVICTION_POSITION:4
cpu0_L1D next line prefetcher
cpu0_STLB using iTP with max lru@8
cpu0_STLB using iTP with instr@0 and data@2
Init sat counter with 3 bits (max:50).
cpu0_L1I next line prefetcher
Off-chip DRAM Size: 4 GiB Channels: 1 Width: 64-bit Data Rate: 3200 MT/s
Heartbeat CPU 0 instructions: 10000001 cycles: 2500292 heartbeat IPC: 3.99954 cumulative IPC: 3.99954 (Simulation time: 0 hr 0 min 37 sec) 
Heartbeat CPU 0 instructions: 20000003 cycles: 5000482 heartbeat IPC: 3.9997 cumulative IPC: 3.99962 (Simulation time: 0 hr 1 min 17 sec) 
Heartbeat CPU 0 instructions: 30000000 cycles: 7581866 heartbeat IPC: 3.87389 cumulative IPC: 3.95681 (Simulation time: 0 hr 1 min 57 sec) 
Heartbeat CPU 0 instructions: 40000002 cycles: 10120007 heartbeat IPC: 3.9399 cumulative IPC: 3.95257 (Simulation time: 0 hr 2 min 38 sec) 
Heartbeat CPU 0 instructions: 50000001 cycles: 12647670 heartbeat IPC: 3.95623 cumulative IPC: 3.9533 (Simulation time: 0 hr 3 min 19 sec) 
Warmup finished CPU 0 instructions: 50000001 cycles: 12647671 cumulative IPC: 3.9533 (Simulation time: 0 hr 3 min 19 sec) 

Warmup complete CPU 0 instructions: 50000001 cycles: 12647671 (Simulation time: 0 hr 3 min 19 sec) 

Heartbeat CPU 0 instructions: 60000003 cycles: 39360336 heartbeat IPC: 0.374355 cumulative IPC: 0.374355 (Simulation time: 0 hr 4 min 38 sec) 
Heartbeat CPU 0 instructions: 70000004 cycles: 67190171 heartbeat IPC: 0.359327 cumulative IPC: 0.366687 (Simulation time: 0 hr 5 min 58 sec) 
Heartbeat CPU 0 instructions: 80000003 cycles: 94337838 heartbeat IPC: 0.368356 cumulative IPC: 0.367242 (Simulation time: 0 hr 7 min 18 sec) 
Heartbeat CPU 0 instructions: 90000002 cycles: 121137761 heartbeat IPC: 0.373136 cumulative IPC: 0.368698 (Simulation time: 0 hr 8 min 38 sec) 
Heartbeat CPU 0 instructions: 100000000 cycles: 148883393 heartbeat IPC: 0.360418 cumulative IPC: 0.367011 (Simulation time: 0 hr 9 min 58 sec) 
Heartbeat CPU 0 instructions: 110000004 cycles: 176599399 heartbeat IPC: 0.360803 cumulative IPC: 0.365962 (Simulation time: 0 hr 11 min 19 sec) 
Heartbeat CPU 0 instructions: 120000000 cycles: 203371975 heartbeat IPC: 0.373517 cumulative IPC: 0.367022 (Simulation time: 0 hr 12 min 38 sec) 
Heartbeat CPU 0 instructions: 130000002 cycles: 230567657 heartbeat IPC: 0.367706 cumulative IPC: 0.367108 (Simulation time: 0 hr 13 min 58 sec) 
Heartbeat CPU 0 instructions: 140000004 cycles: 257823636 heartbeat IPC: 0.366893 cumulative IPC: 0.367084 (Simulation time: 0 hr 15 min 18 sec) 
Heartbeat CPU 0 instructions: 150000000 cycles: 285971613 heartbeat IPC: 0.355266 cumulative IPC: 0.365867 (Simulation time: 0 hr 16 min 40 sec) 
Simulation finished CPU 0 instructions: 100000004 cycles: 273323944 cumulative IPC: 0.365867 (Simulation time: 0 hr 16 min 40 sec) 

Simulation complete CPU 0 instructions: 100000004 cycles: 273323944 (Simulation time: 0 hr 16 min 40 sec) 


ChampSim completed all CPUs

Saving instructions large page distribution to /home/bsc/bsc018186/scratch/itp_asplos25_AE/dump/smt_srv85_ap_srv526_ap_1024i.pdst...
Saving data large page distribution to /home/bsc/bsc018186/scratch/itp_asplos25_AE/dump/smt_srv85_ap_srv526_ap_1024i.pdst...
=== Simulation ===
CPU 0 runs /gpfs/projects/bsc18/MN4/bsc18/romol/ChampSim/traces/qualcomm_srv/smt_srv85_ap_srv526_ap_1024i.champsimtrace.xz

Region of Interest Statistics

CPU 0 cumulative IPC: 0.365867 instructions: 100000004 cycles: 273323944
CPU 0 Branch Prediction Accuracy: 75.3321% MPKI: 44.42 Average ROB Occupancy at Mispredict: 10.7625
Branch type MPKI
BRANCH_DIRECT_JUMP: 1.46417
BRANCH_INDIRECT: 22.9756
BRANCH_CONDITIONAL: 12.7519
BRANCH_DIRECT_CALL: 2.66512
BRANCH_INDIRECT_CALL: 0.98894
BRANCH_RETURN: 3.57432

Instructions large pages: 0
Instructions small pages: 13681
Large page distribution for instructions: 0%

Data large pages: 0
Data small pages: 12256
Large page distribution for data: 0%

cpu0_L1I TOTAL       ACCESS:   39202427  HIT:   30123189  MISS:    9079238  iACCESS:   39202427  iHIT:   30123189  iMISS:    9079238  dACCESS:          0  dHIT:          0  dMISS:          0  itACCESS:          0  itHIT:          0  itMISS:          0  dtACCESS:          0  dtHIT:          0  dtMISS:          0
cpu0_L1I LOAD         ACCESS:   11689134  HIT:    9208486  MISS:    2480648  iACCESS:   11689134  iHIT:    9208486  iMISS:    2480648  dACCESS:          0  dHIT:          0  dMISS:          0  itACCESS:          0  itHIT:          0  itMISS:          0  dtACCESS:          0  dtHIT:          0  dtMISS:          0
cpu0_L1I RFO          ACCESS:          0  HIT:          0  MISS:          0  iACCESS:          0  iHIT:          0  iMISS:          0  dACCESS:          0  dHIT:          0  dMISS:          0  itACCESS:          0  itHIT:          0  itMISS:          0  dtACCESS:          0  dtHIT:          0  dtMISS:          0
cpu0_L1I PREFETCH     ACCESS:   27513293  HIT:   20914703  MISS:    6598590  iACCESS:   27513293  iHIT:   20914703  iMISS:    6598590  dACCESS:          0  dHIT:          0  dMISS:          0  itACCESS:          0  itHIT:          0  itMISS:          0  dtACCESS:          0  dtHIT:          0  dtMISS:          0
cpu0_L1I WRITE        ACCESS:          0  HIT:          0  MISS:          0  iACCESS:          0  iHIT:          0  iMISS:          0  dACCESS:          0  dHIT:          0  dMISS:          0  itACCESS:          0  itHIT:          0  itMISS:          0  dtACCESS:          0  dtHIT:          0  dtMISS:          0
cpu0_L1I TRANSLATION  ACCESS:          0  HIT:          0  MISS:          0  iACCESS:          0  iHIT:          0  iMISS:          0  dACCESS:          0  dHIT:          0  dMISS:          0  itACCESS:          0  itHIT:          0  itMISS:          0  dtACCESS:          0  dtHIT:          0  dtMISS:          0
cpu0_L1I PREFETCH  REQUESTED:   30201181  ISSUED:   30200947  CROSSED:          0  USEFUL:    2226057  USELESS:     777101
cpu0_L1I AVERAGE iMISS LATENCY: 22.6663 cycles
cpu0_L1I AVERAGE dMISS LATENCY: 0 cycles
cpu0_L1I AVERAGE itMISS LATENCY: 0 cycles
cpu0_L1I AVERAGE dtMISS LATENCY: 0 cycles
cpu0_L1I PAGE CROSSINGS (TLB HIT):         0 
cpu0_L1I PAGE CROSSINGS (TLB MISS):         0 
cpu0_L1I AVERAGE MISS LATENCY: 22.6663 cycles
cpu0_ITLB TOTAL       ACCESS:   33135698  HIT:   30851044  MISS:    2284654  iACCESS:   33135698  iHIT:   30851044  iMISS:    2284654  dACCESS:          0  dHIT:          0  dMISS:          0  itACCESS:          0  itHIT:          0  itMISS:          0  dtACCESS:          0  dtHIT:          0  dtMISS:          0
cpu0_ITLB LOAD         ACCESS:   33135698  HIT:   30851044  MISS:    2284654  iACCESS:   33135698  iHIT:   30851044  iMISS:    2284654  dACCESS:          0  dHIT:          0  dMISS:          0  itACCESS:          0  itHIT:          0  itMISS:          0  dtACCESS:          0  dtHIT:          0  dtMISS:          0
cpu0_ITLB RFO          ACCESS:          0  HIT:          0  MISS:          0  iACCESS:          0  iHIT:          0  iMISS:          0  dACCESS:          0  dHIT:          0  dMISS:          0  itACCESS:          0  itHIT:          0  itMISS:          0  dtACCESS:          0  dtHIT:          0  dtMISS:          0
cpu0_ITLB PREFETCH     ACCESS:          0  HIT:          0  MISS:          0  iACCESS:          0  iHIT:          0  iMISS:          0  dACCESS:          0  dHIT:          0  dMISS:          0  itACCESS:          0  itHIT:          0  itMISS:          0  dtACCESS:          0  dtHIT:          0  dtMISS:          0
cpu0_ITLB WRITE        ACCESS:          0  HIT:          0  MISS:          0  iACCESS:          0  iHIT:          0  iMISS:          0  dACCESS:          0  dHIT:          0  dMISS:          0  itACCESS:          0  itHIT:          0  itMISS:          0  dtACCESS:          0  dtHIT:          0  dtMISS:          0
cpu0_ITLB TRANSLATION  ACCESS:          0  HIT:          0  MISS:          0  iACCESS:          0  iHIT:          0  iMISS:          0  dACCESS:          0  dHIT:          0  dMISS:          0  itACCESS:          0  itHIT:          0  itMISS:          0  dtACCESS:          0  dtHIT:          0  dtMISS:          0
cpu0_ITLB PREFETCH  REQUESTED:          0  ISSUED:          0  CROSSED:          0  USEFUL:     399465  USELESS:      84797
cpu0_ITLB AVERAGE iMISS LATENCY: 6.15077 cycles
cpu0_ITLB AVERAGE dMISS LATENCY: 0 cycles
cpu0_ITLB AVERAGE itMISS LATENCY: 0 cycles
cpu0_ITLB AVERAGE dtMISS LATENCY: 0 cycles
cpu0_ITLB PAGE CROSSINGS (TLB HIT):         0 
cpu0_ITLB PAGE CROSSINGS (TLB MISS):         0 
cpu0_ITLB AVERAGE MISS LATENCY: 6.15077 cycles
cpu0_DTLB TOTAL       ACCESS:   28940692  HIT:   25278933  MISS:    3661759  iACCESS:          0  iHIT:          0  iMISS:          0  dACCESS:   28940692  dHIT:   25278933  dMISS:    3661759  itACCESS:          0  itHIT:          0  itMISS:          0  dtACCESS:          0  dtHIT:          0  dtMISS:          0
cpu0_DTLB LOAD         ACCESS:   28940692  HIT:   25278933  MISS:    3661759  iACCESS:          0  iHIT:          0  iMISS:          0  dACCESS:   28940692  dHIT:   25278933  dMISS:    3661759  itACCESS:          0  itHIT:          0  itMISS:          0  dtACCESS:          0  dtHIT:          0  dtMISS:          0
cpu0_DTLB RFO          ACCESS:          0  HIT:          0  MISS:          0  iACCESS:          0  iHIT:          0  iMISS:          0  dACCESS:          0  dHIT:          0  dMISS:          0  itACCESS:          0  itHIT:          0  itMISS:          0  dtACCESS:          0  dtHIT:          0  dtMISS:          0
cpu0_DTLB PREFETCH     ACCESS:          0  HIT:          0  MISS:          0  iACCESS:          0  iHIT:          0  iMISS:          0  dACCESS:          0  dHIT:          0  dMISS:          0  itACCESS:          0  itHIT:          0  itMISS:          0  dtACCESS:          0  dtHIT:          0  dtMISS:          0
cpu0_DTLB WRITE        ACCESS:          0  HIT:          0  MISS:          0  iACCESS:          0  iHIT:          0  iMISS:          0  dACCESS:          0  dHIT:          0  dMISS:          0  itACCESS:          0  itHIT:          0  itMISS:          0  dtACCESS:          0  dtHIT:          0  dtMISS:          0
cpu0_DTLB TRANSLATION  ACCESS:          0  HIT:          0  MISS:          0  iACCESS:          0  iHIT:          0  iMISS:          0  dACCESS:          0  dHIT:          0  dMISS:          0  itACCESS:          0  itHIT:          0  itMISS:          0  dtACCESS:          0  dtHIT:          0  dtMISS:          0
cpu0_DTLB PREFETCH  REQUESTED:          0  ISSUED:          0  CROSSED:          0  USEFUL:          0  USELESS:          0
cpu0_DTLB AVERAGE iMISS LATENCY: 0 cycles
cpu0_DTLB AVERAGE dMISS LATENCY: 19.0919 cycles
cpu0_DTLB AVERAGE itMISS LATENCY: 0 cycles
cpu0_DTLB AVERAGE dtMISS LATENCY: 0 cycles
cpu0_DTLB PAGE CROSSINGS (TLB HIT):         0 
cpu0_DTLB PAGE CROSSINGS (TLB MISS):         0 
cpu0_DTLB AVERAGE MISS LATENCY: 19.0919 cycles
cpu0_STLB TOTAL       ACCESS:    2612635  HIT:    2222529  MISS:     390106  iACCESS:     484265  iHIT:     418827  iMISS:      65438  dACCESS:    2128370  dHIT:    1803702  dMISS:     324668  itACCESS:          0  itHIT:          0  itMISS:          0  dtACCESS:          0  dtHIT:          0  dtMISS:          0
cpu0_STLB LOAD         ACCESS:    2612635  HIT:    2222529  MISS:     390106  iACCESS:     484265  iHIT:     418827  iMISS:      65438  dACCESS:    2128370  dHIT:    1803702  dMISS:     324668  itACCESS:          0  itHIT:          0  itMISS:          0  dtACCESS:          0  dtHIT:          0  dtMISS:          0
cpu0_STLB RFO          ACCESS:          0  HIT:          0  MISS:          0  iACCESS:          0  iHIT:          0  iMISS:          0  dACCESS:          0  dHIT:          0  dMISS:          0  itACCESS:          0  itHIT:          0  itMISS:          0  dtACCESS:          0  dtHIT:          0  dtMISS:          0
cpu0_STLB PREFETCH     ACCESS:          0  HIT:          0  MISS:          0  iACCESS:          0  iHIT:          0  iMISS:          0  dACCESS:          0  dHIT:          0  dMISS:          0  itACCESS:          0  itHIT:          0  itMISS:          0  dtACCESS:          0  dtHIT:          0  dtMISS:          0
cpu0_STLB WRITE        ACCESS:          0  HIT:          0  MISS:          0  iACCESS:          0  iHIT:          0  iMISS:          0  dACCESS:          0  dHIT:          0  dMISS:          0  itACCESS:          0  itHIT:          0  itMISS:          0  dtACCESS:          0  dtHIT:          0  dtMISS:          0
cpu0_STLB TRANSLATION  ACCESS:          0  HIT:          0  MISS:          0  iACCESS:          0  iHIT:          0  iMISS:          0  dACCESS:          0  dHIT:          0  dMISS:          0  itACCESS:          0  itHIT:          0  itMISS:          0  dtACCESS:          0  dtHIT:          0  dtMISS:          0
cpu0_STLB PREFETCH  REQUESTED:          0  ISSUED:          0  CROSSED:          0  USEFUL:          0  USELESS:          0
cpu0_STLB AVERAGE iMISS LATENCY: 26.2461 cycles
cpu0_STLB AVERAGE dMISS LATENCY: 135.205 cycles
cpu0_STLB AVERAGE itMISS LATENCY: 0 cycles
cpu0_STLB AVERAGE dtMISS LATENCY: 0 cycles
cpu0_STLB PAGE CROSSINGS (TLB HIT):         0 
cpu0_STLB PAGE CROSSINGS (TLB MISS):         0 
cpu0_STLB AVERAGE MISS LATENCY: 161.451 cycles
cpu0_L1D TOTAL       ACCESS:   44761925  HIT:   39275600  MISS:    5486325  iACCESS:          0  iHIT:          0  iMISS:          0  dACCESS:   44166873  dHIT:   39242920  dMISS:    4923953  itACCESS:      77760  itHIT:       6148  itMISS:      71612  dtACCESS:     517292  dtHIT:      26532  dtMISS:     490760
cpu0_L1D LOAD         ACCESS:   20107731  HIT:   17908083  MISS:    2199648  iACCESS:          0  iHIT:          0  iMISS:          0  dACCESS:   20107731  dHIT:   17908083  dMISS:    2199648  itACCESS:          0  itHIT:          0  itMISS:          0  dtACCESS:          0  dtHIT:          0  dtMISS:          0
cpu0_L1D RFO          ACCESS:          0  HIT:          0  MISS:          0  iACCESS:          0  iHIT:          0  iMISS:          0  dACCESS:          0  dHIT:          0  dMISS:          0  itACCESS:          0  itHIT:          0  itMISS:          0  dtACCESS:          0  dtHIT:          0  dtMISS:          0
cpu0_L1D PREFETCH     ACCESS:   13828398  HIT:   11700820  MISS:    2127578  iACCESS:          0  iHIT:          0  iMISS:          0  dACCESS:   13828398  dHIT:   11700820  dMISS:    2127578  itACCESS:          0  itHIT:          0  itMISS:          0  dtACCESS:          0  dtHIT:          0  dtMISS:          0
cpu0_L1D WRITE        ACCESS:   10230744  HIT:    9634017  MISS:     596727  iACCESS:          0  iHIT:          0  iMISS:          0  dACCESS:   10230744  dHIT:    9634017  dMISS:     596727  itACCESS:          0  itHIT:          0  itMISS:          0  dtACCESS:          0  dtHIT:          0  dtMISS:          0
cpu0_L1D TRANSLATION  ACCESS:     595052  HIT:      32680  MISS:     562372  iACCESS:          0  iHIT:          0  iMISS:          0  dACCESS:          0  dHIT:          0  dMISS:          0  itACCESS:      77760  itHIT:       6148  itMISS:      71612  dtACCESS:     517292  dtHIT:      26532  dtMISS:     490760
cpu0_L1D PREFETCH  REQUESTED:   20107731  ISSUED:   18486067  CROSSED:          0  USEFUL:     355303  USELESS:     945761
cpu0_L1D AVERAGE iMISS LATENCY: 0 cycles
cpu0_L1D AVERAGE dMISS LATENCY: 50.5209 cycles
cpu0_L1D AVERAGE itMISS LATENCY: 1.74439 cycles
cpu0_L1D AVERAGE dtMISS LATENCY: 8.52616 cycles
cpu0_L1D PAGE CROSSINGS (TLB HIT):         0 
cpu0_L1D PAGE CROSSINGS (TLB MISS):         0 
cpu0_L1D AVERAGE MISS LATENCY: 60.7915 cycles
cpu0_L2C TOTAL       ACCESS:    8697903  HIT:    2484027  MISS:    6213876  iACCESS:    3824344  iHIT:    1407232  iMISS:    2417112  dACCESS:    4338660  dHIT:     835880  dMISS:    3502780  itACCESS:      70726  itHIT:      17430  itMISS:      53296  dtACCESS:     464173  dtHIT:     223485  dtMISS:     240688
cpu0_L2C LOAD         ACCESS:    2077519  HIT:     481897  MISS:    1595622  iACCESS:     855741  iHIT:     289495  iMISS:     566246  dACCESS:    1221778  dHIT:     192402  dMISS:    1029376  itACCESS:          0  itHIT:          0  itMISS:          0  dtACCESS:          0  dtHIT:          0  dtMISS:          0
cpu0_L2C RFO          ACCESS:     221438  HIT:      32020  MISS:     189418  iACCESS:          0  iHIT:          0  iMISS:          0  dACCESS:     221438  dHIT:      32020  dMISS:     189418  itACCESS:          0  itHIT:          0  itMISS:          0  dtACCESS:          0  dtHIT:          0  dtMISS:          0
cpu0_L2C PREFETCH     ACCESS:    5517071  HIT:    1602910  MISS:    3914161  iACCESS:    2968603  iHIT:    1117737  iMISS:    1850866  dACCESS:    2548468  dHIT:     485173  dMISS:    2063295  itACCESS:          0  itHIT:          0  itMISS:          0  dtACCESS:          0  dtHIT:          0  dtMISS:          0
cpu0_L2C WRITE        ACCESS:     346976  HIT:     126285  MISS:     220691  iACCESS:          0  iHIT:          0  iMISS:          0  dACCESS:     346976  dHIT:     126285  dMISS:     220691  itACCESS:          0  itHIT:          0  itMISS:          0  dtACCESS:          0  dtHIT:          0  dtMISS:          0
cpu0_L2C TRANSLATION  ACCESS:     534899  HIT:     240915  MISS:     293984  iACCESS:          0  iHIT:          0  iMISS:          0  dACCESS:          0  dHIT:          0  dMISS:          0  itACCESS:      70726  itHIT:      17430  itMISS:      53296  dtACCESS:     464173  dtHIT:     223485  dtMISS:     240688
cpu0_L2C PREFETCH  REQUESTED:    1483628  ISSUED:    1483624  CROSSED:          0  USEFUL:     376469  USELESS:     437515
cpu0_L2C AVERAGE iMISS LATENCY: 27.9328 cycles
cpu0_L2C AVERAGE dMISS LATENCY: 54.4222 cycles
cpu0_L2C AVERAGE itMISS LATENCY: 1.42881 cycles
cpu0_L2C AVERAGE dtMISS LATENCY: 6.81336 cycles
cpu0_L2C PAGE CROSSINGS (TLB HIT):         0 
cpu0_L2C PAGE CROSSINGS (TLB MISS):         0 
cpu0_L2C AVERAGE MISS LATENCY: 90.5971 cycles
LLC TOTAL       ACCESS:    6068114  HIT:    3433688  MISS:    2634426  iACCESS:    2329911  iHIT:    1515548  iMISS:     814363  dACCESS:    3444219  dHIT:    1868501  dMISS:    1575718  itACCESS:      53296  itHIT:       9057  itMISS:      44239  dtACCESS:     240688  dtHIT:      40582  dtMISS:     200106
LLC LOAD         ACCESS:    1589512  HIT:     957938  MISS:     631574  iACCESS:     564832  iHIT:     395288  iMISS:     169544  dACCESS:    1024680  dHIT:     562650  dMISS:     462030  itACCESS:          0  itHIT:          0  itMISS:          0  dtACCESS:          0  dtHIT:          0  dtMISS:          0
LLC RFO          ACCESS:     189404  HIT:      94285  MISS:      95119  iACCESS:          0  iHIT:          0  iMISS:          0  dACCESS:     189404  dHIT:      94285  dMISS:      95119  itACCESS:          0  itHIT:          0  itMISS:          0  dtACCESS:          0  dtHIT:          0  dtMISS:          0
LLC PREFETCH     ACCESS:    3715069  HIT:    2056311  MISS:    1658758  iACCESS:    1765079  iHIT:    1120260  iMISS:     644819  dACCESS:    1949990  dHIT:     936051  dMISS:    1013939  itACCESS:          0  itHIT:          0  itMISS:          0  dtACCESS:          0  dtHIT:          0  dtMISS:          0
LLC WRITE        ACCESS:     280145  HIT:     275515  MISS:       4630  iACCESS:          0  iHIT:          0  iMISS:          0  dACCESS:     280145  dHIT:     275515  dMISS:       4630  itACCESS:          0  itHIT:          0  itMISS:          0  dtACCESS:          0  dtHIT:          0  dtMISS:          0
LLC TRANSLATION  ACCESS:     293984  HIT:      49639  MISS:     244345  iACCESS:          0  iHIT:          0  iMISS:          0  dACCESS:          0  dHIT:          0  dMISS:          0  itACCESS:      53296  itHIT:       9057  itMISS:      44239  dtACCESS:     240688  dtHIT:      40582  dtMISS:     200106
LLC PREFETCH  REQUESTED:          0  ISSUED:          0  CROSSED:          0  USEFUL:          0  USELESS:          0
LLC AVERAGE iMISS LATENCY: 48.6844 cycles
LLC AVERAGE dMISS LATENCY: 105.689 cycles
LLC AVERAGE itMISS LATENCY: 2.97046 cycles
LLC AVERAGE dtMISS LATENCY: 14.2663 cycles
LLC PAGE CROSSINGS (TLB HIT):         0 
LLC PAGE CROSSINGS (TLB MISS):         0 
LLC AVERAGE MISS LATENCY: 171.61 cycles

PageTableWalker TOTAL       ACCESS:     140723  
PageTableWalker AVERAGE LATENCY: 6.29663 cycles
PageTableWalker TOTAL LATENCY: 886080 cycles

DRAM Statistics
Channel 0
 RQ ROW_BUFFER_HIT:     579713
  ROW_BUFFER_MISS:    2039123
 AVG DBUS CONGESTED CYCLE:    3.65362
 WQ ROW_BUFFER_HIT:      66364
  ROW_BUFFER_MISS:      66188  FULL:          0

