last_page:0x200000000000000
VMEM_RES_CAP:0x100000
PAGE_SIZE:4096
LOG2_PAGE_SIZE:12
LOG2_PAGE_TABLE_SIZE:9
page_table_levels:5
WARNING: physical memory size is smaller than virtual memory size
FDiP enabled with aggresivity 16

*** ChampSim Multicore Out-of-Order Simulator ***

Warmup Instructions: 50000000
Simulation Instructions: 100000000
Number of CPUs: 1
Small page size: 4096
Large page size: 2097152

CPU 0 Bimodal branch predictor
Basic BTB sets: 1024 ways: 8 indirect buffer size: 4096 RAS size: 64
Instruction page size distrubution: 0
Loading instruction page size distribution from /home/bsc/bsc018186/scratch/itp_asplos25_AE/dump/smt_srv12_ap_srv346_ap_1024i.pdst
Data page size distrubution: 0
Loading data page size distribution from /home/bsc/bsc018186/scratch/itp_asplos25_AE/dump/smt_srv12_ap_srv346_ap_1024i.pdst
cpu0_L2C IP-based stride prefetcher
cpu0_L2C is using PTP replacement policy:
	TLB_STRESS_THRESHOLD:0
	PTE_EVICTION_RATIO:0
cpu0_L1D next line prefetcher
CHiRPing...
cpu0_L1I next line prefetcher
Off-chip DRAM Size: 4 GiB Channels: 1 Width: 64-bit Data Rate: 3200 MT/s
Heartbeat CPU 0 instructions: 10000001 cycles: 2500585 heartbeat IPC: 3.99907 cumulative IPC: 3.99907 (Simulation time: 0 hr 0 min 43 sec) 
Heartbeat CPU 0 instructions: 20000001 cycles: 5001035 heartbeat IPC: 3.99929 cumulative IPC: 3.99918 (Simulation time: 0 hr 1 min 32 sec) 
Heartbeat CPU 0 instructions: 30000003 cycles: 7501871 heartbeat IPC: 3.99867 cumulative IPC: 3.99901 (Simulation time: 0 hr 2 min 18 sec) 
Heartbeat CPU 0 instructions: 40000002 cycles: 10002206 heartbeat IPC: 3.99947 cumulative IPC: 3.99912 (Simulation time: 0 hr 3 min 9 sec) 
Heartbeat CPU 0 instructions: 50000001 cycles: 12502378 heartbeat IPC: 3.99973 cumulative IPC: 3.99924 (Simulation time: 0 hr 3 min 55 sec) 
Warmup finished CPU 0 instructions: 50000001 cycles: 12502379 cumulative IPC: 3.99924 (Simulation time: 0 hr 3 min 55 sec) 

Warmup complete CPU 0 instructions: 50000001 cycles: 12502379 (Simulation time: 0 hr 3 min 55 sec) 

Heartbeat CPU 0 instructions: 60000000 cycles: 42855358 heartbeat IPC: 0.329457 cumulative IPC: 0.329457 (Simulation time: 0 hr 5 min 32 sec) 
Heartbeat CPU 0 instructions: 70000003 cycles: 72791282 heartbeat IPC: 0.334047 cumulative IPC: 0.331737 (Simulation time: 0 hr 7 min 9 sec) 
Heartbeat CPU 0 instructions: 80000001 cycles: 103753355 heartbeat IPC: 0.322976 cumulative IPC: 0.328764 (Simulation time: 0 hr 8 min 48 sec) 
Heartbeat CPU 0 instructions: 90000001 cycles: 129048865 heartbeat IPC: 0.395328 cumulative IPC: 0.343211 (Simulation time: 0 hr 10 min 17 sec) 
Heartbeat CPU 0 instructions: 100000000 cycles: 158488803 heartbeat IPC: 0.339675 cumulative IPC: 0.342498 (Simulation time: 0 hr 11 min 54 sec) 
Heartbeat CPU 0 instructions: 110000001 cycles: 188371806 heartbeat IPC: 0.334639 cumulative IPC: 0.341163 (Simulation time: 0 hr 13 min 31 sec) 
Heartbeat CPU 0 instructions: 120000000 cycles: 216990167 heartbeat IPC: 0.349426 cumulative IPC: 0.342319 (Simulation time: 0 hr 15 min 6 sec) 
Heartbeat CPU 0 instructions: 130000000 cycles: 246554596 heartbeat IPC: 0.338245 cumulative IPC: 0.341805 (Simulation time: 0 hr 16 min 42 sec) 
Heartbeat CPU 0 instructions: 140000000 cycles: 276300422 heartbeat IPC: 0.336182 cumulative IPC: 0.341171 (Simulation time: 0 hr 18 min 19 sec) 
Heartbeat CPU 0 instructions: 150000002 cycles: 306164652 heartbeat IPC: 0.334849 cumulative IPC: 0.340528 (Simulation time: 0 hr 19 min 52 sec) 
Simulation finished CPU 0 instructions: 100000001 cycles: 293662274 cumulative IPC: 0.340528 (Simulation time: 0 hr 19 min 52 sec) 

Simulation complete CPU 0 instructions: 100000001 cycles: 293662274 (Simulation time: 0 hr 19 min 52 sec) 


ChampSim completed all CPUs

Saving instructions large page distribution to /home/bsc/bsc018186/scratch/itp_asplos25_AE/dump/smt_srv12_ap_srv346_ap_1024i.pdst...
Saving data large page distribution to /home/bsc/bsc018186/scratch/itp_asplos25_AE/dump/smt_srv12_ap_srv346_ap_1024i.pdst...
=== Simulation ===
CPU 0 runs /gpfs/projects/bsc18/MN4/bsc18/romol/ChampSim/traces/qualcomm_srv/smt_srv12_ap_srv346_ap_1024i.champsimtrace.xz

Region of Interest Statistics

CPU 0 cumulative IPC: 0.340528 instructions: 100000001 cycles: 293662274
CPU 0 Branch Prediction Accuracy: 75.5397% MPKI: 44.1957 Average ROB Occupancy at Mispredict: 11.1512
Branch type MPKI
BRANCH_DIRECT_JUMP: 1.3554
BRANCH_INDIRECT: 22.7018
BRANCH_CONDITIONAL: 13.0378
BRANCH_DIRECT_CALL: 2.60332
BRANCH_INDIRECT_CALL: 1.04025
BRANCH_RETURN: 3.45711

Instructions large pages: 0
Instructions small pages: 14619
Large page distribution for instructions: 0%

Data large pages: 0
Data small pages: 12879
Large page distribution for data: 0%

cpu0_L1I TOTAL       ACCESS:   39024225  HIT:   30401442  MISS:    8622783  iACCESS:   39024225  iHIT:   30401442  iMISS:    8622783  dACCESS:          0  dHIT:          0  dMISS:          0  itACCESS:          0  itHIT:          0  itMISS:          0  dtACCESS:          0  dtHIT:          0  dtMISS:          0
cpu0_L1I LOAD         ACCESS:   11667117  HIT:    9318516  MISS:    2348601  iACCESS:   11667117  iHIT:    9318516  iMISS:    2348601  dACCESS:          0  dHIT:          0  dMISS:          0  itACCESS:          0  itHIT:          0  itMISS:          0  dtACCESS:          0  dtHIT:          0  dtMISS:          0
cpu0_L1I RFO          ACCESS:          0  HIT:          0  MISS:          0  iACCESS:          0  iHIT:          0  iMISS:          0  dACCESS:          0  dHIT:          0  dMISS:          0  itACCESS:          0  itHIT:          0  itMISS:          0  dtACCESS:          0  dtHIT:          0  dtMISS:          0
cpu0_L1I PREFETCH     ACCESS:   27357108  HIT:   21082926  MISS:    6274182  iACCESS:   27357108  iHIT:   21082926  iMISS:    6274182  dACCESS:          0  dHIT:          0  dMISS:          0  itACCESS:          0  itHIT:          0  itMISS:          0  dtACCESS:          0  dtHIT:          0  dtMISS:          0
cpu0_L1I WRITE        ACCESS:          0  HIT:          0  MISS:          0  iACCESS:          0  iHIT:          0  iMISS:          0  dACCESS:          0  dHIT:          0  dMISS:          0  itACCESS:          0  itHIT:          0  itMISS:          0  dtACCESS:          0  dtHIT:          0  dtMISS:          0
cpu0_L1I TRANSLATION  ACCESS:          0  HIT:          0  MISS:          0  iACCESS:          0  iHIT:          0  iMISS:          0  dACCESS:          0  dHIT:          0  dMISS:          0  itACCESS:          0  itHIT:          0  itMISS:          0  dtACCESS:          0  dtHIT:          0  dtMISS:          0
cpu0_L1I PREFETCH  REQUESTED:   30178986  ISSUED:   30178828  CROSSED:          0  USEFUL:    2188471  USELESS:     755294
cpu0_L1I AVERAGE iMISS LATENCY: 24.0712 cycles
cpu0_L1I AVERAGE dMISS LATENCY: 0 cycles
cpu0_L1I AVERAGE itMISS LATENCY: 0 cycles
cpu0_L1I AVERAGE dtMISS LATENCY: 0 cycles
cpu0_L1I PAGE CROSSINGS (TLB HIT):         0 
cpu0_L1I PAGE CROSSINGS (TLB MISS):         0 
cpu0_L1I AVERAGE MISS LATENCY: 24.0712 cycles
cpu0_ITLB TOTAL       ACCESS:   33009001  HIT:   30813029  MISS:    2195972  iACCESS:   33009001  iHIT:   30813029  iMISS:    2195972  dACCESS:          0  dHIT:          0  dMISS:          0  itACCESS:          0  itHIT:          0  itMISS:          0  dtACCESS:          0  dtHIT:          0  dtMISS:          0
cpu0_ITLB LOAD         ACCESS:   33009001  HIT:   30813029  MISS:    2195972  iACCESS:   33009001  iHIT:   30813029  iMISS:    2195972  dACCESS:          0  dHIT:          0  dMISS:          0  itACCESS:          0  itHIT:          0  itMISS:          0  dtACCESS:          0  dtHIT:          0  dtMISS:          0
cpu0_ITLB RFO          ACCESS:          0  HIT:          0  MISS:          0  iACCESS:          0  iHIT:          0  iMISS:          0  dACCESS:          0  dHIT:          0  dMISS:          0  itACCESS:          0  itHIT:          0  itMISS:          0  dtACCESS:          0  dtHIT:          0  dtMISS:          0
cpu0_ITLB PREFETCH     ACCESS:          0  HIT:          0  MISS:          0  iACCESS:          0  iHIT:          0  iMISS:          0  dACCESS:          0  dHIT:          0  dMISS:          0  itACCESS:          0  itHIT:          0  itMISS:          0  dtACCESS:          0  dtHIT:          0  dtMISS:          0
cpu0_ITLB WRITE        ACCESS:          0  HIT:          0  MISS:          0  iACCESS:          0  iHIT:          0  iMISS:          0  dACCESS:          0  dHIT:          0  dMISS:          0  itACCESS:          0  itHIT:          0  itMISS:          0  dtACCESS:          0  dtHIT:          0  dtMISS:          0
cpu0_ITLB TRANSLATION  ACCESS:          0  HIT:          0  MISS:          0  iACCESS:          0  iHIT:          0  iMISS:          0  dACCESS:          0  dHIT:          0  dMISS:          0  itACCESS:          0  itHIT:          0  itMISS:          0  dtACCESS:          0  dtHIT:          0  dtMISS:          0
cpu0_ITLB PREFETCH  REQUESTED:          0  ISSUED:          0  CROSSED:          0  USEFUL:     386350  USELESS:      77974
cpu0_ITLB AVERAGE iMISS LATENCY: 10.2122 cycles
cpu0_ITLB AVERAGE dMISS LATENCY: 0 cycles
cpu0_ITLB AVERAGE itMISS LATENCY: 0 cycles
cpu0_ITLB AVERAGE dtMISS LATENCY: 0 cycles
cpu0_ITLB PAGE CROSSINGS (TLB HIT):         0 
cpu0_ITLB PAGE CROSSINGS (TLB MISS):         0 
cpu0_ITLB AVERAGE MISS LATENCY: 10.2122 cycles
cpu0_DTLB TOTAL       ACCESS:   28865354  HIT:   25324472  MISS:    3540882  iACCESS:          0  iHIT:          0  iMISS:          0  dACCESS:   28865354  dHIT:   25324472  dMISS:    3540882  itACCESS:          0  itHIT:          0  itMISS:          0  dtACCESS:          0  dtHIT:          0  dtMISS:          0
cpu0_DTLB LOAD         ACCESS:   28865354  HIT:   25324472  MISS:    3540882  iACCESS:          0  iHIT:          0  iMISS:          0  dACCESS:   28865354  dHIT:   25324472  dMISS:    3540882  itACCESS:          0  itHIT:          0  itMISS:          0  dtACCESS:          0  dtHIT:          0  dtMISS:          0
cpu0_DTLB RFO          ACCESS:          0  HIT:          0  MISS:          0  iACCESS:          0  iHIT:          0  iMISS:          0  dACCESS:          0  dHIT:          0  dMISS:          0  itACCESS:          0  itHIT:          0  itMISS:          0  dtACCESS:          0  dtHIT:          0  dtMISS:          0
cpu0_DTLB PREFETCH     ACCESS:          0  HIT:          0  MISS:          0  iACCESS:          0  iHIT:          0  iMISS:          0  dACCESS:          0  dHIT:          0  dMISS:          0  itACCESS:          0  itHIT:          0  itMISS:          0  dtACCESS:          0  dtHIT:          0  dtMISS:          0
cpu0_DTLB WRITE        ACCESS:          0  HIT:          0  MISS:          0  iACCESS:          0  iHIT:          0  iMISS:          0  dACCESS:          0  dHIT:          0  dMISS:          0  itACCESS:          0  itHIT:          0  itMISS:          0  dtACCESS:          0  dtHIT:          0  dtMISS:          0
cpu0_DTLB TRANSLATION  ACCESS:          0  HIT:          0  MISS:          0  iACCESS:          0  iHIT:          0  iMISS:          0  dACCESS:          0  dHIT:          0  dMISS:          0  itACCESS:          0  itHIT:          0  itMISS:          0  dtACCESS:          0  dtHIT:          0  dtMISS:          0
cpu0_DTLB PREFETCH  REQUESTED:          0  ISSUED:          0  CROSSED:          0  USEFUL:          0  USELESS:          0
cpu0_DTLB AVERAGE iMISS LATENCY: 0 cycles
cpu0_DTLB AVERAGE dMISS LATENCY: 24.8469 cycles
cpu0_DTLB AVERAGE itMISS LATENCY: 0 cycles
cpu0_DTLB AVERAGE dtMISS LATENCY: 0 cycles
cpu0_DTLB PAGE CROSSINGS (TLB HIT):         0 
cpu0_DTLB PAGE CROSSINGS (TLB MISS):         0 
cpu0_DTLB AVERAGE MISS LATENCY: 24.8469 cycles
cpu0_STLB TOTAL       ACCESS:    2532942  HIT:    2173156  MISS:     359786  iACCESS:     464332  iHIT:     354475  iMISS:     109857  dACCESS:    2068610  dHIT:    1818681  dMISS:     249929  itACCESS:          0  itHIT:          0  itMISS:          0  dtACCESS:          0  dtHIT:          0  dtMISS:          0
cpu0_STLB LOAD         ACCESS:    2532942  HIT:    2173156  MISS:     359786  iACCESS:     464332  iHIT:     354475  iMISS:     109857  dACCESS:    2068610  dHIT:    1818681  dMISS:     249929  itACCESS:          0  itHIT:          0  itMISS:          0  dtACCESS:          0  dtHIT:          0  dtMISS:          0
cpu0_STLB RFO          ACCESS:          0  HIT:          0  MISS:          0  iACCESS:          0  iHIT:          0  iMISS:          0  dACCESS:          0  dHIT:          0  dMISS:          0  itACCESS:          0  itHIT:          0  itMISS:          0  dtACCESS:          0  dtHIT:          0  dtMISS:          0
cpu0_STLB PREFETCH     ACCESS:          0  HIT:          0  MISS:          0  iACCESS:          0  iHIT:          0  iMISS:          0  dACCESS:          0  dHIT:          0  dMISS:          0  itACCESS:          0  itHIT:          0  itMISS:          0  dtACCESS:          0  dtHIT:          0  dtMISS:          0
cpu0_STLB WRITE        ACCESS:          0  HIT:          0  MISS:          0  iACCESS:          0  iHIT:          0  iMISS:          0  dACCESS:          0  dHIT:          0  dMISS:          0  itACCESS:          0  itHIT:          0  itMISS:          0  dtACCESS:          0  dtHIT:          0  dtMISS:          0
cpu0_STLB TRANSLATION  ACCESS:          0  HIT:          0  MISS:          0  iACCESS:          0  iHIT:          0  iMISS:          0  dACCESS:          0  dHIT:          0  dMISS:          0  itACCESS:          0  itHIT:          0  itMISS:          0  dtACCESS:          0  dtHIT:          0  dtMISS:          0
cpu0_STLB PREFETCH  REQUESTED:          0  ISSUED:          0  CROSSED:          0  USEFUL:          0  USELESS:          0
cpu0_STLB AVERAGE iMISS LATENCY: 52.0191 cycles
cpu0_STLB AVERAGE dMISS LATENCY: 198.269 cycles
cpu0_STLB AVERAGE itMISS LATENCY: 0 cycles
cpu0_STLB AVERAGE dtMISS LATENCY: 0 cycles
cpu0_STLB PAGE CROSSINGS (TLB HIT):         0 
cpu0_STLB PAGE CROSSINGS (TLB MISS):         0 
cpu0_STLB AVERAGE MISS LATENCY: 250.288 cycles
cpu0_L1D TOTAL       ACCESS:   44343227  HIT:   39193585  MISS:    5149642  iACCESS:          0  iHIT:          0  iMISS:          0  dACCESS:   43808003  dHIT:   39158928  dMISS:    4649075  itACCESS:     123764  itHIT:      15180  itMISS:     108584  dtACCESS:     411460  dtHIT:      19477  dtMISS:     391983
cpu0_L1D LOAD         ACCESS:   20030652  HIT:   17965840  MISS:    2064812  iACCESS:          0  iHIT:          0  iMISS:          0  dACCESS:   20030652  dHIT:   17965840  dMISS:    2064812  itACCESS:          0  itHIT:          0  itMISS:          0  dtACCESS:          0  dtHIT:          0  dtMISS:          0
cpu0_L1D RFO          ACCESS:          0  HIT:          0  MISS:          0  iACCESS:          0  iHIT:          0  iMISS:          0  dACCESS:          0  dHIT:          0  dMISS:          0  itACCESS:          0  itHIT:          0  itMISS:          0  dtACCESS:          0  dtHIT:          0  dtMISS:          0
cpu0_L1D PREFETCH     ACCESS:   13621856  HIT:   11586384  MISS:    2035472  iACCESS:          0  iHIT:          0  iMISS:          0  dACCESS:   13621856  dHIT:   11586384  dMISS:    2035472  itACCESS:          0  itHIT:          0  itMISS:          0  dtACCESS:          0  dtHIT:          0  dtMISS:          0
cpu0_L1D WRITE        ACCESS:   10155495  HIT:    9606704  MISS:     548791  iACCESS:          0  iHIT:          0  iMISS:          0  dACCESS:   10155495  dHIT:    9606704  dMISS:     548791  itACCESS:          0  itHIT:          0  itMISS:          0  dtACCESS:          0  dtHIT:          0  dtMISS:          0
cpu0_L1D TRANSLATION  ACCESS:     535224  HIT:      34657  MISS:     500567  iACCESS:          0  iHIT:          0  iMISS:          0  dACCESS:          0  dHIT:          0  dMISS:          0  itACCESS:     123764  itHIT:      15180  itMISS:     108584  dtACCESS:     411460  dtHIT:      19477  dtMISS:     391983
cpu0_L1D PREFETCH  REQUESTED:   20030652  ISSUED:   18373101  CROSSED:          0  USEFUL:     357943  USELESS:     924184
cpu0_L1D AVERAGE iMISS LATENCY: 0 cycles
cpu0_L1D AVERAGE dMISS LATENCY: 52.1327 cycles
cpu0_L1D AVERAGE itMISS LATENCY: 3.41698 cycles
cpu0_L1D AVERAGE dtMISS LATENCY: 12.8037 cycles
cpu0_L1D PAGE CROSSINGS (TLB HIT):         0 
cpu0_L1D PAGE CROSSINGS (TLB MISS):         0 
cpu0_L1D AVERAGE MISS LATENCY: 68.3533 cycles
cpu0_L2C TOTAL       ACCESS:    8495868  HIT:    4140615  MISS:    4355253  iACCESS:    3742392  iHIT:    2255992  iMISS:    1486400  dACCESS:    4285312  dHIT:    1829556  dMISS:    2455756  itACCESS:     107869  itHIT:      18650  itMISS:      89219  dtACCESS:     360295  dtHIT:      36417  dtMISS:     323878
cpu0_L2C LOAD         ACCESS:    2028633  HIT:    1005631  MISS:    1023002  iACCESS:     837143  iHIT:     529806  iMISS:     307337  dACCESS:    1191490  dHIT:     475825  dMISS:     715665  itACCESS:          0  itHIT:          0  itMISS:          0  dtACCESS:          0  dtHIT:          0  dtMISS:          0
cpu0_L2C RFO          ACCESS:     209194  HIT:      82977  MISS:     126217  iACCESS:          0  iHIT:          0  iMISS:          0  dACCESS:     209194  dHIT:      82977  dMISS:     126217  itACCESS:          0  itHIT:          0  itMISS:          0  dtACCESS:          0  dtHIT:          0  dtMISS:          0
cpu0_L2C PREFETCH     ACCESS:    5449712  HIT:    2660379  MISS:    2789333  iACCESS:    2905249  iHIT:    1726186  iMISS:    1179063  dACCESS:    2544463  dHIT:     934193  dMISS:    1610270  itACCESS:          0  itHIT:          0  itMISS:          0  dtACCESS:          0  dtHIT:          0  dtMISS:          0
cpu0_L2C WRITE        ACCESS:     340165  HIT:     336561  MISS:       3604  iACCESS:          0  iHIT:          0  iMISS:          0  dACCESS:     340165  dHIT:     336561  dMISS:       3604  itACCESS:          0  itHIT:          0  itMISS:          0  dtACCESS:          0  dtHIT:          0  dtMISS:          0
cpu0_L2C TRANSLATION  ACCESS:     468164  HIT:      55067  MISS:     413097  iACCESS:          0  iHIT:          0  iMISS:          0  dACCESS:          0  dHIT:          0  dMISS:          0  itACCESS:     107869  itHIT:      18650  itMISS:      89219  dtACCESS:     360295  dtHIT:      36417  dtMISS:     323878
cpu0_L2C PREFETCH  REQUESTED:    1502025  ISSUED:    1502023  CROSSED:          0  USEFUL:     358980  USELESS:     324840
cpu0_L2C AVERAGE iMISS LATENCY: 40.4127 cycles
cpu0_L2C AVERAGE dMISS LATENCY: 77.0611 cycles
cpu0_L2C AVERAGE itMISS LATENCY: 3.79618 cycles
cpu0_L2C AVERAGE dtMISS LATENCY: 14.3154 cycles
cpu0_L2C PAGE CROSSINGS (TLB HIT):         0 
cpu0_L2C PAGE CROSSINGS (TLB MISS):         0 
cpu0_L2C AVERAGE MISS LATENCY: 135.586 cycles
LLC TOTAL       ACCESS:    4348783  HIT:    1348061  MISS:    3000722  iACCESS:    1394505  iHIT:     442306  iMISS:     952199  dACCESS:    2541181  dHIT:     865833  dMISS:    1675348  itACCESS:      89219  itHIT:       6372  itMISS:      82847  dtACCESS:     323878  dtHIT:      33550  dtMISS:     290328
LLC LOAD         ACCESS:    1018520  HIT:     335968  MISS:     682552  iACCESS:     306173  iHIT:     104514  iMISS:     201659  dACCESS:     712347  dHIT:     231454  dMISS:     480893  itACCESS:          0  itHIT:          0  itMISS:          0  dtACCESS:          0  dtHIT:          0  dtMISS:          0
LLC RFO          ACCESS:     126204  HIT:      40243  MISS:      85961  iACCESS:          0  iHIT:          0  iMISS:          0  dACCESS:     126204  dHIT:      40243  dMISS:      85961  itACCESS:          0  itHIT:          0  itMISS:          0  dtACCESS:          0  dtHIT:          0  dtMISS:          0
LLC PREFETCH     ACCESS:    2583535  HIT:     734496  MISS:    1849039  iACCESS:    1088332  iHIT:     337792  iMISS:     750540  dACCESS:    1495203  dHIT:     396704  dMISS:    1098499  itACCESS:          0  itHIT:          0  itMISS:          0  dtACCESS:          0  dtHIT:          0  dtMISS:          0
LLC WRITE        ACCESS:     207427  HIT:     197432  MISS:       9995  iACCESS:          0  iHIT:          0  iMISS:          0  dACCESS:     207427  dHIT:     197432  dMISS:       9995  itACCESS:          0  itHIT:          0  itMISS:          0  dtACCESS:          0  dtHIT:          0  dtMISS:          0
LLC TRANSLATION  ACCESS:     413097  HIT:      39922  MISS:     373175  iACCESS:          0  iHIT:          0  iMISS:          0  dACCESS:          0  dHIT:          0  dMISS:          0  itACCESS:      89219  itHIT:       6372  itMISS:      82847  dtACCESS:     323878  dtHIT:      33550  dtMISS:     290328
LLC PREFETCH  REQUESTED:          0  ISSUED:          0  CROSSED:          0  USEFUL:          0  USELESS:          0
LLC AVERAGE iMISS LATENCY: 49.5027 cycles
LLC AVERAGE dMISS LATENCY: 97.1064 cycles
LLC AVERAGE itMISS LATENCY: 4.92014 cycles
LLC AVERAGE dtMISS LATENCY: 18.6436 cycles
LLC PAGE CROSSINGS (TLB HIT):         0 
LLC PAGE CROSSINGS (TLB MISS):         0 
LLC AVERAGE MISS LATENCY: 170.173 cycles

PageTableWalker TOTAL       ACCESS:     174071  
PageTableWalker AVERAGE LATENCY: 6.56315 cycles
PageTableWalker TOTAL LATENCY: 1142453 cycles

DRAM Statistics
Channel 0
 RQ ROW_BUFFER_HIT:     672918
  ROW_BUFFER_MISS:    2308520
 AVG DBUS CONGESTED CYCLE:    3.64427
 WQ ROW_BUFFER_HIT:      63912
  ROW_BUFFER_MISS:      51507  FULL:          0

