last_page:0x200000000000000
VMEM_RES_CAP:0x100000
PAGE_SIZE:4096
LOG2_PAGE_SIZE:12
LOG2_PAGE_TABLE_SIZE:9
page_table_levels:5
WARNING: physical memory size is smaller than virtual memory size
FDiP enabled with aggresivity 16

*** ChampSim Multicore Out-of-Order Simulator ***

Warmup Instructions: 50000000
Simulation Instructions: 100000000
Number of CPUs: 1
Small page size: 4096
Large page size: 2097152

CPU 0 Bimodal branch predictor
Basic BTB sets: 1024 ways: 8 indirect buffer size: 4096 RAS size: 64
Instruction page size distrubution: 0
Loading instruction page size distribution from /home/bsc/bsc018186/scratch/itp_asplos25_AE/dump/smt_srv85_ap_srv697_ap_1024i.pdst
Data page size distrubution: 0
Loading data page size distribution from /home/bsc/bsc018186/scratch/itp_asplos25_AE/dump/smt_srv85_ap_srv697_ap_1024i.pdst
cpu0_L2C IP-based stride prefetcher
cpu0_L2C is using PTP replacement policy:
	TLB_STRESS_THRESHOLD:0
	PTE_EVICTION_RATIO:0
cpu0_L1D next line prefetcher
CHiRPing...
cpu0_L1I next line prefetcher
Off-chip DRAM Size: 4 GiB Channels: 1 Width: 64-bit Data Rate: 3200 MT/s
Heartbeat CPU 0 instructions: 10000002 cycles: 2500325 heartbeat IPC: 3.99949 cumulative IPC: 3.99949 (Simulation time: 0 hr 0 min 36 sec) 
Heartbeat CPU 0 instructions: 20000002 cycles: 5000661 heartbeat IPC: 3.99947 cumulative IPC: 3.99948 (Simulation time: 0 hr 1 min 14 sec) 
Heartbeat CPU 0 instructions: 30000002 cycles: 7501114 heartbeat IPC: 3.99928 cumulative IPC: 3.99941 (Simulation time: 0 hr 1 min 52 sec) 
Heartbeat CPU 0 instructions: 40000003 cycles: 10001277 heartbeat IPC: 3.99974 cumulative IPC: 3.99949 (Simulation time: 0 hr 2 min 31 sec) 
Heartbeat CPU 0 instructions: 50000001 cycles: 12501621 heartbeat IPC: 3.99945 cumulative IPC: 3.99949 (Simulation time: 0 hr 3 min 9 sec) 
Warmup finished CPU 0 instructions: 50000001 cycles: 12501622 cumulative IPC: 3.99949 (Simulation time: 0 hr 3 min 9 sec) 

Warmup complete CPU 0 instructions: 50000001 cycles: 12501622 (Simulation time: 0 hr 3 min 9 sec) 

Heartbeat CPU 0 instructions: 60000003 cycles: 42145187 heartbeat IPC: 0.337342 cumulative IPC: 0.337342 (Simulation time: 0 hr 4 min 30 sec) 
Heartbeat CPU 0 instructions: 70000002 cycles: 70749299 heartbeat IPC: 0.349601 cumulative IPC: 0.343362 (Simulation time: 0 hr 5 min 50 sec) 
Heartbeat CPU 0 instructions: 80000002 cycles: 99980427 heartbeat IPC: 0.342102 cumulative IPC: 0.342941 (Simulation time: 0 hr 7 min 10 sec) 
Heartbeat CPU 0 instructions: 90000002 cycles: 129949451 heartbeat IPC: 0.333678 cumulative IPC: 0.340577 (Simulation time: 0 hr 8 min 32 sec) 
Heartbeat CPU 0 instructions: 100000000 cycles: 159271623 heartbeat IPC: 0.341039 cumulative IPC: 0.34067 (Simulation time: 0 hr 9 min 53 sec) 
Heartbeat CPU 0 instructions: 110000002 cycles: 188203726 heartbeat IPC: 0.345637 cumulative IPC: 0.341488 (Simulation time: 0 hr 11 min 14 sec) 
Heartbeat CPU 0 instructions: 120000001 cycles: 217669183 heartbeat IPC: 0.339381 cumulative IPC: 0.341185 (Simulation time: 0 hr 12 min 35 sec) 
Heartbeat CPU 0 instructions: 130000004 cycles: 246995822 heartbeat IPC: 0.340988 cumulative IPC: 0.34116 (Simulation time: 0 hr 13 min 56 sec) 
Heartbeat CPU 0 instructions: 140000004 cycles: 275456188 heartbeat IPC: 0.351366 cumulative IPC: 0.342265 (Simulation time: 0 hr 15 min 16 sec) 
Heartbeat CPU 0 instructions: 150000002 cycles: 304925697 heartbeat IPC: 0.339334 cumulative IPC: 0.34197 (Simulation time: 0 hr 16 min 38 sec) 
Simulation finished CPU 0 instructions: 100000001 cycles: 292424076 cumulative IPC: 0.34197 (Simulation time: 0 hr 16 min 38 sec) 

Simulation complete CPU 0 instructions: 100000001 cycles: 292424076 (Simulation time: 0 hr 16 min 38 sec) 


ChampSim completed all CPUs

Saving instructions large page distribution to /home/bsc/bsc018186/scratch/itp_asplos25_AE/dump/smt_srv85_ap_srv697_ap_1024i.pdst...
Saving data large page distribution to /home/bsc/bsc018186/scratch/itp_asplos25_AE/dump/smt_srv85_ap_srv697_ap_1024i.pdst...
=== Simulation ===
CPU 0 runs /gpfs/projects/bsc18/MN4/bsc18/romol/ChampSim/traces/qualcomm_srv/smt_srv85_ap_srv697_ap_1024i.champsimtrace.xz

Region of Interest Statistics

CPU 0 cumulative IPC: 0.34197 instructions: 100000001 cycles: 292424076
CPU 0 Branch Prediction Accuracy: 75.8097% MPKI: 43.476 Average ROB Occupancy at Mispredict: 11.4059
Branch type MPKI
BRANCH_DIRECT_JUMP: 1.31006
BRANCH_INDIRECT: 22.7115
BRANCH_CONDITIONAL: 12.6022
BRANCH_DIRECT_CALL: 2.48505
BRANCH_INDIRECT_CALL: 0.92767
BRANCH_RETURN: 3.43951

Instructions large pages: 0
Instructions small pages: 13219
Large page distribution for instructions: 0%

Data large pages: 0
Data small pages: 11961
Large page distribution for data: 0%

cpu0_L1I TOTAL       ACCESS:   39071221  HIT:   30386664  MISS:    8684557  iACCESS:   39071221  iHIT:   30386664  iMISS:    8684557  dACCESS:          0  dHIT:          0  dMISS:          0  itACCESS:          0  itHIT:          0  itMISS:          0  dtACCESS:          0  dtHIT:          0  dtMISS:          0
cpu0_L1I LOAD         ACCESS:   11748220  HIT:    9377951  MISS:    2370269  iACCESS:   11748220  iHIT:    9377951  iMISS:    2370269  dACCESS:          0  dHIT:          0  dMISS:          0  itACCESS:          0  itHIT:          0  itMISS:          0  dtACCESS:          0  dtHIT:          0  dtMISS:          0
cpu0_L1I RFO          ACCESS:          0  HIT:          0  MISS:          0  iACCESS:          0  iHIT:          0  iMISS:          0  dACCESS:          0  dHIT:          0  dMISS:          0  itACCESS:          0  itHIT:          0  itMISS:          0  dtACCESS:          0  dtHIT:          0  dtMISS:          0
cpu0_L1I PREFETCH     ACCESS:   27323001  HIT:   21008713  MISS:    6314288  iACCESS:   27323001  iHIT:   21008713  iMISS:    6314288  dACCESS:          0  dHIT:          0  dMISS:          0  itACCESS:          0  itHIT:          0  itMISS:          0  dtACCESS:          0  dtHIT:          0  dtMISS:          0
cpu0_L1I WRITE        ACCESS:          0  HIT:          0  MISS:          0  iACCESS:          0  iHIT:          0  iMISS:          0  dACCESS:          0  dHIT:          0  dMISS:          0  itACCESS:          0  itHIT:          0  itMISS:          0  dtACCESS:          0  dtHIT:          0  dtMISS:          0
cpu0_L1I TRANSLATION  ACCESS:          0  HIT:          0  MISS:          0  iACCESS:          0  iHIT:          0  iMISS:          0  dACCESS:          0  dHIT:          0  dMISS:          0  itACCESS:          0  itHIT:          0  itMISS:          0  dtACCESS:          0  dtHIT:          0  dtMISS:          0
cpu0_L1I PREFETCH  REQUESTED:   30189998  ISSUED:   30189978  CROSSED:          0  USEFUL:    2197819  USELESS:     754797
cpu0_L1I AVERAGE iMISS LATENCY: 23.3467 cycles
cpu0_L1I AVERAGE dMISS LATENCY: 0 cycles
cpu0_L1I AVERAGE itMISS LATENCY: 0 cycles
cpu0_L1I AVERAGE dtMISS LATENCY: 0 cycles
cpu0_L1I PAGE CROSSINGS (TLB HIT):         0 
cpu0_L1I PAGE CROSSINGS (TLB MISS):         0 
cpu0_L1I AVERAGE MISS LATENCY: 23.3467 cycles
cpu0_ITLB TOTAL       ACCESS:   32976697  HIT:   30774489  MISS:    2202208  iACCESS:   32976697  iHIT:   30774489  iMISS:    2202208  dACCESS:          0  dHIT:          0  dMISS:          0  itACCESS:          0  itHIT:          0  itMISS:          0  dtACCESS:          0  dtHIT:          0  dtMISS:          0
cpu0_ITLB LOAD         ACCESS:   32976697  HIT:   30774489  MISS:    2202208  iACCESS:   32976697  iHIT:   30774489  iMISS:    2202208  dACCESS:          0  dHIT:          0  dMISS:          0  itACCESS:          0  itHIT:          0  itMISS:          0  dtACCESS:          0  dtHIT:          0  dtMISS:          0
cpu0_ITLB RFO          ACCESS:          0  HIT:          0  MISS:          0  iACCESS:          0  iHIT:          0  iMISS:          0  dACCESS:          0  dHIT:          0  dMISS:          0  itACCESS:          0  itHIT:          0  itMISS:          0  dtACCESS:          0  dtHIT:          0  dtMISS:          0
cpu0_ITLB PREFETCH     ACCESS:          0  HIT:          0  MISS:          0  iACCESS:          0  iHIT:          0  iMISS:          0  dACCESS:          0  dHIT:          0  dMISS:          0  itACCESS:          0  itHIT:          0  itMISS:          0  dtACCESS:          0  dtHIT:          0  dtMISS:          0
cpu0_ITLB WRITE        ACCESS:          0  HIT:          0  MISS:          0  iACCESS:          0  iHIT:          0  iMISS:          0  dACCESS:          0  dHIT:          0  dMISS:          0  itACCESS:          0  itHIT:          0  itMISS:          0  dtACCESS:          0  dtHIT:          0  dtMISS:          0
cpu0_ITLB TRANSLATION  ACCESS:          0  HIT:          0  MISS:          0  iACCESS:          0  iHIT:          0  iMISS:          0  dACCESS:          0  dHIT:          0  dMISS:          0  itACCESS:          0  itHIT:          0  itMISS:          0  dtACCESS:          0  dtHIT:          0  dtMISS:          0
cpu0_ITLB PREFETCH  REQUESTED:          0  ISSUED:          0  CROSSED:          0  USEFUL:     383557  USELESS:      77715
cpu0_ITLB AVERAGE iMISS LATENCY: 9.93967 cycles
cpu0_ITLB AVERAGE dMISS LATENCY: 0 cycles
cpu0_ITLB AVERAGE itMISS LATENCY: 0 cycles
cpu0_ITLB AVERAGE dtMISS LATENCY: 0 cycles
cpu0_ITLB PAGE CROSSINGS (TLB HIT):         0 
cpu0_ITLB PAGE CROSSINGS (TLB MISS):         0 
cpu0_ITLB AVERAGE MISS LATENCY: 9.93967 cycles
cpu0_DTLB TOTAL       ACCESS:   28767191  HIT:   25042054  MISS:    3725137  iACCESS:          0  iHIT:          0  iMISS:          0  dACCESS:   28767191  dHIT:   25042054  dMISS:    3725137  itACCESS:          0  itHIT:          0  itMISS:          0  dtACCESS:          0  dtHIT:          0  dtMISS:          0
cpu0_DTLB LOAD         ACCESS:   28767191  HIT:   25042054  MISS:    3725137  iACCESS:          0  iHIT:          0  iMISS:          0  dACCESS:   28767191  dHIT:   25042054  dMISS:    3725137  itACCESS:          0  itHIT:          0  itMISS:          0  dtACCESS:          0  dtHIT:          0  dtMISS:          0
cpu0_DTLB RFO          ACCESS:          0  HIT:          0  MISS:          0  iACCESS:          0  iHIT:          0  iMISS:          0  dACCESS:          0  dHIT:          0  dMISS:          0  itACCESS:          0  itHIT:          0  itMISS:          0  dtACCESS:          0  dtHIT:          0  dtMISS:          0
cpu0_DTLB PREFETCH     ACCESS:          0  HIT:          0  MISS:          0  iACCESS:          0  iHIT:          0  iMISS:          0  dACCESS:          0  dHIT:          0  dMISS:          0  itACCESS:          0  itHIT:          0  itMISS:          0  dtACCESS:          0  dtHIT:          0  dtMISS:          0
cpu0_DTLB WRITE        ACCESS:          0  HIT:          0  MISS:          0  iACCESS:          0  iHIT:          0  iMISS:          0  dACCESS:          0  dHIT:          0  dMISS:          0  itACCESS:          0  itHIT:          0  itMISS:          0  dtACCESS:          0  dtHIT:          0  dtMISS:          0
cpu0_DTLB TRANSLATION  ACCESS:          0  HIT:          0  MISS:          0  iACCESS:          0  iHIT:          0  iMISS:          0  dACCESS:          0  dHIT:          0  dMISS:          0  itACCESS:          0  itHIT:          0  itMISS:          0  dtACCESS:          0  dtHIT:          0  dtMISS:          0
cpu0_DTLB PREFETCH  REQUESTED:          0  ISSUED:          0  CROSSED:          0  USEFUL:          0  USELESS:          0
cpu0_DTLB AVERAGE iMISS LATENCY: 0 cycles
cpu0_DTLB AVERAGE dMISS LATENCY: 24.3675 cycles
cpu0_DTLB AVERAGE itMISS LATENCY: 0 cycles
cpu0_DTLB AVERAGE dtMISS LATENCY: 0 cycles
cpu0_DTLB PAGE CROSSINGS (TLB HIT):         0 
cpu0_DTLB PAGE CROSSINGS (TLB MISS):         0 
cpu0_DTLB AVERAGE MISS LATENCY: 24.3675 cycles
cpu0_STLB TOTAL       ACCESS:    2619710  HIT:    2251926  MISS:     367784  iACCESS:     461272  iHIT:     353405  iMISS:     107867  dACCESS:    2158438  dHIT:    1898521  dMISS:     259917  itACCESS:          0  itHIT:          0  itMISS:          0  dtACCESS:          0  dtHIT:          0  dtMISS:          0
cpu0_STLB LOAD         ACCESS:    2619710  HIT:    2251926  MISS:     367784  iACCESS:     461272  iHIT:     353405  iMISS:     107867  dACCESS:    2158438  dHIT:    1898521  dMISS:     259917  itACCESS:          0  itHIT:          0  itMISS:          0  dtACCESS:          0  dtHIT:          0  dtMISS:          0
cpu0_STLB RFO          ACCESS:          0  HIT:          0  MISS:          0  iACCESS:          0  iHIT:          0  iMISS:          0  dACCESS:          0  dHIT:          0  dMISS:          0  itACCESS:          0  itHIT:          0  itMISS:          0  dtACCESS:          0  dtHIT:          0  dtMISS:          0
cpu0_STLB PREFETCH     ACCESS:          0  HIT:          0  MISS:          0  iACCESS:          0  iHIT:          0  iMISS:          0  dACCESS:          0  dHIT:          0  dMISS:          0  itACCESS:          0  itHIT:          0  itMISS:          0  dtACCESS:          0  dtHIT:          0  dtMISS:          0
cpu0_STLB WRITE        ACCESS:          0  HIT:          0  MISS:          0  iACCESS:          0  iHIT:          0  iMISS:          0  dACCESS:          0  dHIT:          0  dMISS:          0  itACCESS:          0  itHIT:          0  itMISS:          0  dtACCESS:          0  dtHIT:          0  dtMISS:          0
cpu0_STLB TRANSLATION  ACCESS:          0  HIT:          0  MISS:          0  iACCESS:          0  iHIT:          0  iMISS:          0  dACCESS:          0  dHIT:          0  dMISS:          0  itACCESS:          0  itHIT:          0  itMISS:          0  dtACCESS:          0  dtHIT:          0  dtMISS:          0
cpu0_STLB PREFETCH  REQUESTED:          0  ISSUED:          0  CROSSED:          0  USEFUL:          0  USELESS:          0
cpu0_STLB AVERAGE iMISS LATENCY: 49.4985 cycles
cpu0_STLB AVERAGE dMISS LATENCY: 199.593 cycles
cpu0_STLB AVERAGE itMISS LATENCY: 0 cycles
cpu0_STLB AVERAGE dtMISS LATENCY: 0 cycles
cpu0_STLB PAGE CROSSINGS (TLB HIT):         0 
cpu0_STLB PAGE CROSSINGS (TLB MISS):         0 
cpu0_STLB AVERAGE MISS LATENCY: 249.092 cycles
cpu0_L1D TOTAL       ACCESS:   44476610  HIT:   39091159  MISS:    5385451  iACCESS:          0  iHIT:          0  iMISS:          0  dACCESS:   43934319  dHIT:   39056968  dMISS:    4877351  itACCESS:     122894  itHIT:      14622  itMISS:     108272  dtACCESS:     419397  dtHIT:      19569  dtMISS:     399828
cpu0_L1D LOAD         ACCESS:   20035886  HIT:   17853391  MISS:    2182495  iACCESS:          0  iHIT:          0  iMISS:          0  dACCESS:   20035886  dHIT:   17853391  dMISS:    2182495  itACCESS:          0  itHIT:          0  itMISS:          0  dtACCESS:          0  dtHIT:          0  dtMISS:          0
cpu0_L1D RFO          ACCESS:          0  HIT:          0  MISS:          0  iACCESS:          0  iHIT:          0  iMISS:          0  dACCESS:          0  dHIT:          0  dMISS:          0  itACCESS:          0  itHIT:          0  itMISS:          0  dtACCESS:          0  dtHIT:          0  dtMISS:          0
cpu0_L1D PREFETCH     ACCESS:   13760192  HIT:   11620198  MISS:    2139994  iACCESS:          0  iHIT:          0  iMISS:          0  dACCESS:   13760192  dHIT:   11620198  dMISS:    2139994  itACCESS:          0  itHIT:          0  itMISS:          0  dtACCESS:          0  dtHIT:          0  dtMISS:          0
cpu0_L1D WRITE        ACCESS:   10138241  HIT:    9583379  MISS:     554862  iACCESS:          0  iHIT:          0  iMISS:          0  dACCESS:   10138241  dHIT:    9583379  dMISS:     554862  itACCESS:          0  itHIT:          0  itMISS:          0  dtACCESS:          0  dtHIT:          0  dtMISS:          0
cpu0_L1D TRANSLATION  ACCESS:     542291  HIT:      34191  MISS:     508100  iACCESS:          0  iHIT:          0  iMISS:          0  dACCESS:          0  dHIT:          0  dMISS:          0  itACCESS:     122894  itHIT:      14622  itMISS:     108272  dtACCESS:     419397  dtHIT:      19569  dtMISS:     399828
cpu0_L1D PREFETCH  REQUESTED:   20035886  ISSUED:   18374294  CROSSED:          0  USEFUL:     357751  USELESS:     930237
cpu0_L1D AVERAGE iMISS LATENCY: 0 cycles
cpu0_L1D AVERAGE dMISS LATENCY: 50.5466 cycles
cpu0_L1D AVERAGE itMISS LATENCY: 3.19476 cycles
cpu0_L1D AVERAGE dtMISS LATENCY: 12.6297 cycles
cpu0_L1D PAGE CROSSINGS (TLB HIT):         0 
cpu0_L1D PAGE CROSSINGS (TLB MISS):         0 
cpu0_L1D AVERAGE MISS LATENCY: 66.371 cycles
cpu0_L2C TOTAL       ACCESS:    8547323  HIT:    4192647  MISS:    4354676  iACCESS:    3757317  iHIT:    2301956  iMISS:    1455361  dACCESS:    4310204  dHIT:    1832088  dMISS:    2478116  itACCESS:     106273  itHIT:      19106  itMISS:      87167  dtACCESS:     373529  dtHIT:      39497  dtMISS:     334032
cpu0_L2C LOAD         ACCESS:    2049140  HIT:    1010906  MISS:    1038234  iACCESS:     843801  iHIT:     539429  iMISS:     304372  dACCESS:    1205339  dHIT:     471477  dMISS:     733862  itACCESS:          0  itHIT:          0  itMISS:          0  dtACCESS:          0  dtHIT:          0  dtMISS:          0
cpu0_L2C RFO          ACCESS:     209427  HIT:      83692  MISS:     125735  iACCESS:          0  iHIT:          0  iMISS:          0  dACCESS:     209427  dHIT:      83692  dMISS:     125735  itACCESS:          0  itHIT:          0  itMISS:          0  dtACCESS:          0  dtHIT:          0  dtMISS:          0
cpu0_L2C PREFETCH     ACCESS:    5462839  HIT:    2697121  MISS:    2765718  iACCESS:    2913516  iHIT:    1762527  iMISS:    1150989  dACCESS:    2549323  dHIT:     934594  dMISS:    1614729  itACCESS:          0  itHIT:          0  itMISS:          0  dtACCESS:          0  dtHIT:          0  dtMISS:          0
cpu0_L2C WRITE        ACCESS:     346115  HIT:     342325  MISS:       3790  iACCESS:          0  iHIT:          0  iMISS:          0  dACCESS:     346115  dHIT:     342325  dMISS:       3790  itACCESS:          0  itHIT:          0  itMISS:          0  dtACCESS:          0  dtHIT:          0  dtMISS:          0
cpu0_L2C TRANSLATION  ACCESS:     479802  HIT:      58603  MISS:     421199  iACCESS:          0  iHIT:          0  iMISS:          0  dACCESS:          0  dHIT:          0  dMISS:          0  itACCESS:     106273  itHIT:      19106  itMISS:      87167  dtACCESS:     373529  dtHIT:      39497  dtMISS:     334032
cpu0_L2C PREFETCH  REQUESTED:    1505407  ISSUED:    1505407  CROSSED:          0  USEFUL:     358479  USELESS:     317731
cpu0_L2C AVERAGE iMISS LATENCY: 39.2079 cycles
cpu0_L2C AVERAGE dMISS LATENCY: 77.568 cycles
cpu0_L2C AVERAGE itMISS LATENCY: 3.71063 cycles
cpu0_L2C AVERAGE dtMISS LATENCY: 14.7655 cycles
cpu0_L2C PAGE CROSSINGS (TLB HIT):         0 
cpu0_L2C PAGE CROSSINGS (TLB MISS):         0 
cpu0_L2C AVERAGE MISS LATENCY: 135.252 cycles
LLC TOTAL       ACCESS:    4358118  HIT:    1398991  MISS:    2959127  iACCESS:    1364950  iHIT:     454287  iMISS:     910663  dACCESS:    2571969  dHIT:     903168  dMISS:    1668801  itACCESS:      87167  itHIT:       6463  itMISS:      80704  dtACCESS:     334032  dtHIT:      35073  dtMISS:     298959
LLC LOAD         ACCESS:    1032821  HIT:     352825  MISS:     679996  iACCESS:     303116  iHIT:     107887  iMISS:     195229  dACCESS:     729705  dHIT:     244938  dMISS:     484767  itACCESS:          0  itHIT:          0  itMISS:          0  dtACCESS:          0  dtHIT:          0  dtMISS:          0
LLC RFO          ACCESS:     125731  HIT:      39757  MISS:      85974  iACCESS:          0  iHIT:          0  iMISS:          0  dACCESS:     125731  dHIT:      39757  dMISS:      85974  itACCESS:          0  itHIT:          0  itMISS:          0  dtACCESS:          0  dtHIT:          0  dtMISS:          0
LLC PREFETCH     ACCESS:    2563664  HIT:     760670  MISS:    1802994  iACCESS:    1061834  iHIT:     346400  iMISS:     715434  dACCESS:    1501830  dHIT:     414270  dMISS:    1087560  itACCESS:          0  itHIT:          0  itMISS:          0  dtACCESS:          0  dtHIT:          0  dtMISS:          0
LLC WRITE        ACCESS:     214703  HIT:     204203  MISS:      10500  iACCESS:          0  iHIT:          0  iMISS:          0  dACCESS:     214703  dHIT:     204203  dMISS:      10500  itACCESS:          0  itHIT:          0  itMISS:          0  dtACCESS:          0  dtHIT:          0  dtMISS:          0
LLC TRANSLATION  ACCESS:     421199  HIT:      41536  MISS:     379663  iACCESS:          0  iHIT:          0  iMISS:          0  dACCESS:          0  dHIT:          0  dMISS:          0  itACCESS:      87167  itHIT:       6463  itMISS:      80704  dtACCESS:     334032  dtHIT:      35073  dtMISS:     298959
LLC PREFETCH  REQUESTED:          0  ISSUED:          0  CROSSED:          0  USEFUL:          0  USELESS:          0
LLC AVERAGE iMISS LATENCY: 48.6151 cycles
LLC AVERAGE dMISS LATENCY: 99.2157 cycles
LLC AVERAGE itMISS LATENCY: 4.87635 cycles
LLC AVERAGE dtMISS LATENCY: 19.497 cycles
LLC PAGE CROSSINGS (TLB HIT):         0 
LLC PAGE CROSSINGS (TLB MISS):         0 
LLC AVERAGE MISS LATENCY: 172.205 cycles

PageTableWalker TOTAL       ACCESS:     185893  
PageTableWalker AVERAGE LATENCY: 6.55945 cycles
PageTableWalker TOTAL LATENCY: 1219354 cycles

DRAM Statistics
Channel 0
 RQ ROW_BUFFER_HIT:     624718
  ROW_BUFFER_MISS:    2312368
 AVG DBUS CONGESTED CYCLE:    3.64667
 WQ ROW_BUFFER_HIT:      64726
  ROW_BUFFER_MISS:      55075  FULL:          0

