last_page:0x200000000000000
VMEM_RES_CAP:0x100000
PAGE_SIZE:4096
LOG2_PAGE_SIZE:12
LOG2_PAGE_TABLE_SIZE:9
page_table_levels:5
WARNING: physical memory size is smaller than virtual memory size
FDiP enabled with aggresivity 16

*** ChampSim Multicore Out-of-Order Simulator ***

Warmup Instructions: 50000000
Simulation Instructions: 100000000
Number of CPUs: 1
Small page size: 4096
Large page size: 2097152

CPU 0 Bimodal branch predictor
Basic BTB sets: 1024 ways: 8 indirect buffer size: 4096 RAS size: 64
Instruction page size distrubution: 0
Loading instruction page size distribution from /home/bsc/bsc018186/scratch/itp_asplos25_AE/dump/smt_srv12_ap_srv180_ap_1024i.pdst
Data page size distrubution: 0
Loading data page size distribution from /home/bsc/bsc018186/scratch/itp_asplos25_AE/dump/smt_srv12_ap_srv180_ap_1024i.pdst
cpu0_L2C IP-based stride prefetcher
cpu0_L2C is using PTP replacement policy:
	TLB_STRESS_THRESHOLD:0
	PTE_EVICTION_RATIO:0
cpu0_L1D next line prefetcher
CHiRPing...
cpu0_L1I next line prefetcher
Off-chip DRAM Size: 4 GiB Channels: 1 Width: 64-bit Data Rate: 3200 MT/s
Heartbeat CPU 0 instructions: 10000002 cycles: 2500596 heartbeat IPC: 3.99905 cumulative IPC: 3.99905 (Simulation time: 0 hr 0 min 45 sec) 
Heartbeat CPU 0 instructions: 20000002 cycles: 5000796 heartbeat IPC: 3.99969 cumulative IPC: 3.99937 (Simulation time: 0 hr 1 min 29 sec) 
Heartbeat CPU 0 instructions: 30000000 cycles: 7501776 heartbeat IPC: 3.99844 cumulative IPC: 3.99906 (Simulation time: 0 hr 2 min 20 sec) 
Heartbeat CPU 0 instructions: 40000002 cycles: 10002299 heartbeat IPC: 3.99917 cumulative IPC: 3.99909 (Simulation time: 0 hr 3 min 8 sec) 
Heartbeat CPU 0 instructions: 50000002 cycles: 12502394 heartbeat IPC: 3.99985 cumulative IPC: 3.99924 (Simulation time: 0 hr 3 min 56 sec) 
Warmup finished CPU 0 instructions: 50000002 cycles: 12502395 cumulative IPC: 3.99924 (Simulation time: 0 hr 3 min 56 sec) 

Warmup complete CPU 0 instructions: 50000002 cycles: 12502395 (Simulation time: 0 hr 3 min 56 sec) 

Heartbeat CPU 0 instructions: 60000001 cycles: 42869721 heartbeat IPC: 0.329302 cumulative IPC: 0.329302 (Simulation time: 0 hr 5 min 34 sec) 
Heartbeat CPU 0 instructions: 70000001 cycles: 71979752 heartbeat IPC: 0.343525 cumulative IPC: 0.336263 (Simulation time: 0 hr 7 min 9 sec) 
Heartbeat CPU 0 instructions: 80000001 cycles: 102964591 heartbeat IPC: 0.322739 cumulative IPC: 0.331631 (Simulation time: 0 hr 8 min 49 sec) 
Heartbeat CPU 0 instructions: 90000000 cycles: 128668977 heartbeat IPC: 0.389039 cumulative IPC: 0.344334 (Simulation time: 0 hr 10 min 19 sec) 
Heartbeat CPU 0 instructions: 100000000 cycles: 157863800 heartbeat IPC: 0.342527 cumulative IPC: 0.343971 (Simulation time: 0 hr 11 min 54 sec) 
Heartbeat CPU 0 instructions: 110000000 cycles: 187610796 heartbeat IPC: 0.336169 cumulative IPC: 0.342645 (Simulation time: 0 hr 13 min 31 sec) 
Heartbeat CPU 0 instructions: 120000000 cycles: 216720376 heartbeat IPC: 0.34353 cumulative IPC: 0.342771 (Simulation time: 0 hr 15 min 7 sec) 
Heartbeat CPU 0 instructions: 130000000 cycles: 245337056 heartbeat IPC: 0.349447 cumulative IPC: 0.343592 (Simulation time: 0 hr 16 min 40 sec) 
Heartbeat CPU 0 instructions: 140000000 cycles: 275644712 heartbeat IPC: 0.32995 cumulative IPC: 0.342021 (Simulation time: 0 hr 18 min 18 sec) 
Heartbeat CPU 0 instructions: 150000002 cycles: 304775252 heartbeat IPC: 0.343283 cumulative IPC: 0.342147 (Simulation time: 0 hr 19 min 54 sec) 
Simulation finished CPU 0 instructions: 100000000 cycles: 292272858 cumulative IPC: 0.342147 (Simulation time: 0 hr 19 min 54 sec) 

Simulation complete CPU 0 instructions: 100000000 cycles: 292272858 (Simulation time: 0 hr 19 min 54 sec) 


ChampSim completed all CPUs

Saving instructions large page distribution to /home/bsc/bsc018186/scratch/itp_asplos25_AE/dump/smt_srv12_ap_srv180_ap_1024i.pdst...
Saving data large page distribution to /home/bsc/bsc018186/scratch/itp_asplos25_AE/dump/smt_srv12_ap_srv180_ap_1024i.pdst...
=== Simulation ===
CPU 0 runs /gpfs/projects/bsc18/MN4/bsc18/romol/ChampSim/traces/qualcomm_srv/smt_srv12_ap_srv180_ap_1024i.champsimtrace.xz

Region of Interest Statistics

CPU 0 cumulative IPC: 0.342147 instructions: 100000000 cycles: 292272858
CPU 0 Branch Prediction Accuracy: 75.5618% MPKI: 44.1516 Average ROB Occupancy at Mispredict: 11.2007
Branch type MPKI
BRANCH_DIRECT_JUMP: 1.35208
BRANCH_INDIRECT: 22.6833
BRANCH_CONDITIONAL: 13.0284
BRANCH_DIRECT_CALL: 2.59577
BRANCH_INDIRECT_CALL: 1.0395
BRANCH_RETURN: 3.45257

Instructions large pages: 0
Instructions small pages: 14796
Large page distribution for instructions: 0%

Data large pages: 0
Data small pages: 13082
Large page distribution for data: 0%

cpu0_L1I TOTAL       ACCESS:   38974471  HIT:   30337920  MISS:    8636551  iACCESS:   38974471  iHIT:   30337920  iMISS:    8636551  dACCESS:          0  dHIT:          0  dMISS:          0  itACCESS:          0  itHIT:          0  itMISS:          0  dtACCESS:          0  dtHIT:          0  dtMISS:          0
cpu0_L1I LOAD         ACCESS:   11643090  HIT:    9290966  MISS:    2352124  iACCESS:   11643090  iHIT:    9290966  iMISS:    2352124  dACCESS:          0  dHIT:          0  dMISS:          0  itACCESS:          0  itHIT:          0  itMISS:          0  dtACCESS:          0  dtHIT:          0  dtMISS:          0
cpu0_L1I RFO          ACCESS:          0  HIT:          0  MISS:          0  iACCESS:          0  iHIT:          0  iMISS:          0  dACCESS:          0  dHIT:          0  dMISS:          0  itACCESS:          0  itHIT:          0  itMISS:          0  dtACCESS:          0  dtHIT:          0  dtMISS:          0
cpu0_L1I PREFETCH     ACCESS:   27331381  HIT:   21046954  MISS:    6284427  iACCESS:   27331381  iHIT:   21046954  iMISS:    6284427  dACCESS:          0  dHIT:          0  dMISS:          0  itACCESS:          0  itHIT:          0  itMISS:          0  dtACCESS:          0  dtHIT:          0  dtMISS:          0
cpu0_L1I WRITE        ACCESS:          0  HIT:          0  MISS:          0  iACCESS:          0  iHIT:          0  iMISS:          0  dACCESS:          0  dHIT:          0  dMISS:          0  itACCESS:          0  itHIT:          0  itMISS:          0  dtACCESS:          0  dtHIT:          0  dtMISS:          0
cpu0_L1I TRANSLATION  ACCESS:          0  HIT:          0  MISS:          0  iACCESS:          0  iHIT:          0  iMISS:          0  dACCESS:          0  dHIT:          0  dMISS:          0  itACCESS:          0  itHIT:          0  itMISS:          0  dtACCESS:          0  dtHIT:          0  dtMISS:          0
cpu0_L1I PREFETCH  REQUESTED:   30138320  ISSUED:   30138120  CROSSED:          0  USEFUL:    2191427  USELESS:     755886
cpu0_L1I AVERAGE iMISS LATENCY: 23.6709 cycles
cpu0_L1I AVERAGE dMISS LATENCY: 0 cycles
cpu0_L1I AVERAGE itMISS LATENCY: 0 cycles
cpu0_L1I AVERAGE dtMISS LATENCY: 0 cycles
cpu0_L1I PAGE CROSSINGS (TLB HIT):         0 
cpu0_L1I PAGE CROSSINGS (TLB MISS):         0 
cpu0_L1I AVERAGE MISS LATENCY: 23.6709 cycles
cpu0_ITLB TOTAL       ACCESS:   32970736  HIT:   30773712  MISS:    2197024  iACCESS:   32970736  iHIT:   30773712  iMISS:    2197024  dACCESS:          0  dHIT:          0  dMISS:          0  itACCESS:          0  itHIT:          0  itMISS:          0  dtACCESS:          0  dtHIT:          0  dtMISS:          0
cpu0_ITLB LOAD         ACCESS:   32970736  HIT:   30773712  MISS:    2197024  iACCESS:   32970736  iHIT:   30773712  iMISS:    2197024  dACCESS:          0  dHIT:          0  dMISS:          0  itACCESS:          0  itHIT:          0  itMISS:          0  dtACCESS:          0  dtHIT:          0  dtMISS:          0
cpu0_ITLB RFO          ACCESS:          0  HIT:          0  MISS:          0  iACCESS:          0  iHIT:          0  iMISS:          0  dACCESS:          0  dHIT:          0  dMISS:          0  itACCESS:          0  itHIT:          0  itMISS:          0  dtACCESS:          0  dtHIT:          0  dtMISS:          0
cpu0_ITLB PREFETCH     ACCESS:          0  HIT:          0  MISS:          0  iACCESS:          0  iHIT:          0  iMISS:          0  dACCESS:          0  dHIT:          0  dMISS:          0  itACCESS:          0  itHIT:          0  itMISS:          0  dtACCESS:          0  dtHIT:          0  dtMISS:          0
cpu0_ITLB WRITE        ACCESS:          0  HIT:          0  MISS:          0  iACCESS:          0  iHIT:          0  iMISS:          0  dACCESS:          0  dHIT:          0  dMISS:          0  itACCESS:          0  itHIT:          0  itMISS:          0  dtACCESS:          0  dtHIT:          0  dtMISS:          0
cpu0_ITLB TRANSLATION  ACCESS:          0  HIT:          0  MISS:          0  iACCESS:          0  iHIT:          0  iMISS:          0  dACCESS:          0  dHIT:          0  dMISS:          0  itACCESS:          0  itHIT:          0  itMISS:          0  dtACCESS:          0  dtHIT:          0  dtMISS:          0
cpu0_ITLB PREFETCH  REQUESTED:          0  ISSUED:          0  CROSSED:          0  USEFUL:     386562  USELESS:      77906
cpu0_ITLB AVERAGE iMISS LATENCY: 10.2235 cycles
cpu0_ITLB AVERAGE dMISS LATENCY: 0 cycles
cpu0_ITLB AVERAGE itMISS LATENCY: 0 cycles
cpu0_ITLB AVERAGE dtMISS LATENCY: 0 cycles
cpu0_ITLB PAGE CROSSINGS (TLB HIT):         0 
cpu0_ITLB PAGE CROSSINGS (TLB MISS):         0 
cpu0_ITLB AVERAGE MISS LATENCY: 10.2235 cycles
cpu0_DTLB TOTAL       ACCESS:   28856884  HIT:   25280642  MISS:    3576242  iACCESS:          0  iHIT:          0  iMISS:          0  dACCESS:   28856884  dHIT:   25280642  dMISS:    3576242  itACCESS:          0  itHIT:          0  itMISS:          0  dtACCESS:          0  dtHIT:          0  dtMISS:          0
cpu0_DTLB LOAD         ACCESS:   28856884  HIT:   25280642  MISS:    3576242  iACCESS:          0  iHIT:          0  iMISS:          0  dACCESS:   28856884  dHIT:   25280642  dMISS:    3576242  itACCESS:          0  itHIT:          0  itMISS:          0  dtACCESS:          0  dtHIT:          0  dtMISS:          0
cpu0_DTLB RFO          ACCESS:          0  HIT:          0  MISS:          0  iACCESS:          0  iHIT:          0  iMISS:          0  dACCESS:          0  dHIT:          0  dMISS:          0  itACCESS:          0  itHIT:          0  itMISS:          0  dtACCESS:          0  dtHIT:          0  dtMISS:          0
cpu0_DTLB PREFETCH     ACCESS:          0  HIT:          0  MISS:          0  iACCESS:          0  iHIT:          0  iMISS:          0  dACCESS:          0  dHIT:          0  dMISS:          0  itACCESS:          0  itHIT:          0  itMISS:          0  dtACCESS:          0  dtHIT:          0  dtMISS:          0
cpu0_DTLB WRITE        ACCESS:          0  HIT:          0  MISS:          0  iACCESS:          0  iHIT:          0  iMISS:          0  dACCESS:          0  dHIT:          0  dMISS:          0  itACCESS:          0  itHIT:          0  itMISS:          0  dtACCESS:          0  dtHIT:          0  dtMISS:          0
cpu0_DTLB TRANSLATION  ACCESS:          0  HIT:          0  MISS:          0  iACCESS:          0  iHIT:          0  iMISS:          0  dACCESS:          0  dHIT:          0  dMISS:          0  itACCESS:          0  itHIT:          0  itMISS:          0  dtACCESS:          0  dtHIT:          0  dtMISS:          0
cpu0_DTLB PREFETCH  REQUESTED:          0  ISSUED:          0  CROSSED:          0  USEFUL:          0  USELESS:          0
cpu0_DTLB AVERAGE iMISS LATENCY: 0 cycles
cpu0_DTLB AVERAGE dMISS LATENCY: 24.3803 cycles
cpu0_DTLB AVERAGE itMISS LATENCY: 0 cycles
cpu0_DTLB AVERAGE dtMISS LATENCY: 0 cycles
cpu0_DTLB PAGE CROSSINGS (TLB HIT):         0 
cpu0_DTLB PAGE CROSSINGS (TLB MISS):         0 
cpu0_DTLB AVERAGE MISS LATENCY: 24.3803 cycles
cpu0_STLB TOTAL       ACCESS:    2554436  HIT:    2195516  MISS:     358920  iACCESS:     464473  iHIT:     354553  iMISS:     109920  dACCESS:    2089963  dHIT:    1840963  dMISS:     249000  itACCESS:          0  itHIT:          0  itMISS:          0  dtACCESS:          0  dtHIT:          0  dtMISS:          0
cpu0_STLB LOAD         ACCESS:    2554436  HIT:    2195516  MISS:     358920  iACCESS:     464473  iHIT:     354553  iMISS:     109920  dACCESS:    2089963  dHIT:    1840963  dMISS:     249000  itACCESS:          0  itHIT:          0  itMISS:          0  dtACCESS:          0  dtHIT:          0  dtMISS:          0
cpu0_STLB RFO          ACCESS:          0  HIT:          0  MISS:          0  iACCESS:          0  iHIT:          0  iMISS:          0  dACCESS:          0  dHIT:          0  dMISS:          0  itACCESS:          0  itHIT:          0  itMISS:          0  dtACCESS:          0  dtHIT:          0  dtMISS:          0
cpu0_STLB PREFETCH     ACCESS:          0  HIT:          0  MISS:          0  iACCESS:          0  iHIT:          0  iMISS:          0  dACCESS:          0  dHIT:          0  dMISS:          0  itACCESS:          0  itHIT:          0  itMISS:          0  dtACCESS:          0  dtHIT:          0  dtMISS:          0
cpu0_STLB WRITE        ACCESS:          0  HIT:          0  MISS:          0  iACCESS:          0  iHIT:          0  iMISS:          0  dACCESS:          0  dHIT:          0  dMISS:          0  itACCESS:          0  itHIT:          0  itMISS:          0  dtACCESS:          0  dtHIT:          0  dtMISS:          0
cpu0_STLB TRANSLATION  ACCESS:          0  HIT:          0  MISS:          0  iACCESS:          0  iHIT:          0  iMISS:          0  dACCESS:          0  dHIT:          0  dMISS:          0  itACCESS:          0  itHIT:          0  itMISS:          0  dtACCESS:          0  dtHIT:          0  dtMISS:          0
cpu0_STLB PREFETCH  REQUESTED:          0  ISSUED:          0  CROSSED:          0  USEFUL:          0  USELESS:          0
cpu0_STLB AVERAGE iMISS LATENCY: 52.2401 cycles
cpu0_STLB AVERAGE dMISS LATENCY: 196.08 cycles
cpu0_STLB AVERAGE itMISS LATENCY: 0 cycles
cpu0_STLB AVERAGE dtMISS LATENCY: 0 cycles
cpu0_STLB PAGE CROSSINGS (TLB HIT):         0 
cpu0_STLB PAGE CROSSINGS (TLB MISS):         0 
cpu0_STLB AVERAGE MISS LATENCY: 248.32 cycles
cpu0_L1D TOTAL       ACCESS:   44307884  HIT:   39163201  MISS:    5144683  iACCESS:          0  iHIT:          0  iMISS:          0  dACCESS:   43776735  dHIT:   39129063  dMISS:    4647672  itACCESS:     124105  itHIT:      14984  itMISS:     109121  dtACCESS:     407044  dtHIT:      19154  dtMISS:     387890
cpu0_L1D LOAD         ACCESS:   20017168  HIT:   17948268  MISS:    2068900  iACCESS:          0  iHIT:          0  iMISS:          0  dACCESS:   20017168  dHIT:   17948268  dMISS:    2068900  itACCESS:          0  itHIT:          0  itMISS:          0  dtACCESS:          0  dtHIT:          0  dtMISS:          0
cpu0_L1D RFO          ACCESS:          0  HIT:          0  MISS:          0  iACCESS:          0  iHIT:          0  iMISS:          0  dACCESS:          0  dHIT:          0  dMISS:          0  itACCESS:          0  itHIT:          0  itMISS:          0  dtACCESS:          0  dtHIT:          0  dtMISS:          0
cpu0_L1D PREFETCH     ACCESS:   13602977  HIT:   11577717  MISS:    2025260  iACCESS:          0  iHIT:          0  iMISS:          0  dACCESS:   13602977  dHIT:   11577717  dMISS:    2025260  itACCESS:          0  itHIT:          0  itMISS:          0  dtACCESS:          0  dtHIT:          0  dtMISS:          0
cpu0_L1D WRITE        ACCESS:   10156590  HIT:    9603078  MISS:     553512  iACCESS:          0  iHIT:          0  iMISS:          0  dACCESS:   10156590  dHIT:    9603078  dMISS:     553512  itACCESS:          0  itHIT:          0  itMISS:          0  dtACCESS:          0  dtHIT:          0  dtMISS:          0
cpu0_L1D TRANSLATION  ACCESS:     531149  HIT:      34138  MISS:     497011  iACCESS:          0  iHIT:          0  iMISS:          0  dACCESS:          0  dHIT:          0  dMISS:          0  itACCESS:     124105  itHIT:      14984  itMISS:     109121  dtACCESS:     407044  dtHIT:      19154  dtMISS:     387890
cpu0_L1D PREFETCH  REQUESTED:   20017168  ISSUED:   18364536  CROSSED:          0  USEFUL:     359610  USELESS:     925373
cpu0_L1D AVERAGE iMISS LATENCY: 0 cycles
cpu0_L1D AVERAGE dMISS LATENCY: 52.2876 cycles
cpu0_L1D AVERAGE itMISS LATENCY: 3.43031 cycles
cpu0_L1D AVERAGE dtMISS LATENCY: 12.6377 cycles
cpu0_L1D PAGE CROSSINGS (TLB HIT):         0 
cpu0_L1D PAGE CROSSINGS (TLB MISS):         0 
cpu0_L1D AVERAGE MISS LATENCY: 68.3556 cycles
cpu0_L2C TOTAL       ACCESS:    8507375  HIT:    4101383  MISS:    4405992  iACCESS:    3747856  iHIT:    2258682  iMISS:    1489174  dACCESS:    4291494  dHIT:    1784012  dMISS:    2507482  itACCESS:     108125  itHIT:      18304  itMISS:      89821  dtACCESS:     359900  dtHIT:      40385  dtMISS:     319515
cpu0_L2C LOAD         ACCESS:    2032280  HIT:     985514  MISS:    1046766  iACCESS:     839245  iHIT:     528168  iMISS:     311077  dACCESS:    1193035  dHIT:     457346  dMISS:     735689  itACCESS:          0  itHIT:          0  itMISS:          0  dtACCESS:          0  dtHIT:          0  dtMISS:          0
cpu0_L2C RFO          ACCESS:     208615  HIT:      78938  MISS:     129677  iACCESS:          0  iHIT:          0  iMISS:          0  dACCESS:     208615  dHIT:      78938  dMISS:     129677  itACCESS:          0  itHIT:          0  itMISS:          0  dtACCESS:          0  dtHIT:          0  dtMISS:          0
cpu0_L2C PREFETCH     ACCESS:    5457247  HIT:    2648469  MISS:    2808778  iACCESS:    2908611  iHIT:    1730514  iMISS:    1178097  dACCESS:    2548636  dHIT:     917955  dMISS:    1630681  itACCESS:          0  itHIT:          0  itMISS:          0  dtACCESS:          0  dtHIT:          0  dtMISS:          0
cpu0_L2C WRITE        ACCESS:     341208  HIT:     329773  MISS:      11435  iACCESS:          0  iHIT:          0  iMISS:          0  dACCESS:     341208  dHIT:     329773  dMISS:      11435  itACCESS:          0  itHIT:          0  itMISS:          0  dtACCESS:          0  dtHIT:          0  dtMISS:          0
cpu0_L2C TRANSLATION  ACCESS:     468025  HIT:      58689  MISS:     409336  iACCESS:          0  iHIT:          0  iMISS:          0  dACCESS:          0  dHIT:          0  dMISS:          0  itACCESS:     108125  itHIT:      18304  itMISS:      89821  dtACCESS:     359900  dtHIT:      40385  dtMISS:     319515
cpu0_L2C PREFETCH  REQUESTED:    1505166  ISSUED:    1505164  CROSSED:          0  USEFUL:     358460  USELESS:     329846
cpu0_L2C AVERAGE iMISS LATENCY: 39.1514 cycles
cpu0_L2C AVERAGE dMISS LATENCY: 76.2598 cycles
cpu0_L2C AVERAGE itMISS LATENCY: 3.76346 cycles
cpu0_L2C AVERAGE dtMISS LATENCY: 13.9441 cycles
cpu0_L2C PAGE CROSSINGS (TLB HIT):         0 
cpu0_L2C PAGE CROSSINGS (TLB MISS):         0 
cpu0_L2C AVERAGE MISS LATENCY: 133.119 cycles
LLC TOTAL       ACCESS:    4395814  HIT:    1433327  MISS:    2962487  iACCESS:    1397396  iHIT:     470109  iMISS:     927287  dACCESS:    2589082  dHIT:     922518  dMISS:    1666564  itACCESS:      89821  itHIT:       7298  itMISS:      82523  dtACCESS:     319515  dtHIT:      33402  dtMISS:     286113
LLC LOAD         ACCESS:    1042393  HIT:     367644  MISS:     674749  iACCESS:     309950  iHIT:     113116  iMISS:     196834  dACCESS:     732443  dHIT:     254528  dMISS:     477915  itACCESS:          0  itHIT:          0  itMISS:          0  dtACCESS:          0  dtHIT:          0  dtMISS:          0
LLC RFO          ACCESS:     129673  HIT:      42779  MISS:      86894  iACCESS:          0  iHIT:          0  iMISS:          0  dACCESS:     129673  dHIT:      42779  dMISS:      86894  itACCESS:          0  itHIT:          0  itMISS:          0  dtACCESS:          0  dtHIT:          0  dtMISS:          0
LLC PREFETCH     ACCESS:    2603658  HIT:     781896  MISS:    1821762  iACCESS:    1087446  iHIT:     356993  iMISS:     730453  dACCESS:    1516212  dHIT:     424903  dMISS:    1091309  itACCESS:          0  itHIT:          0  itMISS:          0  dtACCESS:          0  dtHIT:          0  dtMISS:          0
LLC WRITE        ACCESS:     210754  HIT:     200308  MISS:      10446  iACCESS:          0  iHIT:          0  iMISS:          0  dACCESS:     210754  dHIT:     200308  dMISS:      10446  itACCESS:          0  itHIT:          0  itMISS:          0  dtACCESS:          0  dtHIT:          0  dtMISS:          0
LLC TRANSLATION  ACCESS:     409336  HIT:      40700  MISS:     368636  iACCESS:          0  iHIT:          0  iMISS:          0  dACCESS:          0  dHIT:          0  dMISS:          0  itACCESS:      89821  itHIT:       7298  itMISS:      82523  dtACCESS:     319515  dtHIT:      33402  dtMISS:     286113
LLC PREFETCH  REQUESTED:          0  ISSUED:          0  CROSSED:          0  USEFUL:          0  USELESS:          0
LLC AVERAGE iMISS LATENCY: 48.9463 cycles
LLC AVERAGE dMISS LATENCY: 98.1826 cycles
LLC AVERAGE itMISS LATENCY: 4.99621 cycles
LLC AVERAGE dtMISS LATENCY: 18.6065 cycles
LLC PAGE CROSSINGS (TLB HIT):         0 
LLC PAGE CROSSINGS (TLB MISS):         0 
LLC AVERAGE MISS LATENCY: 170.732 cycles

PageTableWalker TOTAL       ACCESS:     173705  
PageTableWalker AVERAGE LATENCY: 6.39408 cycles
PageTableWalker TOTAL LATENCY: 1110683 cycles

DRAM Statistics
Channel 0
 RQ ROW_BUFFER_HIT:     646879
  ROW_BUFFER_MISS:    2295809
 AVG DBUS CONGESTED CYCLE:    3.64526
 WQ ROW_BUFFER_HIT:      63320
  ROW_BUFFER_MISS:      53449  FULL:          0

