last_page:0x200000000000000
VMEM_RES_CAP:0x100000
PAGE_SIZE:4096
LOG2_PAGE_SIZE:12
LOG2_PAGE_TABLE_SIZE:9
page_table_levels:5
WARNING: physical memory size is smaller than virtual memory size
FDiP enabled with aggresivity 16

*** ChampSim Multicore Out-of-Order Simulator ***

Warmup Instructions: 50000000
Simulation Instructions: 100000000
Number of CPUs: 1
Small page size: 4096
Large page size: 2097152

CPU 0 Bimodal branch predictor
Basic BTB sets: 1024 ways: 8 indirect buffer size: 4096 RAS size: 64
Instruction page size distrubution: 0
Loading instruction page size distribution from /home/bsc/bsc018186/scratch/itp_asplos25_AE/dump/smt_srv12_ap_srv128_ap_1024i.pdst
Data page size distrubution: 0
Loading data page size distribution from /home/bsc/bsc018186/scratch/itp_asplos25_AE/dump/smt_srv12_ap_srv128_ap_1024i.pdst
cpu0_L2C IP-based stride prefetcher
cpu0_L1D next line prefetcher
CHiRPing...
cpu0_L1I next line prefetcher
Off-chip DRAM Size: 4 GiB Channels: 1 Width: 64-bit Data Rate: 3200 MT/s
Heartbeat CPU 0 instructions: 10000003 cycles: 2500986 heartbeat IPC: 3.99843 cumulative IPC: 3.99843 (Simulation time: 0 hr 0 min 46 sec) 
Heartbeat CPU 0 instructions: 20000002 cycles: 5081480 heartbeat IPC: 3.87523 cumulative IPC: 3.93587 (Simulation time: 0 hr 1 min 35 sec) 
Heartbeat CPU 0 instructions: 30000000 cycles: 7666601 heartbeat IPC: 3.8683 cumulative IPC: 3.91308 (Simulation time: 0 hr 2 min 26 sec) 
Heartbeat CPU 0 instructions: 40000001 cycles: 10209419 heartbeat IPC: 3.93265 cumulative IPC: 3.91796 (Simulation time: 0 hr 3 min 17 sec) 
Heartbeat CPU 0 instructions: 50000003 cycles: 12709803 heartbeat IPC: 3.99939 cumulative IPC: 3.93398 (Simulation time: 0 hr 4 min 6 sec) 
Warmup finished CPU 0 instructions: 50000003 cycles: 12709804 cumulative IPC: 3.93398 (Simulation time: 0 hr 4 min 6 sec) 

Warmup complete CPU 0 instructions: 50000003 cycles: 12709804 (Simulation time: 0 hr 4 min 6 sec) 

Heartbeat CPU 0 instructions: 60000000 cycles: 44166606 heartbeat IPC: 0.317897 cumulative IPC: 0.317897 (Simulation time: 0 hr 5 min 48 sec) 
Heartbeat CPU 0 instructions: 70000000 cycles: 75091982 heartbeat IPC: 0.32336 cumulative IPC: 0.320605 (Simulation time: 0 hr 7 min 32 sec) 
Heartbeat CPU 0 instructions: 80000001 cycles: 107274081 heartbeat IPC: 0.310732 cumulative IPC: 0.317245 (Simulation time: 0 hr 9 min 18 sec) 
Heartbeat CPU 0 instructions: 90000000 cycles: 133862237 heartbeat IPC: 0.376108 cumulative IPC: 0.330163 (Simulation time: 0 hr 10 min 53 sec) 
Heartbeat CPU 0 instructions: 100000001 cycles: 165282472 heartbeat IPC: 0.318267 cumulative IPC: 0.327713 (Simulation time: 0 hr 12 min 36 sec) 
Heartbeat CPU 0 instructions: 110000000 cycles: 196292189 heartbeat IPC: 0.32248 cumulative IPC: 0.326829 (Simulation time: 0 hr 14 min 20 sec) 
Heartbeat CPU 0 instructions: 120000000 cycles: 227147395 heartbeat IPC: 0.324095 cumulative IPC: 0.326436 (Simulation time: 0 hr 15 min 57 sec) 
Heartbeat CPU 0 instructions: 130000000 cycles: 258148287 heartbeat IPC: 0.322572 cumulative IPC: 0.325948 (Simulation time: 0 hr 17 min 27 sec) 
Heartbeat CPU 0 instructions: 140000000 cycles: 289051678 heartbeat IPC: 0.32359 cumulative IPC: 0.325684 (Simulation time: 0 hr 18 min 58 sec) 
Heartbeat CPU 0 instructions: 150000002 cycles: 320948387 heartbeat IPC: 0.313513 cumulative IPC: 0.324425 (Simulation time: 0 hr 20 min 30 sec) 
Simulation finished CPU 0 instructions: 100000004 cycles: 308238585 cumulative IPC: 0.324425 (Simulation time: 0 hr 20 min 30 sec) 

Simulation complete CPU 0 instructions: 100000004 cycles: 308238585 (Simulation time: 0 hr 20 min 30 sec) 


ChampSim completed all CPUs

Saving instructions large page distribution to /home/bsc/bsc018186/scratch/itp_asplos25_AE/dump/smt_srv12_ap_srv128_ap_1024i.pdst...
Saving data large page distribution to /home/bsc/bsc018186/scratch/itp_asplos25_AE/dump/smt_srv12_ap_srv128_ap_1024i.pdst...
=== Simulation ===
CPU 0 runs /gpfs/projects/bsc18/MN4/bsc18/romol/ChampSim/traces/qualcomm_srv/smt_srv12_ap_srv128_ap_1024i.champsimtrace.xz

Region of Interest Statistics

CPU 0 cumulative IPC: 0.324425 instructions: 100000004 cycles: 308238585
CPU 0 Branch Prediction Accuracy: 74.5693% MPKI: 46.1111 Average ROB Occupancy at Mispredict: 10.4524
Branch type MPKI
BRANCH_DIRECT_JUMP: 1.47274
BRANCH_INDIRECT: 23.5034
BRANCH_CONDITIONAL: 13.5821
BRANCH_DIRECT_CALL: 2.82673
BRANCH_INDIRECT_CALL: 1.14497
BRANCH_RETURN: 3.5812

Instructions large pages: 0
Instructions small pages: 11454
Large page distribution for instructions: 0%

Data large pages: 0
Data small pages: 9589
Large page distribution for data: 0%

cpu0_L1I TOTAL       ACCESS:   39308503  HIT:   30623437  MISS:    8685066  iACCESS:   39308503  iHIT:   30623437  iMISS:    8685066  dACCESS:          0  dHIT:          0  dMISS:          0  itACCESS:          0  itHIT:          0  itMISS:          0  dtACCESS:          0  dtHIT:          0  dtMISS:          0
cpu0_L1I LOAD         ACCESS:   11687901  HIT:    9334087  MISS:    2353814  iACCESS:   11687901  iHIT:    9334087  iMISS:    2353814  dACCESS:          0  dHIT:          0  dMISS:          0  itACCESS:          0  itHIT:          0  itMISS:          0  dtACCESS:          0  dtHIT:          0  dtMISS:          0
cpu0_L1I RFO          ACCESS:          0  HIT:          0  MISS:          0  iACCESS:          0  iHIT:          0  iMISS:          0  dACCESS:          0  dHIT:          0  dMISS:          0  itACCESS:          0  itHIT:          0  itMISS:          0  dtACCESS:          0  dtHIT:          0  dtMISS:          0
cpu0_L1I PREFETCH     ACCESS:   27620602  HIT:   21289350  MISS:    6331252  iACCESS:   27620602  iHIT:   21289350  iMISS:    6331252  dACCESS:          0  dHIT:          0  dMISS:          0  itACCESS:          0  itHIT:          0  itMISS:          0  dtACCESS:          0  dtHIT:          0  dtMISS:          0
cpu0_L1I WRITE        ACCESS:          0  HIT:          0  MISS:          0  iACCESS:          0  iHIT:          0  iMISS:          0  dACCESS:          0  dHIT:          0  dMISS:          0  itACCESS:          0  itHIT:          0  itMISS:          0  dtACCESS:          0  dtHIT:          0  dtMISS:          0
cpu0_L1I TRANSLATION  ACCESS:          0  HIT:          0  MISS:          0  iACCESS:          0  iHIT:          0  iMISS:          0  dACCESS:          0  dHIT:          0  dMISS:          0  itACCESS:          0  itHIT:          0  itMISS:          0  dtACCESS:          0  dtHIT:          0  dtMISS:          0
cpu0_L1I PREFETCH  REQUESTED:   30383517  ISSUED:   30383499  CROSSED:          0  USEFUL:    2219349  USELESS:     776240
cpu0_L1I AVERAGE iMISS LATENCY: 25.2321 cycles
cpu0_L1I AVERAGE dMISS LATENCY: 0 cycles
cpu0_L1I AVERAGE itMISS LATENCY: 0 cycles
cpu0_L1I AVERAGE dtMISS LATENCY: 0 cycles
cpu0_L1I PAGE CROSSINGS (TLB HIT):         0 
cpu0_L1I PAGE CROSSINGS (TLB MISS):         0 
cpu0_L1I AVERAGE MISS LATENCY: 25.2321 cycles
cpu0_ITLB TOTAL       ACCESS:   33378006  HIT:   31133036  MISS:    2244970  iACCESS:   33378006  iHIT:   31133036  iMISS:    2244970  dACCESS:          0  dHIT:          0  dMISS:          0  itACCESS:          0  itHIT:          0  itMISS:          0  dtACCESS:          0  dtHIT:          0  dtMISS:          0
cpu0_ITLB LOAD         ACCESS:   33378006  HIT:   31133036  MISS:    2244970  iACCESS:   33378006  iHIT:   31133036  iMISS:    2244970  dACCESS:          0  dHIT:          0  dMISS:          0  itACCESS:          0  itHIT:          0  itMISS:          0  dtACCESS:          0  dtHIT:          0  dtMISS:          0
cpu0_ITLB RFO          ACCESS:          0  HIT:          0  MISS:          0  iACCESS:          0  iHIT:          0  iMISS:          0  dACCESS:          0  dHIT:          0  dMISS:          0  itACCESS:          0  itHIT:          0  itMISS:          0  dtACCESS:          0  dtHIT:          0  dtMISS:          0
cpu0_ITLB PREFETCH     ACCESS:          0  HIT:          0  MISS:          0  iACCESS:          0  iHIT:          0  iMISS:          0  dACCESS:          0  dHIT:          0  dMISS:          0  itACCESS:          0  itHIT:          0  itMISS:          0  dtACCESS:          0  dtHIT:          0  dtMISS:          0
cpu0_ITLB WRITE        ACCESS:          0  HIT:          0  MISS:          0  iACCESS:          0  iHIT:          0  iMISS:          0  dACCESS:          0  dHIT:          0  dMISS:          0  itACCESS:          0  itHIT:          0  itMISS:          0  dtACCESS:          0  dtHIT:          0  dtMISS:          0
cpu0_ITLB TRANSLATION  ACCESS:          0  HIT:          0  MISS:          0  iACCESS:          0  iHIT:          0  iMISS:          0  dACCESS:          0  dHIT:          0  dMISS:          0  itACCESS:          0  itHIT:          0  itMISS:          0  dtACCESS:          0  dtHIT:          0  dtMISS:          0
cpu0_ITLB PREFETCH  REQUESTED:          0  ISSUED:          0  CROSSED:          0  USEFUL:     396599  USELESS:      80625
cpu0_ITLB AVERAGE iMISS LATENCY: 10.9664 cycles
cpu0_ITLB AVERAGE dMISS LATENCY: 0 cycles
cpu0_ITLB AVERAGE itMISS LATENCY: 0 cycles
cpu0_ITLB AVERAGE dtMISS LATENCY: 0 cycles
cpu0_ITLB PAGE CROSSINGS (TLB HIT):         0 
cpu0_ITLB PAGE CROSSINGS (TLB MISS):         0 
cpu0_ITLB AVERAGE MISS LATENCY: 10.9664 cycles
cpu0_DTLB TOTAL       ACCESS:   28981064  HIT:   25514526  MISS:    3466538  iACCESS:          0  iHIT:          0  iMISS:          0  dACCESS:   28981064  dHIT:   25514526  dMISS:    3466538  itACCESS:          0  itHIT:          0  itMISS:          0  dtACCESS:          0  dtHIT:          0  dtMISS:          0
cpu0_DTLB LOAD         ACCESS:   28981064  HIT:   25514526  MISS:    3466538  iACCESS:          0  iHIT:          0  iMISS:          0  dACCESS:   28981064  dHIT:   25514526  dMISS:    3466538  itACCESS:          0  itHIT:          0  itMISS:          0  dtACCESS:          0  dtHIT:          0  dtMISS:          0
cpu0_DTLB RFO          ACCESS:          0  HIT:          0  MISS:          0  iACCESS:          0  iHIT:          0  iMISS:          0  dACCESS:          0  dHIT:          0  dMISS:          0  itACCESS:          0  itHIT:          0  itMISS:          0  dtACCESS:          0  dtHIT:          0  dtMISS:          0
cpu0_DTLB PREFETCH     ACCESS:          0  HIT:          0  MISS:          0  iACCESS:          0  iHIT:          0  iMISS:          0  dACCESS:          0  dHIT:          0  dMISS:          0  itACCESS:          0  itHIT:          0  itMISS:          0  dtACCESS:          0  dtHIT:          0  dtMISS:          0
cpu0_DTLB WRITE        ACCESS:          0  HIT:          0  MISS:          0  iACCESS:          0  iHIT:          0  iMISS:          0  dACCESS:          0  dHIT:          0  dMISS:          0  itACCESS:          0  itHIT:          0  itMISS:          0  dtACCESS:          0  dtHIT:          0  dtMISS:          0
cpu0_DTLB TRANSLATION  ACCESS:          0  HIT:          0  MISS:          0  iACCESS:          0  iHIT:          0  iMISS:          0  dACCESS:          0  dHIT:          0  dMISS:          0  itACCESS:          0  itHIT:          0  itMISS:          0  dtACCESS:          0  dtHIT:          0  dtMISS:          0
cpu0_DTLB PREFETCH  REQUESTED:          0  ISSUED:          0  CROSSED:          0  USEFUL:          0  USELESS:          0
cpu0_DTLB AVERAGE iMISS LATENCY: 0 cycles
cpu0_DTLB AVERAGE dMISS LATENCY: 26.04 cycles
cpu0_DTLB AVERAGE itMISS LATENCY: 0 cycles
cpu0_DTLB AVERAGE dtMISS LATENCY: 0 cycles
cpu0_DTLB PAGE CROSSINGS (TLB HIT):         0 
cpu0_DTLB PAGE CROSSINGS (TLB MISS):         0 
cpu0_DTLB AVERAGE MISS LATENCY: 26.04 cycles
cpu0_STLB TOTAL       ACCESS:    2527653  HIT:    2147148  MISS:     380505  iACCESS:     477230  iHIT:     356174  iMISS:     121056  dACCESS:    2050423  dHIT:    1790974  dMISS:     259449  itACCESS:          0  itHIT:          0  itMISS:          0  dtACCESS:          0  dtHIT:          0  dtMISS:          0
cpu0_STLB LOAD         ACCESS:    2527653  HIT:    2147148  MISS:     380505  iACCESS:     477230  iHIT:     356174  iMISS:     121056  dACCESS:    2050423  dHIT:    1790974  dMISS:     259449  itACCESS:          0  itHIT:          0  itMISS:          0  dtACCESS:          0  dtHIT:          0  dtMISS:          0
cpu0_STLB RFO          ACCESS:          0  HIT:          0  MISS:          0  iACCESS:          0  iHIT:          0  iMISS:          0  dACCESS:          0  dHIT:          0  dMISS:          0  itACCESS:          0  itHIT:          0  itMISS:          0  dtACCESS:          0  dtHIT:          0  dtMISS:          0
cpu0_STLB PREFETCH     ACCESS:          0  HIT:          0  MISS:          0  iACCESS:          0  iHIT:          0  iMISS:          0  dACCESS:          0  dHIT:          0  dMISS:          0  itACCESS:          0  itHIT:          0  itMISS:          0  dtACCESS:          0  dtHIT:          0  dtMISS:          0
cpu0_STLB WRITE        ACCESS:          0  HIT:          0  MISS:          0  iACCESS:          0  iHIT:          0  iMISS:          0  dACCESS:          0  dHIT:          0  dMISS:          0  itACCESS:          0  itHIT:          0  itMISS:          0  dtACCESS:          0  dtHIT:          0  dtMISS:          0
cpu0_STLB TRANSLATION  ACCESS:          0  HIT:          0  MISS:          0  iACCESS:          0  iHIT:          0  iMISS:          0  dACCESS:          0  dHIT:          0  dMISS:          0  itACCESS:          0  itHIT:          0  itMISS:          0  dtACCESS:          0  dtHIT:          0  dtMISS:          0
cpu0_STLB PREFETCH  REQUESTED:          0  ISSUED:          0  CROSSED:          0  USEFUL:          0  USELESS:          0
cpu0_STLB AVERAGE iMISS LATENCY: 54.6513 cycles
cpu0_STLB AVERAGE dMISS LATENCY: 193.849 cycles
cpu0_STLB AVERAGE itMISS LATENCY: 0 cycles
cpu0_STLB AVERAGE dtMISS LATENCY: 0 cycles
cpu0_STLB PAGE CROSSINGS (TLB HIT):         0 
cpu0_STLB PAGE CROSSINGS (TLB MISS):         0 
cpu0_STLB AVERAGE MISS LATENCY: 248.501 cycles
cpu0_L1D TOTAL       ACCESS:   45001664  HIT:   39376880  MISS:    5624784  iACCESS:          0  iHIT:          0  iMISS:          0  dACCESS:   44441153  dHIT:   39343568  dMISS:    5097585  itACCESS:     136782  itHIT:      15177  itMISS:     121605  dtACCESS:     423729  dtHIT:      18135  dtMISS:     405594
cpu0_L1D LOAD         ACCESS:   20305001  HIT:   18034341  MISS:    2270660  iACCESS:          0  iHIT:          0  iMISS:          0  dACCESS:   20305001  dHIT:   18034341  dMISS:    2270660  itACCESS:          0  itHIT:          0  itMISS:          0  dtACCESS:          0  dtHIT:          0  dtMISS:          0
cpu0_L1D RFO          ACCESS:          0  HIT:          0  MISS:          0  iACCESS:          0  iHIT:          0  iMISS:          0  dACCESS:          0  dHIT:          0  dMISS:          0  itACCESS:          0  itHIT:          0  itMISS:          0  dtACCESS:          0  dtHIT:          0  dtMISS:          0
cpu0_L1D PREFETCH     ACCESS:   13948877  HIT:   11702394  MISS:    2246483  iACCESS:          0  iHIT:          0  iMISS:          0  dACCESS:   13948877  dHIT:   11702394  dMISS:    2246483  itACCESS:          0  itHIT:          0  itMISS:          0  dtACCESS:          0  dtHIT:          0  dtMISS:          0
cpu0_L1D WRITE        ACCESS:   10187275  HIT:    9606833  MISS:     580442  iACCESS:          0  iHIT:          0  iMISS:          0  dACCESS:   10187275  dHIT:    9606833  dMISS:     580442  itACCESS:          0  itHIT:          0  itMISS:          0  dtACCESS:          0  dtHIT:          0  dtMISS:          0
cpu0_L1D TRANSLATION  ACCESS:     560511  HIT:      33312  MISS:     527199  iACCESS:          0  iHIT:          0  iMISS:          0  dACCESS:          0  dHIT:          0  dMISS:          0  itACCESS:     136782  itHIT:      15177  itMISS:     121605  dtACCESS:     423729  dtHIT:      18135  dtMISS:     405594
cpu0_L1D PREFETCH  REQUESTED:   20305001  ISSUED:   18550422  CROSSED:          0  USEFUL:     361595  USELESS:     929962
cpu0_L1D AVERAGE iMISS LATENCY: 0 cycles
cpu0_L1D AVERAGE dMISS LATENCY: 50.9746 cycles
cpu0_L1D AVERAGE itMISS LATENCY: 3.47808 cycles
cpu0_L1D AVERAGE dtMISS LATENCY: 12.2766 cycles
cpu0_L1D PAGE CROSSINGS (TLB HIT):         0 
cpu0_L1D PAGE CROSSINGS (TLB MISS):         0 
cpu0_L1D AVERAGE MISS LATENCY: 66.7292 cycles
cpu0_L2C TOTAL       ACCESS:    8652840  HIT:    4144294  MISS:    4508546  iACCESS:    3804581  iHIT:    2272332  iMISS:    1532249  dACCESS:    4357671  dHIT:    1813240  dMISS:    2544431  itACCESS:     119731  itHIT:      21005  itMISS:      98726  dtACCESS:     370857  dtHIT:      37717  dtMISS:     333140
cpu0_L2C LOAD         ACCESS:    2048429  HIT:     993821  MISS:    1054608  iACCESS:     846271  iHIT:     530071  iMISS:     316200  dACCESS:    1202158  dHIT:     463750  dMISS:     738408  itACCESS:          0  itHIT:          0  itMISS:          0  dtACCESS:          0  dtHIT:          0  dtMISS:          0
cpu0_L2C RFO          ACCESS:     215393  HIT:      80857  MISS:     134536  iACCESS:          0  iHIT:          0  iMISS:          0  dACCESS:     215393  dHIT:      80857  dMISS:     134536  itACCESS:          0  itHIT:          0  itMISS:          0  dtACCESS:          0  dtHIT:          0  dtMISS:          0
cpu0_L2C PREFETCH     ACCESS:    5558139  HIT:    2674512  MISS:    2883627  iACCESS:    2958310  iHIT:    1742261  iMISS:    1216049  dACCESS:    2599829  dHIT:     932251  dMISS:    1667578  itACCESS:          0  itHIT:          0  itMISS:          0  dtACCESS:          0  dtHIT:          0  dtMISS:          0
cpu0_L2C WRITE        ACCESS:     340291  HIT:     336382  MISS:       3909  iACCESS:          0  iHIT:          0  iMISS:          0  dACCESS:     340291  dHIT:     336382  dMISS:       3909  itACCESS:          0  itHIT:          0  itMISS:          0  dtACCESS:          0  dtHIT:          0  dtMISS:          0
cpu0_L2C TRANSLATION  ACCESS:     490588  HIT:      58722  MISS:     431866  iACCESS:          0  iHIT:          0  iMISS:          0  dACCESS:          0  dHIT:          0  dMISS:          0  itACCESS:     119731  itHIT:      21005  itMISS:      98726  dtACCESS:     370857  dtHIT:      37717  dtMISS:     333140
cpu0_L2C PREFETCH  REQUESTED:    1543812  ISSUED:    1543809  CROSSED:          0  USEFUL:     367136  USELESS:     334144
cpu0_L2C AVERAGE iMISS LATENCY: 41.5793 cycles
cpu0_L2C AVERAGE dMISS LATENCY: 79.7874 cycles
cpu0_L2C AVERAGE itMISS LATENCY: 4.07754 cycles
cpu0_L2C AVERAGE dtMISS LATENCY: 14.4974 cycles
cpu0_L2C PAGE CROSSINGS (TLB HIT):         0 
cpu0_L2C PAGE CROSSINGS (TLB MISS):         0 
cpu0_L2C AVERAGE MISS LATENCY: 139.942 cycles
LLC TOTAL       ACCESS:    4492901  HIT:    1293214  MISS:    3199687  iACCESS:    1440238  iHIT:     427414  iMISS:    1012824  dACCESS:    2620797  dHIT:     827595  dMISS:    1793202  itACCESS:      98726  itHIT:       6758  itMISS:      91968  dtACCESS:     333140  dtHIT:      31447  dtMISS:     301693
LLC LOAD         ACCESS:    1048200  HIT:     317409  MISS:     730791  iACCESS:     315029  iHIT:      99558  iMISS:     215471  dACCESS:     733171  dHIT:     217851  dMISS:     515320  itACCESS:          0  itHIT:          0  itMISS:          0  dtACCESS:          0  dtHIT:          0  dtMISS:          0
LLC RFO          ACCESS:     134521  HIT:      39451  MISS:      95070  iACCESS:          0  iHIT:          0  iMISS:          0  dACCESS:     134521  dHIT:      39451  dMISS:      95070  itACCESS:          0  itHIT:          0  itMISS:          0  dtACCESS:          0  dtHIT:          0  dtMISS:          0
LLC PREFETCH     ACCESS:    2668007  HIT:     698244  MISS:    1969763  iACCESS:    1125209  iHIT:     327856  iMISS:     797353  dACCESS:    1542798  dHIT:     370388  dMISS:    1172410  itACCESS:          0  itHIT:          0  itMISS:          0  dtACCESS:          0  dtHIT:          0  dtMISS:          0
LLC WRITE        ACCESS:     210307  HIT:     199905  MISS:      10402  iACCESS:          0  iHIT:          0  iMISS:          0  dACCESS:     210307  dHIT:     199905  dMISS:      10402  itACCESS:          0  itHIT:          0  itMISS:          0  dtACCESS:          0  dtHIT:          0  dtMISS:          0
LLC TRANSLATION  ACCESS:     431866  HIT:      38205  MISS:     393661  iACCESS:          0  iHIT:          0  iMISS:          0  dACCESS:          0  dHIT:          0  dMISS:          0  itACCESS:      98726  itHIT:       6758  itMISS:      91968  dtACCESS:     333140  dtHIT:      31447  dtMISS:     301693
LLC PREFETCH  REQUESTED:          0  ISSUED:          0  CROSSED:          0  USEFUL:          0  USELESS:          0
LLC AVERAGE iMISS LATENCY: 49.7176 cycles
LLC AVERAGE dMISS LATENCY: 98.3559 cycles
LLC AVERAGE itMISS LATENCY: 5.1334 cycles
LLC AVERAGE dtMISS LATENCY: 18.3687 cycles
LLC PAGE CROSSINGS (TLB HIT):         0 
LLC PAGE CROSSINGS (TLB MISS):         0 
LLC AVERAGE MISS LATENCY: 171.576 cycles

PageTableWalker TOTAL       ACCESS:     139662  
PageTableWalker AVERAGE LATENCY: 6.48704 cycles
PageTableWalker TOTAL LATENCY: 905992 cycles

DRAM Statistics
Channel 0
 RQ ROW_BUFFER_HIT:     692558
  ROW_BUFFER_MISS:    2479243
 AVG DBUS CONGESTED CYCLE:    3.64898
 WQ ROW_BUFFER_HIT:      66756
  ROW_BUFFER_MISS:      55140  FULL:          0

