last_page:0x200000000000000
VMEM_RES_CAP:0x100000
PAGE_SIZE:4096
LOG2_PAGE_SIZE:12
LOG2_PAGE_TABLE_SIZE:9
page_table_levels:5
WARNING: physical memory size is smaller than virtual memory size
FDiP enabled with aggresivity 16

*** ChampSim Multicore Out-of-Order Simulator ***

Warmup Instructions: 50000000
Simulation Instructions: 100000000
Number of CPUs: 1
Small page size: 4096
Large page size: 2097152

CPU 0 Bimodal branch predictor
Basic BTB sets: 1024 ways: 8 indirect buffer size: 4096 RAS size: 64
Instruction page size distrubution: 0
Loading instruction page size distribution from /home/bsc/bsc018186/scratch/itp_asplos25_AE/dump/smt_srv12_ap_srv73_ap_1024i.pdst
Data page size distrubution: 0
Loading data page size distribution from /home/bsc/bsc018186/scratch/itp_asplos25_AE/dump/smt_srv12_ap_srv73_ap_1024i.pdst
cpu0_L2C IP-based stride prefetcher
cpu0_L2C is using PTP replacement policy:
	TLB_STRESS_THRESHOLD:0
	PTE_EVICTION_RATIO:0
cpu0_L1D next line prefetcher
cpu0_STLB using iTP with max lru@8
cpu0_STLB using iTP with instr@0 and data@2
Init sat counter with 3 bits (max:50).
cpu0_L1I next line prefetcher
Off-chip DRAM Size: 4 GiB Channels: 1 Width: 64-bit Data Rate: 3200 MT/s
Heartbeat CPU 0 instructions: 10000003 cycles: 2500399 heartbeat IPC: 3.99937 cumulative IPC: 3.99937 (Simulation time: 0 hr 0 min 37 sec) 
Heartbeat CPU 0 instructions: 20000001 cycles: 5000640 heartbeat IPC: 3.99962 cumulative IPC: 3.99949 (Simulation time: 0 hr 1 min 15 sec) 
Heartbeat CPU 0 instructions: 30000001 cycles: 7501143 heartbeat IPC: 3.9992 cumulative IPC: 3.9994 (Simulation time: 0 hr 1 min 54 sec) 
Heartbeat CPU 0 instructions: 40000002 cycles: 10001266 heartbeat IPC: 3.99981 cumulative IPC: 3.9995 (Simulation time: 0 hr 2 min 33 sec) 
Heartbeat CPU 0 instructions: 50000001 cycles: 12502256 heartbeat IPC: 3.99842 cumulative IPC: 3.99928 (Simulation time: 0 hr 3 min 12 sec) 
Warmup finished CPU 0 instructions: 50000001 cycles: 12502257 cumulative IPC: 3.99928 (Simulation time: 0 hr 3 min 12 sec) 

Warmup complete CPU 0 instructions: 50000001 cycles: 12502257 (Simulation time: 0 hr 3 min 12 sec) 

Heartbeat CPU 0 instructions: 60000001 cycles: 37878012 heartbeat IPC: 0.394077 cumulative IPC: 0.394077 (Simulation time: 0 hr 4 min 26 sec) 
Heartbeat CPU 0 instructions: 70000003 cycles: 60907224 heartbeat IPC: 0.434232 cumulative IPC: 0.413181 (Simulation time: 0 hr 5 min 37 sec) 
Heartbeat CPU 0 instructions: 80000001 cycles: 85239516 heartbeat IPC: 0.410977 cumulative IPC: 0.412444 (Simulation time: 0 hr 6 min 49 sec) 
Heartbeat CPU 0 instructions: 90000000 cycles: 113289248 heartbeat IPC: 0.35651 cumulative IPC: 0.396877 (Simulation time: 0 hr 8 min 5 sec) 
Heartbeat CPU 0 instructions: 100000000 cycles: 144831372 heartbeat IPC: 0.317037 cumulative IPC: 0.377846 (Simulation time: 0 hr 9 min 29 sec) 
Heartbeat CPU 0 instructions: 110000002 cycles: 176818622 heartbeat IPC: 0.312625 cumulative IPC: 0.36515 (Simulation time: 0 hr 10 min 53 sec) 
Heartbeat CPU 0 instructions: 120000001 cycles: 206499477 heartbeat IPC: 0.336918 cumulative IPC: 0.36083 (Simulation time: 0 hr 12 min 14 sec) 
Heartbeat CPU 0 instructions: 130000004 cycles: 224227513 heartbeat IPC: 0.564079 cumulative IPC: 0.377849 (Simulation time: 0 hr 13 min 22 sec) 
Heartbeat CPU 0 instructions: 140000000 cycles: 245511845 heartbeat IPC: 0.469829 cumulative IPC: 0.386251 (Simulation time: 0 hr 14 min 33 sec) 
Heartbeat CPU 0 instructions: 150000002 cycles: 276405922 heartbeat IPC: 0.323687 cumulative IPC: 0.378927 (Simulation time: 0 hr 15 min 56 sec) 
Simulation finished CPU 0 instructions: 100000001 cycles: 263903666 cumulative IPC: 0.378927 (Simulation time: 0 hr 15 min 56 sec) 

Simulation complete CPU 0 instructions: 100000001 cycles: 263903666 (Simulation time: 0 hr 15 min 56 sec) 


ChampSim completed all CPUs

Saving instructions large page distribution to /home/bsc/bsc018186/scratch/itp_asplos25_AE/dump/smt_srv12_ap_srv73_ap_1024i.pdst...
Saving data large page distribution to /home/bsc/bsc018186/scratch/itp_asplos25_AE/dump/smt_srv12_ap_srv73_ap_1024i.pdst...
=== Simulation ===
CPU 0 runs /gpfs/projects/bsc18/MN4/bsc18/romol/ChampSim/traces/qualcomm_srv/smt_srv12_ap_srv73_ap_1024i.champsimtrace.xz

Region of Interest Statistics

CPU 0 cumulative IPC: 0.378927 instructions: 100000001 cycles: 263903666
CPU 0 Branch Prediction Accuracy: 77.5128% MPKI: 43.838 Average ROB Occupancy at Mispredict: 10.7424
Branch type MPKI
BRANCH_DIRECT_JUMP: 1.16918
BRANCH_INDIRECT: 23.1063
BRANCH_CONDITIONAL: 12.637
BRANCH_DIRECT_CALL: 2.15754
BRANCH_INDIRECT_CALL: 1.79687
BRANCH_RETURN: 2.97121

Instructions large pages: 0
Instructions small pages: 12334
Large page distribution for instructions: 0%

Data large pages: 0
Data small pages: 10484
Large page distribution for data: 0%

cpu0_L1I TOTAL       ACCESS:   38226622  HIT:   31161780  MISS:    7064842  iACCESS:   38226622  iHIT:   31161780  iMISS:    7064842  dACCESS:          0  dHIT:          0  dMISS:          0  itACCESS:          0  itHIT:          0  itMISS:          0  dtACCESS:          0  dtHIT:          0  dtMISS:          0
cpu0_L1I LOAD         ACCESS:   10539630  HIT:    8606359  MISS:    1933271  iACCESS:   10539630  iHIT:    8606359  iMISS:    1933271  dACCESS:          0  dHIT:          0  dMISS:          0  itACCESS:          0  itHIT:          0  itMISS:          0  dtACCESS:          0  dtHIT:          0  dtMISS:          0
cpu0_L1I RFO          ACCESS:          0  HIT:          0  MISS:          0  iACCESS:          0  iHIT:          0  iMISS:          0  dACCESS:          0  dHIT:          0  dMISS:          0  itACCESS:          0  itHIT:          0  itMISS:          0  dtACCESS:          0  dtHIT:          0  dtMISS:          0
cpu0_L1I PREFETCH     ACCESS:   27686992  HIT:   22555421  MISS:    5131571  iACCESS:   27686992  iHIT:   22555421  iMISS:    5131571  dACCESS:          0  dHIT:          0  dMISS:          0  itACCESS:          0  itHIT:          0  itMISS:          0  dtACCESS:          0  dtHIT:          0  dtMISS:          0
cpu0_L1I WRITE        ACCESS:          0  HIT:          0  MISS:          0  iACCESS:          0  iHIT:          0  iMISS:          0  dACCESS:          0  dHIT:          0  dMISS:          0  itACCESS:          0  itHIT:          0  itMISS:          0  dtACCESS:          0  dtHIT:          0  dtMISS:          0
cpu0_L1I TRANSLATION  ACCESS:          0  HIT:          0  MISS:          0  iACCESS:          0  iHIT:          0  iMISS:          0  dACCESS:          0  dHIT:          0  dMISS:          0  itACCESS:          0  itHIT:          0  itMISS:          0  dtACCESS:          0  dtHIT:          0  dtMISS:          0
cpu0_L1I PREFETCH  REQUESTED:   30085900  ISSUED:   30085900  CROSSED:          0  USEFUL:    1796554  USELESS:     651324
cpu0_L1I AVERAGE iMISS LATENCY: 25.0095 cycles
cpu0_L1I AVERAGE dMISS LATENCY: 0 cycles
cpu0_L1I AVERAGE itMISS LATENCY: 0 cycles
cpu0_L1I AVERAGE dtMISS LATENCY: 0 cycles
cpu0_L1I PAGE CROSSINGS (TLB HIT):         0 
cpu0_L1I PAGE CROSSINGS (TLB MISS):         0 
cpu0_L1I AVERAGE MISS LATENCY: 25.0095 cycles
cpu0_ITLB TOTAL       ACCESS:   32421386  HIT:   30576200  MISS:    1845186  iACCESS:   32421386  iHIT:   30576200  iMISS:    1845186  dACCESS:          0  dHIT:          0  dMISS:          0  itACCESS:          0  itHIT:          0  itMISS:          0  dtACCESS:          0  dtHIT:          0  dtMISS:          0
cpu0_ITLB LOAD         ACCESS:   32421386  HIT:   30576200  MISS:    1845186  iACCESS:   32421386  iHIT:   30576200  iMISS:    1845186  dACCESS:          0  dHIT:          0  dMISS:          0  itACCESS:          0  itHIT:          0  itMISS:          0  dtACCESS:          0  dtHIT:          0  dtMISS:          0
cpu0_ITLB RFO          ACCESS:          0  HIT:          0  MISS:          0  iACCESS:          0  iHIT:          0  iMISS:          0  dACCESS:          0  dHIT:          0  dMISS:          0  itACCESS:          0  itHIT:          0  itMISS:          0  dtACCESS:          0  dtHIT:          0  dtMISS:          0
cpu0_ITLB PREFETCH     ACCESS:          0  HIT:          0  MISS:          0  iACCESS:          0  iHIT:          0  iMISS:          0  dACCESS:          0  dHIT:          0  dMISS:          0  itACCESS:          0  itHIT:          0  itMISS:          0  dtACCESS:          0  dtHIT:          0  dtMISS:          0
cpu0_ITLB WRITE        ACCESS:          0  HIT:          0  MISS:          0  iACCESS:          0  iHIT:          0  iMISS:          0  dACCESS:          0  dHIT:          0  dMISS:          0  itACCESS:          0  itHIT:          0  itMISS:          0  dtACCESS:          0  dtHIT:          0  dtMISS:          0
cpu0_ITLB TRANSLATION  ACCESS:          0  HIT:          0  MISS:          0  iACCESS:          0  iHIT:          0  iMISS:          0  dACCESS:          0  dHIT:          0  dMISS:          0  itACCESS:          0  itHIT:          0  itMISS:          0  dtACCESS:          0  dtHIT:          0  dtMISS:          0
cpu0_ITLB PREFETCH  REQUESTED:          0  ISSUED:          0  CROSSED:          0  USEFUL:     329103  USELESS:      68178
cpu0_ITLB AVERAGE iMISS LATENCY: 7.17149 cycles
cpu0_ITLB AVERAGE dMISS LATENCY: 0 cycles
cpu0_ITLB AVERAGE itMISS LATENCY: 0 cycles
cpu0_ITLB AVERAGE dtMISS LATENCY: 0 cycles
cpu0_ITLB PAGE CROSSINGS (TLB HIT):         0 
cpu0_ITLB PAGE CROSSINGS (TLB MISS):         0 
cpu0_ITLB AVERAGE MISS LATENCY: 7.17149 cycles
cpu0_DTLB TOTAL       ACCESS:   31375948  HIT:   26057338  MISS:    5318610  iACCESS:          0  iHIT:          0  iMISS:          0  dACCESS:   31375948  dHIT:   26057338  dMISS:    5318610  itACCESS:          0  itHIT:          0  itMISS:          0  dtACCESS:          0  dtHIT:          0  dtMISS:          0
cpu0_DTLB LOAD         ACCESS:   31375948  HIT:   26057338  MISS:    5318610  iACCESS:          0  iHIT:          0  iMISS:          0  dACCESS:   31375948  dHIT:   26057338  dMISS:    5318610  itACCESS:          0  itHIT:          0  itMISS:          0  dtACCESS:          0  dtHIT:          0  dtMISS:          0
cpu0_DTLB RFO          ACCESS:          0  HIT:          0  MISS:          0  iACCESS:          0  iHIT:          0  iMISS:          0  dACCESS:          0  dHIT:          0  dMISS:          0  itACCESS:          0  itHIT:          0  itMISS:          0  dtACCESS:          0  dtHIT:          0  dtMISS:          0
cpu0_DTLB PREFETCH     ACCESS:          0  HIT:          0  MISS:          0  iACCESS:          0  iHIT:          0  iMISS:          0  dACCESS:          0  dHIT:          0  dMISS:          0  itACCESS:          0  itHIT:          0  itMISS:          0  dtACCESS:          0  dtHIT:          0  dtMISS:          0
cpu0_DTLB WRITE        ACCESS:          0  HIT:          0  MISS:          0  iACCESS:          0  iHIT:          0  iMISS:          0  dACCESS:          0  dHIT:          0  dMISS:          0  itACCESS:          0  itHIT:          0  itMISS:          0  dtACCESS:          0  dtHIT:          0  dtMISS:          0
cpu0_DTLB TRANSLATION  ACCESS:          0  HIT:          0  MISS:          0  iACCESS:          0  iHIT:          0  iMISS:          0  dACCESS:          0  dHIT:          0  dMISS:          0  itACCESS:          0  itHIT:          0  itMISS:          0  dtACCESS:          0  dtHIT:          0  dtMISS:          0
cpu0_DTLB PREFETCH  REQUESTED:          0  ISSUED:          0  CROSSED:          0  USEFUL:          0  USELESS:          0
cpu0_DTLB AVERAGE iMISS LATENCY: 0 cycles
cpu0_DTLB AVERAGE dMISS LATENCY: 15.7586 cycles
cpu0_DTLB AVERAGE itMISS LATENCY: 0 cycles
cpu0_DTLB AVERAGE dtMISS LATENCY: 0 cycles
cpu0_DTLB PAGE CROSSINGS (TLB HIT):         0 
cpu0_DTLB PAGE CROSSINGS (TLB MISS):         0 
cpu0_DTLB AVERAGE MISS LATENCY: 15.7586 cycles
cpu0_STLB TOTAL       ACCESS:    3221215  HIT:    2938916  MISS:     282299  iACCESS:     397287  iHIT:     344157  iMISS:      53130  dACCESS:    2823928  dHIT:    2594759  dMISS:     229169  itACCESS:          0  itHIT:          0  itMISS:          0  dtACCESS:          0  dtHIT:          0  dtMISS:          0
cpu0_STLB LOAD         ACCESS:    3221215  HIT:    2938916  MISS:     282299  iACCESS:     397287  iHIT:     344157  iMISS:      53130  dACCESS:    2823928  dHIT:    2594759  dMISS:     229169  itACCESS:          0  itHIT:          0  itMISS:          0  dtACCESS:          0  dtHIT:          0  dtMISS:          0
cpu0_STLB RFO          ACCESS:          0  HIT:          0  MISS:          0  iACCESS:          0  iHIT:          0  iMISS:          0  dACCESS:          0  dHIT:          0  dMISS:          0  itACCESS:          0  itHIT:          0  itMISS:          0  dtACCESS:          0  dtHIT:          0  dtMISS:          0
cpu0_STLB PREFETCH     ACCESS:          0  HIT:          0  MISS:          0  iACCESS:          0  iHIT:          0  iMISS:          0  dACCESS:          0  dHIT:          0  dMISS:          0  itACCESS:          0  itHIT:          0  itMISS:          0  dtACCESS:          0  dtHIT:          0  dtMISS:          0
cpu0_STLB WRITE        ACCESS:          0  HIT:          0  MISS:          0  iACCESS:          0  iHIT:          0  iMISS:          0  dACCESS:          0  dHIT:          0  dMISS:          0  itACCESS:          0  itHIT:          0  itMISS:          0  dtACCESS:          0  dtHIT:          0  dtMISS:          0
cpu0_STLB TRANSLATION  ACCESS:          0  HIT:          0  MISS:          0  iACCESS:          0  iHIT:          0  iMISS:          0  dACCESS:          0  dHIT:          0  dMISS:          0  itACCESS:          0  itHIT:          0  itMISS:          0  dtACCESS:          0  dtHIT:          0  dtMISS:          0
cpu0_STLB PREFETCH  REQUESTED:          0  ISSUED:          0  CROSSED:          0  USEFUL:          0  USELESS:          0
cpu0_STLB AVERAGE iMISS LATENCY: 35.7876 cycles
cpu0_STLB AVERAGE dMISS LATENCY: 215.969 cycles
cpu0_STLB AVERAGE itMISS LATENCY: 0 cycles
cpu0_STLB AVERAGE dtMISS LATENCY: 0 cycles
cpu0_STLB PAGE CROSSINGS (TLB HIT):         0 
cpu0_STLB PAGE CROSSINGS (TLB MISS):         0 
cpu0_STLB AVERAGE MISS LATENCY: 251.756 cycles
cpu0_L1D TOTAL       ACCESS:   49039335  HIT:   40900225  MISS:    8139110  iACCESS:          0  iHIT:          0  iMISS:          0  dACCESS:   48553230  dHIT:   40879665  dMISS:    7673565  itACCESS:      65244  itHIT:       4692  itMISS:      60552  dtACCESS:     420861  dtHIT:      15868  dtMISS:     404993
cpu0_L1D LOAD         ACCESS:   23465680  HIT:   19386595  MISS:    4079085  iACCESS:          0  iHIT:          0  iMISS:          0  dACCESS:   23465680  dHIT:   19386595  dMISS:    4079085  itACCESS:          0  itHIT:          0  itMISS:          0  dtACCESS:          0  dtHIT:          0  dtMISS:          0
cpu0_L1D RFO          ACCESS:          0  HIT:          0  MISS:          0  iACCESS:          0  iHIT:          0  iMISS:          0  dACCESS:          0  dHIT:          0  dMISS:          0  itACCESS:          0  itHIT:          0  itMISS:          0  dtACCESS:          0  dtHIT:          0  dtMISS:          0
cpu0_L1D PREFETCH     ACCESS:   15219463  HIT:   12416684  MISS:    2802779  iACCESS:          0  iHIT:          0  iMISS:          0  dACCESS:   15219463  dHIT:   12416684  dMISS:    2802779  itACCESS:          0  itHIT:          0  itMISS:          0  dtACCESS:          0  dtHIT:          0  dtMISS:          0
cpu0_L1D WRITE        ACCESS:    9868087  HIT:    9076386  MISS:     791701  iACCESS:          0  iHIT:          0  iMISS:          0  dACCESS:    9868087  dHIT:    9076386  dMISS:     791701  itACCESS:          0  itHIT:          0  itMISS:          0  dtACCESS:          0  dtHIT:          0  dtMISS:          0
cpu0_L1D TRANSLATION  ACCESS:     486105  HIT:      20560  MISS:     465545  iACCESS:          0  iHIT:          0  iMISS:          0  dACCESS:          0  dHIT:          0  dMISS:          0  itACCESS:      65244  itHIT:       4692  itMISS:      60552  dtACCESS:     420861  dtHIT:      15868  dtMISS:     404993
cpu0_L1D PREFETCH  REQUESTED:   23465680  ISSUED:   19828035  CROSSED:          0  USEFUL:     343332  USELESS:    1109728
cpu0_L1D AVERAGE iMISS LATENCY: 0 cycles
cpu0_L1D AVERAGE dMISS LATENCY: 33.2238 cycles
cpu0_L1D AVERAGE itMISS LATENCY: 1.16729 cycles
cpu0_L1D AVERAGE dtMISS LATENCY: 6.95707 cycles
cpu0_L1D PAGE CROSSINGS (TLB HIT):         0 
cpu0_L1D PAGE CROSSINGS (TLB MISS):         0 
cpu0_L1D AVERAGE MISS LATENCY: 41.3482 cycles
cpu0_L2C TOTAL       ACCESS:    9216585  HIT:    5565274  MISS:    3651311  iACCESS:    3114721  iHIT:    1907116  iMISS:    1207605  dACCESS:    5721294  dHIT:    3607493  dMISS:    2113801  itACCESS:      56973  itHIT:       8556  itMISS:      48417  dtACCESS:     323597  dtHIT:      42109  dtMISS:     281488
cpu0_L2C LOAD         ACCESS:    3340652  HIT:    2454140  MISS:     886512  iACCESS:     694818  iHIT:     446397  iMISS:     248421  dACCESS:    2645834  dHIT:    2007743  dMISS:     638091  itACCESS:          0  itHIT:          0  itMISS:          0  dtACCESS:          0  dtHIT:          0  dtMISS:          0
cpu0_L2C RFO          ACCESS:     240680  HIT:     110311  MISS:     130369  iACCESS:          0  iHIT:          0  iMISS:          0  dACCESS:     240680  dHIT:     110311  dMISS:     130369  itACCESS:          0  itHIT:          0  itMISS:          0  dtACCESS:          0  dtHIT:          0  dtMISS:          0
cpu0_L2C PREFETCH     ACCESS:    4924597  HIT:    2623078  MISS:    2301519  iACCESS:    2419903  iHIT:    1460719  iMISS:     959184  dACCESS:    2504694  dHIT:    1162359  dMISS:    1342335  itACCESS:          0  itHIT:          0  itMISS:          0  dtACCESS:          0  dtHIT:          0  dtMISS:          0
cpu0_L2C WRITE        ACCESS:     330086  HIT:     327080  MISS:       3006  iACCESS:          0  iHIT:          0  iMISS:          0  dACCESS:     330086  dHIT:     327080  dMISS:       3006  itACCESS:          0  itHIT:          0  itMISS:          0  dtACCESS:          0  dtHIT:          0  dtMISS:          0
cpu0_L2C TRANSLATION  ACCESS:     380570  HIT:      50665  MISS:     329905  iACCESS:          0  iHIT:          0  iMISS:          0  dACCESS:          0  dHIT:          0  dMISS:          0  itACCESS:      56973  itHIT:       8556  itMISS:      48417  dtACCESS:     323597  dtHIT:      42109  dtMISS:     281488
cpu0_L2C PREFETCH  REQUESTED:    1231921  ISSUED:    1231874  CROSSED:          0  USEFUL:     276586  USELESS:     258891
cpu0_L2C AVERAGE iMISS LATENCY: 41.365 cycles
cpu0_L2C AVERAGE dMISS LATENCY: 81.9998 cycles
cpu0_L2C AVERAGE itMISS LATENCY: 2.44782 cycles
cpu0_L2C AVERAGE dtMISS LATENCY: 14.6281 cycles
cpu0_L2C PAGE CROSSINGS (TLB HIT):         0 
cpu0_L2C PAGE CROSSINGS (TLB MISS):         0 
cpu0_L2C AVERAGE MISS LATENCY: 140.441 cycles
LLC TOTAL       ACCESS:    3668527  HIT:    1103966  MISS:    2564561  iACCESS:    1138919  iHIT:     335028  iMISS:     803891  dACCESS:    2199703  dHIT:     729484  dMISS:    1470219  itACCESS:      48417  itHIT:       3688  itMISS:      44729  dtACCESS:     281488  dtHIT:      35766  dtMISS:     245722
LLC LOAD         ACCESS:     880829  HIT:     279780  MISS:     601049  iACCESS:     247481  iHIT:      79221  iMISS:     168260  dACCESS:     633348  dHIT:     200559  dMISS:     432789  itACCESS:          0  itHIT:          0  itMISS:          0  dtACCESS:          0  dtHIT:          0  dtMISS:          0
LLC RFO          ACCESS:     130359  HIT:      35354  MISS:      95005  iACCESS:          0  iHIT:          0  iMISS:          0  dACCESS:     130359  dHIT:      35354  dMISS:      95005  itACCESS:          0  itHIT:          0  itMISS:          0  dtACCESS:          0  dtHIT:          0  dtMISS:          0
LLC PREFETCH     ACCESS:    2141583  HIT:     571714  MISS:    1569869  iACCESS:     891438  iHIT:     255807  iMISS:     635631  dACCESS:    1250145  dHIT:     315907  dMISS:     934238  itACCESS:          0  itHIT:          0  itMISS:          0  dtACCESS:          0  dtHIT:          0  dtMISS:          0
LLC WRITE        ACCESS:     185851  HIT:     177664  MISS:       8187  iACCESS:          0  iHIT:          0  iMISS:          0  dACCESS:     185851  dHIT:     177664  dMISS:       8187  itACCESS:          0  itHIT:          0  itMISS:          0  dtACCESS:          0  dtHIT:          0  dtMISS:          0
LLC TRANSLATION  ACCESS:     329905  HIT:      39454  MISS:     290451  iACCESS:          0  iHIT:          0  iMISS:          0  dACCESS:          0  dHIT:          0  dMISS:          0  itACCESS:      48417  itHIT:       3688  itMISS:      44729  dtACCESS:     281488  dtHIT:      35766  dtMISS:     245722
LLC PREFETCH  REQUESTED:          0  ISSUED:          0  CROSSED:          0  USEFUL:          0  USELESS:          0
LLC AVERAGE iMISS LATENCY: 50.1433 cycles
LLC AVERAGE dMISS LATENCY: 102.139 cycles
LLC AVERAGE itMISS LATENCY: 3.11063 cycles
LLC AVERAGE dtMISS LATENCY: 18.6586 cycles
LLC PAGE CROSSINGS (TLB HIT):         0 
LLC PAGE CROSSINGS (TLB MISS):         0 
LLC AVERAGE MISS LATENCY: 174.052 cycles

PageTableWalker TOTAL       ACCESS:     178294  
PageTableWalker AVERAGE LATENCY: 6.81653 cycles
PageTableWalker TOTAL LATENCY: 1215345 cycles

DRAM Statistics
Channel 0
 RQ ROW_BUFFER_HIT:     540693
  ROW_BUFFER_MISS:    2001233
 AVG DBUS CONGESTED CYCLE:    3.65453
 WQ ROW_BUFFER_HIT:      56584
  ROW_BUFFER_MISS:      52036  FULL:          0

