last_page:0x200000000000000
VMEM_RES_CAP:0x100000
PAGE_SIZE:4096
LOG2_PAGE_SIZE:12
LOG2_PAGE_TABLE_SIZE:9
page_table_levels:5
WARNING: physical memory size is smaller than virtual memory size
FDiP enabled with aggresivity 16

*** ChampSim Multicore Out-of-Order Simulator ***

Warmup Instructions: 50000000
Simulation Instructions: 100000000
Number of CPUs: 1
Small page size: 4096
Large page size: 2097152

CPU 0 Bimodal branch predictor
Basic BTB sets: 1024 ways: 8 indirect buffer size: 4096 RAS size: 64
Instruction page size distrubution: 0
Loading instruction page size distribution from /home/bsc/bsc018186/scratch/itp_asplos25_AE/dump/smt_srv85_ap_srv442_ap_1024i.pdst
Data page size distrubution: 0
Loading data page size distribution from /home/bsc/bsc018186/scratch/itp_asplos25_AE/dump/smt_srv85_ap_srv442_ap_1024i.pdst
cpu0_L2C IP-based stride prefetcher
cpu0_L2C is using PTP replacement policy:
	TLB_STRESS_THRESHOLD:0
	PTE_EVICTION_RATIO:0
cpu0_L1D next line prefetcher
CHiRPing...
cpu0_L1I next line prefetcher
Off-chip DRAM Size: 4 GiB Channels: 1 Width: 64-bit Data Rate: 3200 MT/s
Heartbeat CPU 0 instructions: 10000003 cycles: 2500458 heartbeat IPC: 3.99927 cumulative IPC: 3.99927 (Simulation time: 0 hr 0 min 38 sec) 
Heartbeat CPU 0 instructions: 20000000 cycles: 5000848 heartbeat IPC: 3.99938 cumulative IPC: 3.99933 (Simulation time: 0 hr 1 min 18 sec) 
Heartbeat CPU 0 instructions: 30000002 cycles: 7500995 heartbeat IPC: 3.99977 cumulative IPC: 3.99947 (Simulation time: 0 hr 1 min 58 sec) 
Heartbeat CPU 0 instructions: 40000003 cycles: 10001255 heartbeat IPC: 3.99959 cumulative IPC: 3.9995 (Simulation time: 0 hr 2 min 39 sec) 
Heartbeat CPU 0 instructions: 50000002 cycles: 12501624 heartbeat IPC: 3.99941 cumulative IPC: 3.99949 (Simulation time: 0 hr 3 min 20 sec) 
Warmup finished CPU 0 instructions: 50000002 cycles: 12501625 cumulative IPC: 3.99949 (Simulation time: 0 hr 3 min 20 sec) 

Warmup complete CPU 0 instructions: 50000002 cycles: 12501625 (Simulation time: 0 hr 3 min 20 sec) 

Heartbeat CPU 0 instructions: 60000000 cycles: 41050660 heartbeat IPC: 0.350275 cumulative IPC: 0.350275 (Simulation time: 0 hr 4 min 43 sec) 
Heartbeat CPU 0 instructions: 70000004 cycles: 69540498 heartbeat IPC: 0.351003 cumulative IPC: 0.350639 (Simulation time: 0 hr 6 min 6 sec) 
Heartbeat CPU 0 instructions: 80000000 cycles: 99568860 heartbeat IPC: 0.333019 cumulative IPC: 0.344562 (Simulation time: 0 hr 7 min 31 sec) 
Heartbeat CPU 0 instructions: 90000002 cycles: 128891088 heartbeat IPC: 0.341039 cumulative IPC: 0.343674 (Simulation time: 0 hr 8 min 55 sec) 
Heartbeat CPU 0 instructions: 100000000 cycles: 158012048 heartbeat IPC: 0.343396 cumulative IPC: 0.343618 (Simulation time: 0 hr 10 min 19 sec) 
Heartbeat CPU 0 instructions: 110000002 cycles: 187740272 heartbeat IPC: 0.336381 cumulative IPC: 0.342391 (Simulation time: 0 hr 11 min 44 sec) 
Heartbeat CPU 0 instructions: 120000002 cycles: 216247313 heartbeat IPC: 0.350791 cumulative IPC: 0.343566 (Simulation time: 0 hr 13 min 7 sec) 
Heartbeat CPU 0 instructions: 130000000 cycles: 246128153 heartbeat IPC: 0.334663 cumulative IPC: 0.342427 (Simulation time: 0 hr 14 min 31 sec) 
Heartbeat CPU 0 instructions: 140000004 cycles: 274430590 heartbeat IPC: 0.353327 cumulative IPC: 0.343605 (Simulation time: 0 hr 15 min 54 sec) 
Heartbeat CPU 0 instructions: 150000000 cycles: 304180215 heartbeat IPC: 0.336139 cumulative IPC: 0.342844 (Simulation time: 0 hr 17 min 19 sec) 
Simulation finished CPU 0 instructions: 100000003 cycles: 291678592 cumulative IPC: 0.342844 (Simulation time: 0 hr 17 min 19 sec) 

Simulation complete CPU 0 instructions: 100000003 cycles: 291678592 (Simulation time: 0 hr 17 min 19 sec) 


ChampSim completed all CPUs

Saving instructions large page distribution to /home/bsc/bsc018186/scratch/itp_asplos25_AE/dump/smt_srv85_ap_srv442_ap_1024i.pdst...
Saving data large page distribution to /home/bsc/bsc018186/scratch/itp_asplos25_AE/dump/smt_srv85_ap_srv442_ap_1024i.pdst...
=== Simulation ===
CPU 0 runs /gpfs/projects/bsc18/MN4/bsc18/romol/ChampSim/traces/qualcomm_srv/smt_srv85_ap_srv442_ap_1024i.champsimtrace.xz

Region of Interest Statistics

CPU 0 cumulative IPC: 0.342844 instructions: 100000003 cycles: 291678592
CPU 0 Branch Prediction Accuracy: 76.4168% MPKI: 42.5144 Average ROB Occupancy at Mispredict: 11.4816
Branch type MPKI
BRANCH_DIRECT_JUMP: 1.30149
BRANCH_INDIRECT: 22.8738
BRANCH_CONDITIONAL: 11.5762
BRANCH_DIRECT_CALL: 2.38344
BRANCH_INDIRECT_CALL: 0.99014
BRANCH_RETURN: 3.38931

Instructions large pages: 0
Instructions small pages: 10002
Large page distribution for instructions: 0%

Data large pages: 0
Data small pages: 8864
Large page distribution for data: 0%

cpu0_L1I TOTAL       ACCESS:   38883327  HIT:   29992483  MISS:    8890844  iACCESS:   38883327  iHIT:   29992483  iMISS:    8890844  dACCESS:          0  dHIT:          0  dMISS:          0  itACCESS:          0  itHIT:          0  itMISS:          0  dtACCESS:          0  dtHIT:          0  dtMISS:          0
cpu0_L1I LOAD         ACCESS:   11671688  HIT:    9216612  MISS:    2455076  iACCESS:   11671688  iHIT:    9216612  iMISS:    2455076  dACCESS:          0  dHIT:          0  dMISS:          0  itACCESS:          0  itHIT:          0  itMISS:          0  dtACCESS:          0  dtHIT:          0  dtMISS:          0
cpu0_L1I RFO          ACCESS:          0  HIT:          0  MISS:          0  iACCESS:          0  iHIT:          0  iMISS:          0  dACCESS:          0  dHIT:          0  dMISS:          0  itACCESS:          0  itHIT:          0  itMISS:          0  dtACCESS:          0  dtHIT:          0  dtMISS:          0
cpu0_L1I PREFETCH     ACCESS:   27211639  HIT:   20775871  MISS:    6435768  iACCESS:   27211639  iHIT:   20775871  iMISS:    6435768  dACCESS:          0  dHIT:          0  dMISS:          0  itACCESS:          0  itHIT:          0  itMISS:          0  dtACCESS:          0  dtHIT:          0  dtMISS:          0
cpu0_L1I WRITE        ACCESS:          0  HIT:          0  MISS:          0  iACCESS:          0  iHIT:          0  iMISS:          0  dACCESS:          0  dHIT:          0  dMISS:          0  itACCESS:          0  itHIT:          0  itMISS:          0  dtACCESS:          0  dtHIT:          0  dtMISS:          0
cpu0_L1I TRANSLATION  ACCESS:          0  HIT:          0  MISS:          0  iACCESS:          0  iHIT:          0  iMISS:          0  dACCESS:          0  dHIT:          0  dMISS:          0  itACCESS:          0  itHIT:          0  itMISS:          0  dtACCESS:          0  dtHIT:          0  dtMISS:          0
cpu0_L1I PREFETCH  REQUESTED:   30065733  ISSUED:   30065706  CROSSED:          0  USEFUL:    2220115  USELESS:     781241
cpu0_L1I AVERAGE iMISS LATENCY: 21.565 cycles
cpu0_L1I AVERAGE dMISS LATENCY: 0 cycles
cpu0_L1I AVERAGE itMISS LATENCY: 0 cycles
cpu0_L1I AVERAGE dtMISS LATENCY: 0 cycles
cpu0_L1I PAGE CROSSINGS (TLB HIT):         0 
cpu0_L1I PAGE CROSSINGS (TLB MISS):         0 
cpu0_L1I AVERAGE MISS LATENCY: 21.565 cycles
cpu0_ITLB TOTAL       ACCESS:   32840774  HIT:   30528050  MISS:    2312724  iACCESS:   32840774  iHIT:   30528050  iMISS:    2312724  dACCESS:          0  dHIT:          0  dMISS:          0  itACCESS:          0  itHIT:          0  itMISS:          0  dtACCESS:          0  dtHIT:          0  dtMISS:          0
cpu0_ITLB LOAD         ACCESS:   32840774  HIT:   30528050  MISS:    2312724  iACCESS:   32840774  iHIT:   30528050  iMISS:    2312724  dACCESS:          0  dHIT:          0  dMISS:          0  itACCESS:          0  itHIT:          0  itMISS:          0  dtACCESS:          0  dtHIT:          0  dtMISS:          0
cpu0_ITLB RFO          ACCESS:          0  HIT:          0  MISS:          0  iACCESS:          0  iHIT:          0  iMISS:          0  dACCESS:          0  dHIT:          0  dMISS:          0  itACCESS:          0  itHIT:          0  itMISS:          0  dtACCESS:          0  dtHIT:          0  dtMISS:          0
cpu0_ITLB PREFETCH     ACCESS:          0  HIT:          0  MISS:          0  iACCESS:          0  iHIT:          0  iMISS:          0  dACCESS:          0  dHIT:          0  dMISS:          0  itACCESS:          0  itHIT:          0  itMISS:          0  dtACCESS:          0  dtHIT:          0  dtMISS:          0
cpu0_ITLB WRITE        ACCESS:          0  HIT:          0  MISS:          0  iACCESS:          0  iHIT:          0  iMISS:          0  dACCESS:          0  dHIT:          0  dMISS:          0  itACCESS:          0  itHIT:          0  itMISS:          0  dtACCESS:          0  dtHIT:          0  dtMISS:          0
cpu0_ITLB TRANSLATION  ACCESS:          0  HIT:          0  MISS:          0  iACCESS:          0  iHIT:          0  iMISS:          0  dACCESS:          0  dHIT:          0  dMISS:          0  itACCESS:          0  itHIT:          0  itMISS:          0  dtACCESS:          0  dtHIT:          0  dtMISS:          0
cpu0_ITLB PREFETCH  REQUESTED:          0  ISSUED:          0  CROSSED:          0  USEFUL:     391233  USELESS:      84579
cpu0_ITLB AVERAGE iMISS LATENCY: 9.60661 cycles
cpu0_ITLB AVERAGE dMISS LATENCY: 0 cycles
cpu0_ITLB AVERAGE itMISS LATENCY: 0 cycles
cpu0_ITLB AVERAGE dtMISS LATENCY: 0 cycles
cpu0_ITLB PAGE CROSSINGS (TLB HIT):         0 
cpu0_ITLB PAGE CROSSINGS (TLB MISS):         0 
cpu0_ITLB AVERAGE MISS LATENCY: 9.60661 cycles
cpu0_DTLB TOTAL       ACCESS:   28830142  HIT:   25140134  MISS:    3690008  iACCESS:          0  iHIT:          0  iMISS:          0  dACCESS:   28830142  dHIT:   25140134  dMISS:    3690008  itACCESS:          0  itHIT:          0  itMISS:          0  dtACCESS:          0  dtHIT:          0  dtMISS:          0
cpu0_DTLB LOAD         ACCESS:   28830142  HIT:   25140134  MISS:    3690008  iACCESS:          0  iHIT:          0  iMISS:          0  dACCESS:   28830142  dHIT:   25140134  dMISS:    3690008  itACCESS:          0  itHIT:          0  itMISS:          0  dtACCESS:          0  dtHIT:          0  dtMISS:          0
cpu0_DTLB RFO          ACCESS:          0  HIT:          0  MISS:          0  iACCESS:          0  iHIT:          0  iMISS:          0  dACCESS:          0  dHIT:          0  dMISS:          0  itACCESS:          0  itHIT:          0  itMISS:          0  dtACCESS:          0  dtHIT:          0  dtMISS:          0
cpu0_DTLB PREFETCH     ACCESS:          0  HIT:          0  MISS:          0  iACCESS:          0  iHIT:          0  iMISS:          0  dACCESS:          0  dHIT:          0  dMISS:          0  itACCESS:          0  itHIT:          0  itMISS:          0  dtACCESS:          0  dtHIT:          0  dtMISS:          0
cpu0_DTLB WRITE        ACCESS:          0  HIT:          0  MISS:          0  iACCESS:          0  iHIT:          0  iMISS:          0  dACCESS:          0  dHIT:          0  dMISS:          0  itACCESS:          0  itHIT:          0  itMISS:          0  dtACCESS:          0  dtHIT:          0  dtMISS:          0
cpu0_DTLB TRANSLATION  ACCESS:          0  HIT:          0  MISS:          0  iACCESS:          0  iHIT:          0  iMISS:          0  dACCESS:          0  dHIT:          0  dMISS:          0  itACCESS:          0  itHIT:          0  itMISS:          0  dtACCESS:          0  dtHIT:          0  dtMISS:          0
cpu0_DTLB PREFETCH  REQUESTED:          0  ISSUED:          0  CROSSED:          0  USEFUL:          0  USELESS:          0
cpu0_DTLB AVERAGE iMISS LATENCY: 0 cycles
cpu0_DTLB AVERAGE dMISS LATENCY: 25.4333 cycles
cpu0_DTLB AVERAGE itMISS LATENCY: 0 cycles
cpu0_DTLB AVERAGE dtMISS LATENCY: 0 cycles
cpu0_DTLB PAGE CROSSINGS (TLB HIT):         0 
cpu0_DTLB PAGE CROSSINGS (TLB MISS):         0 
cpu0_DTLB AVERAGE MISS LATENCY: 25.4333 cycles
cpu0_STLB TOTAL       ACCESS:    2618858  HIT:    2238989  MISS:     379869  iACCESS:     475808  iHIT:     370875  iMISS:     104933  dACCESS:    2143050  dHIT:    1868114  dMISS:     274936  itACCESS:          0  itHIT:          0  itMISS:          0  dtACCESS:          0  dtHIT:          0  dtMISS:          0
cpu0_STLB LOAD         ACCESS:    2618858  HIT:    2238989  MISS:     379869  iACCESS:     475808  iHIT:     370875  iMISS:     104933  dACCESS:    2143050  dHIT:    1868114  dMISS:     274936  itACCESS:          0  itHIT:          0  itMISS:          0  dtACCESS:          0  dtHIT:          0  dtMISS:          0
cpu0_STLB RFO          ACCESS:          0  HIT:          0  MISS:          0  iACCESS:          0  iHIT:          0  iMISS:          0  dACCESS:          0  dHIT:          0  dMISS:          0  itACCESS:          0  itHIT:          0  itMISS:          0  dtACCESS:          0  dtHIT:          0  dtMISS:          0
cpu0_STLB PREFETCH     ACCESS:          0  HIT:          0  MISS:          0  iACCESS:          0  iHIT:          0  iMISS:          0  dACCESS:          0  dHIT:          0  dMISS:          0  itACCESS:          0  itHIT:          0  itMISS:          0  dtACCESS:          0  dtHIT:          0  dtMISS:          0
cpu0_STLB WRITE        ACCESS:          0  HIT:          0  MISS:          0  iACCESS:          0  iHIT:          0  iMISS:          0  dACCESS:          0  dHIT:          0  dMISS:          0  itACCESS:          0  itHIT:          0  itMISS:          0  dtACCESS:          0  dtHIT:          0  dtMISS:          0
cpu0_STLB TRANSLATION  ACCESS:          0  HIT:          0  MISS:          0  iACCESS:          0  iHIT:          0  iMISS:          0  dACCESS:          0  dHIT:          0  dMISS:          0  itACCESS:          0  itHIT:          0  itMISS:          0  dtACCESS:          0  dtHIT:          0  dtMISS:          0
cpu0_STLB PREFETCH  REQUESTED:          0  ISSUED:          0  CROSSED:          0  USEFUL:          0  USELESS:          0
cpu0_STLB AVERAGE iMISS LATENCY: 48.4976 cycles
cpu0_STLB AVERAGE dMISS LATENCY: 201.635 cycles
cpu0_STLB AVERAGE itMISS LATENCY: 0 cycles
cpu0_STLB AVERAGE dtMISS LATENCY: 0 cycles
cpu0_STLB PAGE CROSSINGS (TLB HIT):         0 
cpu0_STLB PAGE CROSSINGS (TLB MISS):         0 
cpu0_STLB AVERAGE MISS LATENCY: 250.133 cycles
cpu0_L1D TOTAL       ACCESS:   45126246  HIT:   39080958  MISS:    6045288  iACCESS:          0  iHIT:          0  iMISS:          0  dACCESS:   44560066  dHIT:   39050035  dMISS:    5510031  itACCESS:     119729  itHIT:      11838  itMISS:     107891  dtACCESS:     446451  dtHIT:      19085  dtMISS:     427366
cpu0_L1D LOAD         ACCESS:   20330907  HIT:   17849938  MISS:    2480969  iACCESS:          0  iHIT:          0  iMISS:          0  dACCESS:   20330907  dHIT:   17849938  dMISS:    2480969  itACCESS:          0  itHIT:          0  itMISS:          0  dtACCESS:          0  dtHIT:          0  dtMISS:          0
cpu0_L1D RFO          ACCESS:          0  HIT:          0  MISS:          0  iACCESS:          0  iHIT:          0  iMISS:          0  dACCESS:          0  dHIT:          0  dMISS:          0  itACCESS:          0  itHIT:          0  itMISS:          0  dtACCESS:          0  dtHIT:          0  dtMISS:          0
cpu0_L1D PREFETCH     ACCESS:   14081376  HIT:   11635225  MISS:    2446151  iACCESS:          0  iHIT:          0  iMISS:          0  dACCESS:   14081376  dHIT:   11635225  dMISS:    2446151  itACCESS:          0  itHIT:          0  itMISS:          0  dtACCESS:          0  dtHIT:          0  dtMISS:          0
cpu0_L1D WRITE        ACCESS:   10147783  HIT:    9564872  MISS:     582911  iACCESS:          0  iHIT:          0  iMISS:          0  dACCESS:   10147783  dHIT:    9564872  dMISS:     582911  itACCESS:          0  itHIT:          0  itMISS:          0  dtACCESS:          0  dtHIT:          0  dtMISS:          0
cpu0_L1D TRANSLATION  ACCESS:     566180  HIT:      30923  MISS:     535257  iACCESS:          0  iHIT:          0  iMISS:          0  dACCESS:          0  dHIT:          0  dMISS:          0  itACCESS:     119729  itHIT:      11838  itMISS:     107891  dtACCESS:     446451  dtHIT:      19085  dtMISS:     427366
cpu0_L1D PREFETCH  REQUESTED:   20330907  ISSUED:   18463848  CROSSED:          0  USEFUL:     359541  USELESS:     945891
cpu0_L1D AVERAGE iMISS LATENCY: 0 cycles
cpu0_L1D AVERAGE dMISS LATENCY: 48.8037 cycles
cpu0_L1D AVERAGE itMISS LATENCY: 2.88267 cycles
cpu0_L1D AVERAGE dtMISS LATENCY: 11.8774 cycles
cpu0_L1D PAGE CROSSINGS (TLB HIT):         0 
cpu0_L1D PAGE CROSSINGS (TLB MISS):         0 
cpu0_L1D AVERAGE MISS LATENCY: 63.5637 cycles
cpu0_L2C TOTAL       ACCESS:    8701903  HIT:    4262557  MISS:    4439346  iACCESS:    3844173  iHIT:    2381614  iMISS:    1462559  dACCESS:    4359131  dHIT:    1820737  dMISS:    2538394  itACCESS:     106834  itHIT:      17139  itMISS:      89695  dtACCESS:     391765  dtHIT:      43067  dtMISS:     348698
cpu0_L2C LOAD         ACCESS:    2114930  HIT:    1028572  MISS:    1086358  iACCESS:     880603  iHIT:     566578  iMISS:     314025  dACCESS:    1234327  dHIT:     461994  dMISS:     772333  itACCESS:          0  itHIT:          0  itMISS:          0  dtACCESS:          0  dtHIT:          0  dtMISS:          0
cpu0_L2C RFO          ACCESS:     217663  HIT:      83735  MISS:     133928  iACCESS:          0  iHIT:          0  iMISS:          0  dACCESS:     217663  dHIT:      83735  dMISS:     133928  itACCESS:          0  itHIT:          0  itMISS:          0  dtACCESS:          0  dtHIT:          0  dtMISS:          0
cpu0_L2C PREFETCH     ACCESS:    5522161  HIT:    2753843  MISS:    2768318  iACCESS:    2963570  iHIT:    1815036  iMISS:    1148534  dACCESS:    2558591  dHIT:     938807  dMISS:    1619784  itACCESS:          0  itHIT:          0  itMISS:          0  dtACCESS:          0  dtHIT:          0  dtMISS:          0
cpu0_L2C WRITE        ACCESS:     348550  HIT:     336201  MISS:      12349  iACCESS:          0  iHIT:          0  iMISS:          0  dACCESS:     348550  dHIT:     336201  dMISS:      12349  itACCESS:          0  itHIT:          0  itMISS:          0  dtACCESS:          0  dtHIT:          0  dtMISS:          0
cpu0_L2C TRANSLATION  ACCESS:     498599  HIT:      60206  MISS:     438393  iACCESS:          0  iHIT:          0  iMISS:          0  dACCESS:          0  dHIT:          0  dMISS:          0  itACCESS:     106834  itHIT:      17139  itMISS:      89695  dtACCESS:     391765  dtHIT:      43067  dtMISS:     348698
cpu0_L2C PREFETCH  REQUESTED:    1517182  ISSUED:    1517178  CROSSED:          0  USEFUL:     348986  USELESS:     305168
cpu0_L2C AVERAGE iMISS LATENCY: 35.6854 cycles
cpu0_L2C AVERAGE dMISS LATENCY: 79.2327 cycles
cpu0_L2C AVERAGE itMISS LATENCY: 3.68794 cycles
cpu0_L2C AVERAGE dtMISS LATENCY: 15.296 cycles
cpu0_L2C PAGE CROSSINGS (TLB HIT):         0 
cpu0_L2C PAGE CROSSINGS (TLB MISS):         0 
cpu0_L2C AVERAGE MISS LATENCY: 133.902 cycles
LLC TOTAL       ACCESS:    4455120  HIT:    1545443  MISS:    2909677  iACCESS:    1383239  iHIT:     556311  iMISS:     826928  dACCESS:    2633488  dHIT:     944288  dMISS:    1689200  itACCESS:      89695  itHIT:       7800  itMISS:      81895  dtACCESS:     348698  dtHIT:      37044  dtMISS:     311654
LLC LOAD         ACCESS:    1077882  HIT:     377871  MISS:     700011  iACCESS:     312691  iHIT:     135036  iMISS:     177655  dACCESS:     765191  dHIT:     242835  dMISS:     522356  itACCESS:          0  itHIT:          0  itMISS:          0  dtACCESS:          0  dtHIT:          0  dtMISS:          0
LLC RFO          ACCESS:     133924  HIT:      41938  MISS:      91986  iACCESS:          0  iHIT:          0  iMISS:          0  dACCESS:     133924  dHIT:      41938  dMISS:      91986  itACCESS:          0  itHIT:          0  itMISS:          0  dtACCESS:          0  dtHIT:          0  dtMISS:          0
LLC PREFETCH     ACCESS:    2587703  HIT:     872877  MISS:    1714826  iACCESS:    1070548  iHIT:     421275  iMISS:     649273  dACCESS:    1517155  dHIT:     451602  dMISS:    1065553  itACCESS:          0  itHIT:          0  itMISS:          0  dtACCESS:          0  dtHIT:          0  dtMISS:          0
LLC WRITE        ACCESS:     217218  HIT:     207913  MISS:       9305  iACCESS:          0  iHIT:          0  iMISS:          0  dACCESS:     217218  dHIT:     207913  dMISS:       9305  itACCESS:          0  itHIT:          0  itMISS:          0  dtACCESS:          0  dtHIT:          0  dtMISS:          0
LLC TRANSLATION  ACCESS:     438393  HIT:      44844  MISS:     393549  iACCESS:          0  iHIT:          0  iMISS:          0  dACCESS:          0  dHIT:          0  dMISS:          0  itACCESS:      89695  itHIT:       7800  itMISS:      81895  dtACCESS:     348698  dtHIT:      37044  dtMISS:     311654
LLC PREFETCH  REQUESTED:          0  ISSUED:          0  CROSSED:          0  USEFUL:          0  USELESS:          0
LLC AVERAGE iMISS LATENCY: 45.1056 cycles
LLC AVERAGE dMISS LATENCY: 105.657 cycles
LLC AVERAGE itMISS LATENCY: 5.01563 cycles
LLC AVERAGE dtMISS LATENCY: 20.9679 cycles
LLC PAGE CROSSINGS (TLB HIT):         0 
LLC PAGE CROSSINGS (TLB MISS):         0 
LLC AVERAGE MISS LATENCY: 176.746 cycles

PageTableWalker TOTAL       ACCESS:     188691  
PageTableWalker AVERAGE LATENCY: 6.43262 cycles
PageTableWalker TOTAL LATENCY: 1213776 cycles

DRAM Statistics
Channel 0
 RQ ROW_BUFFER_HIT:     576667
  ROW_BUFFER_MISS:    2304065
 AVG DBUS CONGESTED CYCLE:    3.64801
 WQ ROW_BUFFER_HIT:      67164
  ROW_BUFFER_MISS:      57784  FULL:          0

