last_page:0x200000000000000
VMEM_RES_CAP:0x100000
PAGE_SIZE:4096
LOG2_PAGE_SIZE:12
LOG2_PAGE_TABLE_SIZE:9
page_table_levels:5
WARNING: physical memory size is smaller than virtual memory size
FDiP enabled with aggresivity 16

*** ChampSim Multicore Out-of-Order Simulator ***

Warmup Instructions: 50000000
Simulation Instructions: 100000000
Number of CPUs: 1
Small page size: 4096
Large page size: 2097152

CPU 0 Bimodal branch predictor
Basic BTB sets: 1024 ways: 8 indirect buffer size: 4096 RAS size: 64
Instruction page size distrubution: 0
Loading instruction page size distribution from /home/bsc/bsc018186/scratch/itp_asplos25_AE/dump/smt_srv85_ap_srv128_ap_1024i.pdst
Data page size distrubution: 0
Loading data page size distribution from /home/bsc/bsc018186/scratch/itp_asplos25_AE/dump/smt_srv85_ap_srv128_ap_1024i.pdst
cpu0_L2C IP-based stride prefetcher
cpu0_L1D next line prefetcher
CHiRPing...
cpu0_L1I next line prefetcher
Off-chip DRAM Size: 4 GiB Channels: 1 Width: 64-bit Data Rate: 3200 MT/s
Heartbeat CPU 0 instructions: 10000003 cycles: 2500551 heartbeat IPC: 3.99912 cumulative IPC: 3.99912 (Simulation time: 0 hr 0 min 40 sec) 
Heartbeat CPU 0 instructions: 20000000 cycles: 5080213 heartbeat IPC: 3.87648 cumulative IPC: 3.93685 (Simulation time: 0 hr 1 min 22 sec) 
Heartbeat CPU 0 instructions: 30000003 cycles: 7628728 heartbeat IPC: 3.92386 cumulative IPC: 3.93251 (Simulation time: 0 hr 2 min 7 sec) 
Heartbeat CPU 0 instructions: 40000003 cycles: 10170921 heartbeat IPC: 3.93362 cumulative IPC: 3.93279 (Simulation time: 0 hr 2 min 51 sec) 
Heartbeat CPU 0 instructions: 50000000 cycles: 12671418 heartbeat IPC: 3.99921 cumulative IPC: 3.94589 (Simulation time: 0 hr 3 min 34 sec) 
Warmup finished CPU 0 instructions: 50000000 cycles: 12671419 cumulative IPC: 3.94589 (Simulation time: 0 hr 3 min 34 sec) 

Warmup complete CPU 0 instructions: 50000000 cycles: 12671419 (Simulation time: 0 hr 3 min 34 sec) 

Heartbeat CPU 0 instructions: 60000000 cycles: 40693840 heartbeat IPC: 0.356858 cumulative IPC: 0.356858 (Simulation time: 0 hr 4 min 58 sec) 
Heartbeat CPU 0 instructions: 70000000 cycles: 68610019 heartbeat IPC: 0.358216 cumulative IPC: 0.357535 (Simulation time: 0 hr 6 min 23 sec) 
Heartbeat CPU 0 instructions: 80000002 cycles: 97226698 heartbeat IPC: 0.349447 cumulative IPC: 0.354798 (Simulation time: 0 hr 7 min 48 sec) 
Heartbeat CPU 0 instructions: 90000002 cycles: 125034492 heartbeat IPC: 0.359612 cumulative IPC: 0.355989 (Simulation time: 0 hr 9 min 12 sec) 
Heartbeat CPU 0 instructions: 100000000 cycles: 153856161 heartbeat IPC: 0.346962 cumulative IPC: 0.354146 (Simulation time: 0 hr 10 min 38 sec) 
Heartbeat CPU 0 instructions: 110000000 cycles: 181916249 heartbeat IPC: 0.356379 cumulative IPC: 0.354516 (Simulation time: 0 hr 12 min 3 sec) 
Heartbeat CPU 0 instructions: 120000000 cycles: 210683871 heartbeat IPC: 0.347614 cumulative IPC: 0.353514 (Simulation time: 0 hr 13 min 29 sec) 
Heartbeat CPU 0 instructions: 130000000 cycles: 238734263 heartbeat IPC: 0.356502 cumulative IPC: 0.353884 (Simulation time: 0 hr 14 min 55 sec) 
Heartbeat CPU 0 instructions: 140000004 cycles: 266827268 heartbeat IPC: 0.355961 cumulative IPC: 0.354114 (Simulation time: 0 hr 16 min 20 sec) 
Heartbeat CPU 0 instructions: 150000000 cycles: 295906218 heartbeat IPC: 0.343892 cumulative IPC: 0.353064 (Simulation time: 0 hr 17 min 47 sec) 
Simulation finished CPU 0 instructions: 100000000 cycles: 283234800 cumulative IPC: 0.353064 (Simulation time: 0 hr 17 min 47 sec) 

Simulation complete CPU 0 instructions: 100000000 cycles: 283234800 (Simulation time: 0 hr 17 min 47 sec) 


ChampSim completed all CPUs

Saving instructions large page distribution to /home/bsc/bsc018186/scratch/itp_asplos25_AE/dump/smt_srv85_ap_srv128_ap_1024i.pdst...
Saving data large page distribution to /home/bsc/bsc018186/scratch/itp_asplos25_AE/dump/smt_srv85_ap_srv128_ap_1024i.pdst...
=== Simulation ===
CPU 0 runs /gpfs/projects/bsc18/MN4/bsc18/romol/ChampSim/traces/qualcomm_srv/smt_srv85_ap_srv128_ap_1024i.champsimtrace.xz

Region of Interest Statistics

CPU 0 cumulative IPC: 0.353064 instructions: 100000000 cycles: 283234800
CPU 0 Branch Prediction Accuracy: 75.0492% MPKI: 44.9943 Average ROB Occupancy at Mispredict: 10.4417
Branch type MPKI
BRANCH_DIRECT_JUMP: 1.39322
BRANCH_INDIRECT: 23.3239
BRANCH_CONDITIONAL: 13.0686
BRANCH_DIRECT_CALL: 2.66734
BRANCH_INDIRECT_CALL: 1.01161
BRANCH_RETURN: 3.52963

Instructions large pages: 0
Instructions small pages: 10022
Large page distribution for instructions: 0%

Data large pages: 0
Data small pages: 8595
Large page distribution for data: 0%

cpu0_L1I TOTAL       ACCESS:   39617837  HIT:   30340772  MISS:    9277065  iACCESS:   39617837  iHIT:   30340772  iMISS:    9277065  dACCESS:          0  dHIT:          0  dMISS:          0  itACCESS:          0  itHIT:          0  itMISS:          0  dtACCESS:          0  dtHIT:          0  dtMISS:          0
cpu0_L1I LOAD         ACCESS:   11823553  HIT:    9305750  MISS:    2517803  iACCESS:   11823553  iHIT:    9305750  iMISS:    2517803  dACCESS:          0  dHIT:          0  dMISS:          0  itACCESS:          0  itHIT:          0  itMISS:          0  dtACCESS:          0  dtHIT:          0  dtMISS:          0
cpu0_L1I RFO          ACCESS:          0  HIT:          0  MISS:          0  iACCESS:          0  iHIT:          0  iMISS:          0  dACCESS:          0  dHIT:          0  dMISS:          0  itACCESS:          0  itHIT:          0  itMISS:          0  dtACCESS:          0  dtHIT:          0  dtMISS:          0
cpu0_L1I PREFETCH     ACCESS:   27794284  HIT:   21035022  MISS:    6759262  iACCESS:   27794284  iHIT:   21035022  iMISS:    6759262  dACCESS:          0  dHIT:          0  dMISS:          0  itACCESS:          0  itHIT:          0  itMISS:          0  dtACCESS:          0  dtHIT:          0  dtMISS:          0
cpu0_L1I WRITE        ACCESS:          0  HIT:          0  MISS:          0  iACCESS:          0  iHIT:          0  iMISS:          0  dACCESS:          0  dHIT:          0  dMISS:          0  itACCESS:          0  itHIT:          0  itMISS:          0  dtACCESS:          0  dtHIT:          0  dtMISS:          0
cpu0_L1I TRANSLATION  ACCESS:          0  HIT:          0  MISS:          0  iACCESS:          0  iHIT:          0  iMISS:          0  dACCESS:          0  dHIT:          0  dMISS:          0  itACCESS:          0  itHIT:          0  itMISS:          0  dtACCESS:          0  dtHIT:          0  dtMISS:          0
cpu0_L1I PREFETCH  REQUESTED:   30393880  ISSUED:   30392110  CROSSED:          0  USEFUL:    2227382  USELESS:     772531
cpu0_L1I AVERAGE iMISS LATENCY: 24.5041 cycles
cpu0_L1I AVERAGE dMISS LATENCY: 0 cycles
cpu0_L1I AVERAGE itMISS LATENCY: 0 cycles
cpu0_L1I AVERAGE dtMISS LATENCY: 0 cycles
cpu0_L1I PAGE CROSSINGS (TLB HIT):         0 
cpu0_L1I PAGE CROSSINGS (TLB MISS):         0 
cpu0_L1I AVERAGE MISS LATENCY: 24.5041 cycles
cpu0_ITLB TOTAL       ACCESS:   33344112  HIT:   31092608  MISS:    2251504  iACCESS:   33344112  iHIT:   31092608  iMISS:    2251504  dACCESS:          0  dHIT:          0  dMISS:          0  itACCESS:          0  itHIT:          0  itMISS:          0  dtACCESS:          0  dtHIT:          0  dtMISS:          0
cpu0_ITLB LOAD         ACCESS:   33344112  HIT:   31092608  MISS:    2251504  iACCESS:   33344112  iHIT:   31092608  iMISS:    2251504  dACCESS:          0  dHIT:          0  dMISS:          0  itACCESS:          0  itHIT:          0  itMISS:          0  dtACCESS:          0  dtHIT:          0  dtMISS:          0
cpu0_ITLB RFO          ACCESS:          0  HIT:          0  MISS:          0  iACCESS:          0  iHIT:          0  iMISS:          0  dACCESS:          0  dHIT:          0  dMISS:          0  itACCESS:          0  itHIT:          0  itMISS:          0  dtACCESS:          0  dtHIT:          0  dtMISS:          0
cpu0_ITLB PREFETCH     ACCESS:          0  HIT:          0  MISS:          0  iACCESS:          0  iHIT:          0  iMISS:          0  dACCESS:          0  dHIT:          0  dMISS:          0  itACCESS:          0  itHIT:          0  itMISS:          0  dtACCESS:          0  dtHIT:          0  dtMISS:          0
cpu0_ITLB WRITE        ACCESS:          0  HIT:          0  MISS:          0  iACCESS:          0  iHIT:          0  iMISS:          0  dACCESS:          0  dHIT:          0  dMISS:          0  itACCESS:          0  itHIT:          0  itMISS:          0  dtACCESS:          0  dtHIT:          0  dtMISS:          0
cpu0_ITLB TRANSLATION  ACCESS:          0  HIT:          0  MISS:          0  iACCESS:          0  iHIT:          0  iMISS:          0  dACCESS:          0  dHIT:          0  dMISS:          0  itACCESS:          0  itHIT:          0  itMISS:          0  dtACCESS:          0  dtHIT:          0  dtMISS:          0
cpu0_ITLB PREFETCH  REQUESTED:          0  ISSUED:          0  CROSSED:          0  USEFUL:     393732  USELESS:      80816
cpu0_ITLB AVERAGE iMISS LATENCY: 8.06116 cycles
cpu0_ITLB AVERAGE dMISS LATENCY: 0 cycles
cpu0_ITLB AVERAGE itMISS LATENCY: 0 cycles
cpu0_ITLB AVERAGE dtMISS LATENCY: 0 cycles
cpu0_ITLB PAGE CROSSINGS (TLB HIT):         0 
cpu0_ITLB PAGE CROSSINGS (TLB MISS):         0 
cpu0_ITLB AVERAGE MISS LATENCY: 8.06116 cycles
cpu0_DTLB TOTAL       ACCESS:   28901792  HIT:   25309550  MISS:    3592242  iACCESS:          0  iHIT:          0  iMISS:          0  dACCESS:   28901792  dHIT:   25309550  dMISS:    3592242  itACCESS:          0  itHIT:          0  itMISS:          0  dtACCESS:          0  dtHIT:          0  dtMISS:          0
cpu0_DTLB LOAD         ACCESS:   28901792  HIT:   25309550  MISS:    3592242  iACCESS:          0  iHIT:          0  iMISS:          0  dACCESS:   28901792  dHIT:   25309550  dMISS:    3592242  itACCESS:          0  itHIT:          0  itMISS:          0  dtACCESS:          0  dtHIT:          0  dtMISS:          0
cpu0_DTLB RFO          ACCESS:          0  HIT:          0  MISS:          0  iACCESS:          0  iHIT:          0  iMISS:          0  dACCESS:          0  dHIT:          0  dMISS:          0  itACCESS:          0  itHIT:          0  itMISS:          0  dtACCESS:          0  dtHIT:          0  dtMISS:          0
cpu0_DTLB PREFETCH     ACCESS:          0  HIT:          0  MISS:          0  iACCESS:          0  iHIT:          0  iMISS:          0  dACCESS:          0  dHIT:          0  dMISS:          0  itACCESS:          0  itHIT:          0  itMISS:          0  dtACCESS:          0  dtHIT:          0  dtMISS:          0
cpu0_DTLB WRITE        ACCESS:          0  HIT:          0  MISS:          0  iACCESS:          0  iHIT:          0  iMISS:          0  dACCESS:          0  dHIT:          0  dMISS:          0  itACCESS:          0  itHIT:          0  itMISS:          0  dtACCESS:          0  dtHIT:          0  dtMISS:          0
cpu0_DTLB TRANSLATION  ACCESS:          0  HIT:          0  MISS:          0  iACCESS:          0  iHIT:          0  iMISS:          0  dACCESS:          0  dHIT:          0  dMISS:          0  itACCESS:          0  itHIT:          0  itMISS:          0  dtACCESS:          0  dtHIT:          0  dtMISS:          0
cpu0_DTLB PREFETCH  REQUESTED:          0  ISSUED:          0  CROSSED:          0  USEFUL:          0  USELESS:          0
cpu0_DTLB AVERAGE iMISS LATENCY: 0 cycles
cpu0_DTLB AVERAGE dMISS LATENCY: 17.7692 cycles
cpu0_DTLB AVERAGE itMISS LATENCY: 0 cycles
cpu0_DTLB AVERAGE dtMISS LATENCY: 0 cycles
cpu0_DTLB PAGE CROSSINGS (TLB HIT):         0 
cpu0_DTLB PAGE CROSSINGS (TLB MISS):         0 
cpu0_DTLB AVERAGE MISS LATENCY: 17.7692 cycles
cpu0_STLB TOTAL       ACCESS:    2591795  HIT:    2203276  MISS:     388519  iACCESS:     474562  iHIT:     356859  iMISS:     117703  dACCESS:    2117233  dHIT:    1846417  dMISS:     270816  itACCESS:          0  itHIT:          0  itMISS:          0  dtACCESS:          0  dtHIT:          0  dtMISS:          0
cpu0_STLB LOAD         ACCESS:    2591795  HIT:    2203276  MISS:     388519  iACCESS:     474562  iHIT:     356859  iMISS:     117703  dACCESS:    2117233  dHIT:    1846417  dMISS:     270816  itACCESS:          0  itHIT:          0  itMISS:          0  dtACCESS:          0  dtHIT:          0  dtMISS:          0
cpu0_STLB RFO          ACCESS:          0  HIT:          0  MISS:          0  iACCESS:          0  iHIT:          0  iMISS:          0  dACCESS:          0  dHIT:          0  dMISS:          0  itACCESS:          0  itHIT:          0  itMISS:          0  dtACCESS:          0  dtHIT:          0  dtMISS:          0
cpu0_STLB PREFETCH     ACCESS:          0  HIT:          0  MISS:          0  iACCESS:          0  iHIT:          0  iMISS:          0  dACCESS:          0  dHIT:          0  dMISS:          0  itACCESS:          0  itHIT:          0  itMISS:          0  dtACCESS:          0  dtHIT:          0  dtMISS:          0
cpu0_STLB WRITE        ACCESS:          0  HIT:          0  MISS:          0  iACCESS:          0  iHIT:          0  iMISS:          0  dACCESS:          0  dHIT:          0  dMISS:          0  itACCESS:          0  itHIT:          0  itMISS:          0  dtACCESS:          0  dtHIT:          0  dtMISS:          0
cpu0_STLB TRANSLATION  ACCESS:          0  HIT:          0  MISS:          0  iACCESS:          0  iHIT:          0  iMISS:          0  dACCESS:          0  dHIT:          0  dMISS:          0  itACCESS:          0  itHIT:          0  itMISS:          0  dtACCESS:          0  dtHIT:          0  dtMISS:          0
cpu0_STLB PREFETCH  REQUESTED:          0  ISSUED:          0  CROSSED:          0  USEFUL:          0  USELESS:          0
cpu0_STLB AVERAGE iMISS LATENCY: 36.9492 cycles
cpu0_STLB AVERAGE dMISS LATENCY: 120.482 cycles
cpu0_STLB AVERAGE itMISS LATENCY: 0 cycles
cpu0_STLB AVERAGE dtMISS LATENCY: 0 cycles
cpu0_STLB PAGE CROSSINGS (TLB HIT):         0 
cpu0_STLB PAGE CROSSINGS (TLB MISS):         0 
cpu0_STLB AVERAGE MISS LATENCY: 157.431 cycles
cpu0_L1D TOTAL       ACCESS:   45395083  HIT:   39257006  MISS:    6138077  iACCESS:          0  iHIT:          0  iMISS:          0  dACCESS:   44822456  dHIT:   39223695  dMISS:    5598761  itACCESS:     133919  itHIT:      14436  itMISS:     119483  dtACCESS:     438708  dtHIT:      18875  dtMISS:     419833
cpu0_L1D LOAD         ACCESS:   20447585  HIT:   17924437  MISS:    2523148  iACCESS:          0  iHIT:          0  iMISS:          0  dACCESS:   20447585  dHIT:   17924437  dMISS:    2523148  itACCESS:          0  itHIT:          0  itMISS:          0  dtACCESS:          0  dtHIT:          0  dtMISS:          0
cpu0_L1D RFO          ACCESS:          0  HIT:          0  MISS:          0  iACCESS:          0  iHIT:          0  iMISS:          0  dACCESS:          0  dHIT:          0  dMISS:          0  itACCESS:          0  itHIT:          0  itMISS:          0  dtACCESS:          0  dtHIT:          0  dtMISS:          0
cpu0_L1D PREFETCH     ACCESS:   14204884  HIT:   11721798  MISS:    2483086  iACCESS:          0  iHIT:          0  iMISS:          0  dACCESS:   14204884  dHIT:   11721798  dMISS:    2483086  itACCESS:          0  itHIT:          0  itMISS:          0  dtACCESS:          0  dtHIT:          0  dtMISS:          0
cpu0_L1D WRITE        ACCESS:   10169987  HIT:    9577460  MISS:     592527  iACCESS:          0  iHIT:          0  iMISS:          0  dACCESS:   10169987  dHIT:    9577460  dMISS:     592527  itACCESS:          0  itHIT:          0  itMISS:          0  dtACCESS:          0  dtHIT:          0  dtMISS:          0
cpu0_L1D TRANSLATION  ACCESS:     572627  HIT:      33311  MISS:     539316  iACCESS:          0  iHIT:          0  iMISS:          0  dACCESS:          0  dHIT:          0  dMISS:          0  itACCESS:     133919  itHIT:      14436  itMISS:     119483  dtACCESS:     438708  dtHIT:      18875  dtMISS:     419833
cpu0_L1D PREFETCH  REQUESTED:   20447585  ISSUED:   18537985  CROSSED:          0  USEFUL:     359947  USELESS:     938602
cpu0_L1D AVERAGE iMISS LATENCY: 0 cycles
cpu0_L1D AVERAGE dMISS LATENCY: 48.5558 cycles
cpu0_L1D AVERAGE itMISS LATENCY: 2.15861 cycles
cpu0_L1D AVERAGE dtMISS LATENCY: 6.88296 cycles
cpu0_L1D PAGE CROSSINGS (TLB HIT):         0 
cpu0_L1D PAGE CROSSINGS (TLB MISS):         0 
cpu0_L1D AVERAGE MISS LATENCY: 57.5974 cycles
cpu0_L2C TOTAL       ACCESS:    8695054  HIT:    1533977  MISS:    7161077  iACCESS:    3811220  iHIT:     801579  iMISS:    3009641  dACCESS:    4381376  dHIT:     537955  dMISS:    3843421  itACCESS:     116742  itHIT:      39349  itMISS:      77393  dtACCESS:     385716  dtHIT:     155094  dtMISS:     230622
cpu0_L2C LOAD         ACCESS:    2067255  HIT:     208322  MISS:    1858933  iACCESS:     847795  iHIT:     114803  iMISS:     732992  dACCESS:    1219460  dHIT:      93519  dMISS:    1125941  itACCESS:          0  itHIT:          0  itMISS:          0  dtACCESS:          0  dtHIT:          0  dtMISS:          0
cpu0_L2C RFO          ACCESS:     216648  HIT:      26560  MISS:     190088  iACCESS:          0  iHIT:          0  iMISS:          0  dACCESS:     216648  dHIT:      26560  dMISS:     190088  itACCESS:          0  itHIT:          0  itMISS:          0  dtACCESS:          0  dtHIT:          0  dtMISS:          0
cpu0_L2C PREFETCH     ACCESS:    5563233  HIT:    1002930  MISS:    4560303  iACCESS:    2963425  iHIT:     686776  iMISS:    2276649  dACCESS:    2599808  dHIT:     316154  dMISS:    2283654  itACCESS:          0  itHIT:          0  itMISS:          0  dtACCESS:          0  dtHIT:          0  dtMISS:          0
cpu0_L2C WRITE        ACCESS:     345460  HIT:     101722  MISS:     243738  iACCESS:          0  iHIT:          0  iMISS:          0  dACCESS:     345460  dHIT:     101722  dMISS:     243738  itACCESS:          0  itHIT:          0  itMISS:          0  dtACCESS:          0  dtHIT:          0  dtMISS:          0
cpu0_L2C TRANSLATION  ACCESS:     502458  HIT:     194443  MISS:     308015  iACCESS:          0  iHIT:          0  iMISS:          0  dACCESS:          0  dHIT:          0  dMISS:          0  itACCESS:     116742  itHIT:      39349  itMISS:      77393  dtACCESS:     385716  dtHIT:     155094  dtMISS:     230622
cpu0_L2C PREFETCH  REQUESTED:    1543222  ISSUED:    1543215  CROSSED:          0  USEFUL:     412434  USELESS:     493978
cpu0_L2C AVERAGE iMISS LATENCY: 27.1956 cycles
cpu0_L2C AVERAGE dMISS LATENCY: 51.3231 cycles
cpu0_L2C AVERAGE itMISS LATENCY: 1.69227 cycles
cpu0_L2C AVERAGE dtMISS LATENCY: 5.38036 cycles
cpu0_L2C PAGE CROSSINGS (TLB HIT):         0 
cpu0_L2C PAGE CROSSINGS (TLB MISS):         0 
cpu0_L2C AVERAGE MISS LATENCY: 85.5913 cycles
LLC TOTAL       ACCESS:    6968906  HIT:    4167045  MISS:    2801861  iACCESS:    2916284  iHIT:    2041442  iMISS:     874842  dACCESS:    3744607  dHIT:    2054676  dMISS:    1689931  itACCESS:      77393  itHIT:      18188  itMISS:      59205  dtACCESS:     230622  dtHIT:      52739  dtMISS:     177883
LLC LOAD         ACCESS:    1851191  HIT:    1173528  MISS:     677663  iACCESS:     731654  iHIT:     546041  iMISS:     185613  dACCESS:    1119537  dHIT:     627487  dMISS:     492050  itACCESS:          0  itHIT:          0  itMISS:          0  dtACCESS:          0  dtHIT:          0  dtMISS:          0
LLC RFO          ACCESS:     190077  HIT:      94919  MISS:      95158  iACCESS:          0  iHIT:          0  iMISS:          0  dACCESS:     190077  dHIT:      94919  dMISS:      95158  itACCESS:          0  itHIT:          0  itMISS:          0  dtACCESS:          0  dtHIT:          0  dtMISS:          0
LLC PREFETCH     ACCESS:    4341524  HIT:    2556815  MISS:    1784709  iACCESS:    2184630  iHIT:    1495401  iMISS:     689229  dACCESS:    2156894  dHIT:    1061414  dMISS:    1095480  itACCESS:          0  itHIT:          0  itMISS:          0  dtACCESS:          0  dtHIT:          0  dtMISS:          0
LLC WRITE        ACCESS:     278099  HIT:     270856  MISS:       7243  iACCESS:          0  iHIT:          0  iMISS:          0  dACCESS:     278099  dHIT:     270856  dMISS:       7243  itACCESS:          0  itHIT:          0  itMISS:          0  dtACCESS:          0  dtHIT:          0  dtMISS:          0
LLC TRANSLATION  ACCESS:     308015  HIT:      70927  MISS:     237088  iACCESS:          0  iHIT:          0  iMISS:          0  dACCESS:          0  dHIT:          0  dMISS:          0  itACCESS:      77393  itHIT:      18188  itMISS:      59205  dtACCESS:     230622  dtHIT:      52739  dtMISS:     177883
LLC PREFETCH  REQUESTED:          0  ISSUED:          0  CROSSED:          0  USEFUL:          0  USELESS:          0
LLC AVERAGE iMISS LATENCY: 49.2878 cycles
LLC AVERAGE dMISS LATENCY: 108.283 cycles
LLC AVERAGE itMISS LATENCY: 3.78105 cycles
LLC AVERAGE dtMISS LATENCY: 12.13 cycles
LLC PAGE CROSSINGS (TLB HIT):         0 
LLC PAGE CROSSINGS (TLB MISS):         0 
LLC AVERAGE MISS LATENCY: 173.482 cycles

PageTableWalker TOTAL       ACCESS:     147239  
PageTableWalker AVERAGE LATENCY: 5.90561 cycles
PageTableWalker TOTAL LATENCY: 869536 cycles

DRAM Statistics
Channel 0
 RQ ROW_BUFFER_HIT:     603060
  ROW_BUFFER_MISS:    2169325
 AVG DBUS CONGESTED CYCLE:    3.65531
 WQ ROW_BUFFER_HIT:      69038
  ROW_BUFFER_MISS:      66077  FULL:          0

