last_page:0x200000000000000
VMEM_RES_CAP:0x100000
PAGE_SIZE:4096
LOG2_PAGE_SIZE:12
LOG2_PAGE_TABLE_SIZE:9
page_table_levels:5
WARNING: physical memory size is smaller than virtual memory size
FDiP enabled with aggresivity 16

*** ChampSim Multicore Out-of-Order Simulator ***

Warmup Instructions: 50000000
Simulation Instructions: 100000000
Number of CPUs: 1
Small page size: 4096
Large page size: 2097152

CPU 0 Bimodal branch predictor
Basic BTB sets: 1024 ways: 8 indirect buffer size: 4096 RAS size: 64
Instruction page size distrubution: 0
Loading instruction page size distribution from /home/bsc/bsc018186/scratch/itp_asplos25_AE/dump/smt_srv12_ap_srv298_ap_1024i.pdst
Data page size distrubution: 0
Loading data page size distribution from /home/bsc/bsc018186/scratch/itp_asplos25_AE/dump/smt_srv12_ap_srv298_ap_1024i.pdst
cpu0_L2C IP-based stride prefetcher
cpu0_L2C is using xPTP/LRU
	TLB_LOWER_STRESS_THRESHOLD:1
	TLB_UPPER_STRESS_THRESHOLD:4
	MIN_EVICTION_POSITION:4
cpu0_L1D next line prefetcher
cpu0_STLB using iTP with max lru@8
cpu0_STLB using iTP with instr@0 and data@2
Init sat counter with 3 bits (max:50).
cpu0_L1I next line prefetcher
Off-chip DRAM Size: 4 GiB Channels: 1 Width: 64-bit Data Rate: 3200 MT/s
Heartbeat CPU 0 instructions: 10000000 cycles: 2500249 heartbeat IPC: 3.99961 cumulative IPC: 3.99961 (Simulation time: 0 hr 0 min 37 sec) 
Heartbeat CPU 0 instructions: 20000003 cycles: 5000342 heartbeat IPC: 3.99986 cumulative IPC: 3.99973 (Simulation time: 0 hr 1 min 16 sec) 
Heartbeat CPU 0 instructions: 30000000 cycles: 7501090 heartbeat IPC: 3.99881 cumulative IPC: 3.99942 (Simulation time: 0 hr 1 min 56 sec) 
Heartbeat CPU 0 instructions: 40000000 cycles: 10001237 heartbeat IPC: 3.99977 cumulative IPC: 3.99951 (Simulation time: 0 hr 2 min 35 sec) 
Heartbeat CPU 0 instructions: 50000002 cycles: 12501309 heartbeat IPC: 3.99989 cumulative IPC: 3.99959 (Simulation time: 0 hr 3 min 15 sec) 
Warmup finished CPU 0 instructions: 50000002 cycles: 12501310 cumulative IPC: 3.99959 (Simulation time: 0 hr 3 min 15 sec) 

Warmup complete CPU 0 instructions: 50000002 cycles: 12501310 (Simulation time: 0 hr 3 min 15 sec) 

Heartbeat CPU 0 instructions: 60000003 cycles: 38919716 heartbeat IPC: 0.378524 cumulative IPC: 0.378525 (Simulation time: 0 hr 4 min 34 sec) 
Heartbeat CPU 0 instructions: 70000001 cycles: 64819172 heartbeat IPC: 0.386109 cumulative IPC: 0.382279 (Simulation time: 0 hr 5 min 52 sec) 
Heartbeat CPU 0 instructions: 80000001 cycles: 90891031 heartbeat IPC: 0.383556 cumulative IPC: 0.382704 (Simulation time: 0 hr 7 min 10 sec) 
Heartbeat CPU 0 instructions: 90000000 cycles: 114856628 heartbeat IPC: 0.417265 cumulative IPC: 0.390796 (Simulation time: 0 hr 8 min 25 sec) 
Heartbeat CPU 0 instructions: 100000000 cycles: 140661583 heartbeat IPC: 0.387523 cumulative IPC: 0.390137 (Simulation time: 0 hr 9 min 43 sec) 
Heartbeat CPU 0 instructions: 110000003 cycles: 166880356 heartbeat IPC: 0.381407 cumulative IPC: 0.388654 (Simulation time: 0 hr 11 min 1 sec) 
Heartbeat CPU 0 instructions: 120000000 cycles: 192269468 heartbeat IPC: 0.39387 cumulative IPC: 0.389391 (Simulation time: 0 hr 12 min 19 sec) 
Heartbeat CPU 0 instructions: 130000003 cycles: 219572651 heartbeat IPC: 0.366258 cumulative IPC: 0.386341 (Simulation time: 0 hr 13 min 39 sec) 
Heartbeat CPU 0 instructions: 140000000 cycles: 246300293 heartbeat IPC: 0.374145 cumulative IPC: 0.384947 (Simulation time: 0 hr 14 min 58 sec) 
Heartbeat CPU 0 instructions: 150000002 cycles: 273260307 heartbeat IPC: 0.37092 cumulative IPC: 0.383496 (Simulation time: 0 hr 16 min 17 sec) 
Simulation finished CPU 0 instructions: 100000000 cycles: 260758998 cumulative IPC: 0.383496 (Simulation time: 0 hr 16 min 17 sec) 

Simulation complete CPU 0 instructions: 100000000 cycles: 260758998 (Simulation time: 0 hr 16 min 17 sec) 


ChampSim completed all CPUs

Saving instructions large page distribution to /home/bsc/bsc018186/scratch/itp_asplos25_AE/dump/smt_srv12_ap_srv298_ap_1024i.pdst...
Saving data large page distribution to /home/bsc/bsc018186/scratch/itp_asplos25_AE/dump/smt_srv12_ap_srv298_ap_1024i.pdst...
=== Simulation ===
CPU 0 runs /gpfs/projects/bsc18/MN4/bsc18/romol/ChampSim/traces/qualcomm_srv/smt_srv12_ap_srv298_ap_1024i.champsimtrace.xz

Region of Interest Statistics

CPU 0 cumulative IPC: 0.383496 instructions: 100000000 cycles: 260758998
CPU 0 Branch Prediction Accuracy: 75.6528% MPKI: 44.0521 Average ROB Occupancy at Mispredict: 11.0073
Branch type MPKI
BRANCH_DIRECT_JUMP: 1.33332
BRANCH_INDIRECT: 22.7363
BRANCH_CONDITIONAL: 12.9124
BRANCH_DIRECT_CALL: 2.56734
BRANCH_INDIRECT_CALL: 1.05551
BRANCH_RETURN: 3.44726

Instructions large pages: 0
Instructions small pages: 14944
Large page distribution for instructions: 0%

Data large pages: 0
Data small pages: 13231
Large page distribution for data: 0%

cpu0_L1I TOTAL       ACCESS:   39132247  HIT:   30246759  MISS:    8885488  iACCESS:   39132247  iHIT:   30246759  iMISS:    8885488  dACCESS:          0  dHIT:          0  dMISS:          0  itACCESS:          0  itHIT:          0  itMISS:          0  dtACCESS:          0  dtHIT:          0  dtMISS:          0
cpu0_L1I LOAD         ACCESS:   11668226  HIT:    9245281  MISS:    2422945  iACCESS:   11668226  iHIT:    9245281  iMISS:    2422945  dACCESS:          0  dHIT:          0  dMISS:          0  itACCESS:          0  itHIT:          0  itMISS:          0  dtACCESS:          0  dtHIT:          0  dtMISS:          0
cpu0_L1I RFO          ACCESS:          0  HIT:          0  MISS:          0  iACCESS:          0  iHIT:          0  iMISS:          0  dACCESS:          0  dHIT:          0  dMISS:          0  itACCESS:          0  itHIT:          0  itMISS:          0  dtACCESS:          0  dtHIT:          0  dtMISS:          0
cpu0_L1I PREFETCH     ACCESS:   27464021  HIT:   21001478  MISS:    6462543  iACCESS:   27464021  iHIT:   21001478  iMISS:    6462543  dACCESS:          0  dHIT:          0  dMISS:          0  itACCESS:          0  itHIT:          0  itMISS:          0  dtACCESS:          0  dtHIT:          0  dtMISS:          0
cpu0_L1I WRITE        ACCESS:          0  HIT:          0  MISS:          0  iACCESS:          0  iHIT:          0  iMISS:          0  dACCESS:          0  dHIT:          0  dMISS:          0  itACCESS:          0  itHIT:          0  itMISS:          0  dtACCESS:          0  dtHIT:          0  dtMISS:          0
cpu0_L1I TRANSLATION  ACCESS:          0  HIT:          0  MISS:          0  iACCESS:          0  iHIT:          0  iMISS:          0  dACCESS:          0  dHIT:          0  dMISS:          0  itACCESS:          0  itHIT:          0  itMISS:          0  dtACCESS:          0  dtHIT:          0  dtMISS:          0
cpu0_L1I PREFETCH  REQUESTED:   30168534  ISSUED:   30168326  CROSSED:          0  USEFUL:    2193934  USELESS:     757948
cpu0_L1I AVERAGE iMISS LATENCY: 22.0642 cycles
cpu0_L1I AVERAGE dMISS LATENCY: 0 cycles
cpu0_L1I AVERAGE itMISS LATENCY: 0 cycles
cpu0_L1I AVERAGE dtMISS LATENCY: 0 cycles
cpu0_L1I PAGE CROSSINGS (TLB HIT):         0 
cpu0_L1I PAGE CROSSINGS (TLB MISS):         0 
cpu0_L1I AVERAGE MISS LATENCY: 22.0642 cycles
cpu0_ITLB TOTAL       ACCESS:   33033714  HIT:   30838551  MISS:    2195163  iACCESS:   33033714  iHIT:   30838551  iMISS:    2195163  dACCESS:          0  dHIT:          0  dMISS:          0  itACCESS:          0  itHIT:          0  itMISS:          0  dtACCESS:          0  dtHIT:          0  dtMISS:          0
cpu0_ITLB LOAD         ACCESS:   33033714  HIT:   30838551  MISS:    2195163  iACCESS:   33033714  iHIT:   30838551  iMISS:    2195163  dACCESS:          0  dHIT:          0  dMISS:          0  itACCESS:          0  itHIT:          0  itMISS:          0  dtACCESS:          0  dtHIT:          0  dtMISS:          0
cpu0_ITLB RFO          ACCESS:          0  HIT:          0  MISS:          0  iACCESS:          0  iHIT:          0  iMISS:          0  dACCESS:          0  dHIT:          0  dMISS:          0  itACCESS:          0  itHIT:          0  itMISS:          0  dtACCESS:          0  dtHIT:          0  dtMISS:          0
cpu0_ITLB PREFETCH     ACCESS:          0  HIT:          0  MISS:          0  iACCESS:          0  iHIT:          0  iMISS:          0  dACCESS:          0  dHIT:          0  dMISS:          0  itACCESS:          0  itHIT:          0  itMISS:          0  dtACCESS:          0  dtHIT:          0  dtMISS:          0
cpu0_ITLB WRITE        ACCESS:          0  HIT:          0  MISS:          0  iACCESS:          0  iHIT:          0  iMISS:          0  dACCESS:          0  dHIT:          0  dMISS:          0  itACCESS:          0  itHIT:          0  itMISS:          0  dtACCESS:          0  dtHIT:          0  dtMISS:          0
cpu0_ITLB TRANSLATION  ACCESS:          0  HIT:          0  MISS:          0  iACCESS:          0  iHIT:          0  iMISS:          0  dACCESS:          0  dHIT:          0  dMISS:          0  itACCESS:          0  itHIT:          0  itMISS:          0  dtACCESS:          0  dtHIT:          0  dtMISS:          0
cpu0_ITLB PREFETCH  REQUESTED:          0  ISSUED:          0  CROSSED:          0  USEFUL:     386941  USELESS:      77688
cpu0_ITLB AVERAGE iMISS LATENCY: 5.63062 cycles
cpu0_ITLB AVERAGE dMISS LATENCY: 0 cycles
cpu0_ITLB AVERAGE itMISS LATENCY: 0 cycles
cpu0_ITLB AVERAGE dtMISS LATENCY: 0 cycles
cpu0_ITLB PAGE CROSSINGS (TLB HIT):         0 
cpu0_ITLB PAGE CROSSINGS (TLB MISS):         0 
cpu0_ITLB AVERAGE MISS LATENCY: 5.63062 cycles
cpu0_DTLB TOTAL       ACCESS:   28909267  HIT:   25298344  MISS:    3610923  iACCESS:          0  iHIT:          0  iMISS:          0  dACCESS:   28909267  dHIT:   25298344  dMISS:    3610923  itACCESS:          0  itHIT:          0  itMISS:          0  dtACCESS:          0  dtHIT:          0  dtMISS:          0
cpu0_DTLB LOAD         ACCESS:   28909267  HIT:   25298344  MISS:    3610923  iACCESS:          0  iHIT:          0  iMISS:          0  dACCESS:   28909267  dHIT:   25298344  dMISS:    3610923  itACCESS:          0  itHIT:          0  itMISS:          0  dtACCESS:          0  dtHIT:          0  dtMISS:          0
cpu0_DTLB RFO          ACCESS:          0  HIT:          0  MISS:          0  iACCESS:          0  iHIT:          0  iMISS:          0  dACCESS:          0  dHIT:          0  dMISS:          0  itACCESS:          0  itHIT:          0  itMISS:          0  dtACCESS:          0  dtHIT:          0  dtMISS:          0
cpu0_DTLB PREFETCH     ACCESS:          0  HIT:          0  MISS:          0  iACCESS:          0  iHIT:          0  iMISS:          0  dACCESS:          0  dHIT:          0  dMISS:          0  itACCESS:          0  itHIT:          0  itMISS:          0  dtACCESS:          0  dtHIT:          0  dtMISS:          0
cpu0_DTLB WRITE        ACCESS:          0  HIT:          0  MISS:          0  iACCESS:          0  iHIT:          0  iMISS:          0  dACCESS:          0  dHIT:          0  dMISS:          0  itACCESS:          0  itHIT:          0  itMISS:          0  dtACCESS:          0  dtHIT:          0  dtMISS:          0
cpu0_DTLB TRANSLATION  ACCESS:          0  HIT:          0  MISS:          0  iACCESS:          0  iHIT:          0  iMISS:          0  dACCESS:          0  dHIT:          0  dMISS:          0  itACCESS:          0  itHIT:          0  itMISS:          0  dtACCESS:          0  dtHIT:          0  dtMISS:          0
cpu0_DTLB PREFETCH  REQUESTED:          0  ISSUED:          0  CROSSED:          0  USEFUL:          0  USELESS:          0
cpu0_DTLB AVERAGE iMISS LATENCY: 0 cycles
cpu0_DTLB AVERAGE dMISS LATENCY: 17.9593 cycles
cpu0_DTLB AVERAGE itMISS LATENCY: 0 cycles
cpu0_DTLB AVERAGE dtMISS LATENCY: 0 cycles
cpu0_DTLB PAGE CROSSINGS (TLB HIT):         0 
cpu0_DTLB PAGE CROSSINGS (TLB MISS):         0 
cpu0_DTLB AVERAGE MISS LATENCY: 17.9593 cycles
cpu0_STLB TOTAL       ACCESS:    2560102  HIT:    2204980  MISS:     355122  iACCESS:     464637  iHIT:     409510  iMISS:      55127  dACCESS:    2095465  dHIT:    1795470  dMISS:     299995  itACCESS:          0  itHIT:          0  itMISS:          0  dtACCESS:          0  dtHIT:          0  dtMISS:          0
cpu0_STLB LOAD         ACCESS:    2560102  HIT:    2204980  MISS:     355122  iACCESS:     464637  iHIT:     409510  iMISS:      55127  dACCESS:    2095465  dHIT:    1795470  dMISS:     299995  itACCESS:          0  itHIT:          0  itMISS:          0  dtACCESS:          0  dtHIT:          0  dtMISS:          0
cpu0_STLB RFO          ACCESS:          0  HIT:          0  MISS:          0  iACCESS:          0  iHIT:          0  iMISS:          0  dACCESS:          0  dHIT:          0  dMISS:          0  itACCESS:          0  itHIT:          0  itMISS:          0  dtACCESS:          0  dtHIT:          0  dtMISS:          0
cpu0_STLB PREFETCH     ACCESS:          0  HIT:          0  MISS:          0  iACCESS:          0  iHIT:          0  iMISS:          0  dACCESS:          0  dHIT:          0  dMISS:          0  itACCESS:          0  itHIT:          0  itMISS:          0  dtACCESS:          0  dtHIT:          0  dtMISS:          0
cpu0_STLB WRITE        ACCESS:          0  HIT:          0  MISS:          0  iACCESS:          0  iHIT:          0  iMISS:          0  dACCESS:          0  dHIT:          0  dMISS:          0  itACCESS:          0  itHIT:          0  itMISS:          0  dtACCESS:          0  dtHIT:          0  dtMISS:          0
cpu0_STLB TRANSLATION  ACCESS:          0  HIT:          0  MISS:          0  iACCESS:          0  iHIT:          0  iMISS:          0  dACCESS:          0  dHIT:          0  dMISS:          0  itACCESS:          0  itHIT:          0  itMISS:          0  dtACCESS:          0  dtHIT:          0  dtMISS:          0
cpu0_STLB PREFETCH  REQUESTED:          0  ISSUED:          0  CROSSED:          0  USEFUL:          0  USELESS:          0
cpu0_STLB AVERAGE iMISS LATENCY: 24.5267 cycles
cpu0_STLB AVERAGE dMISS LATENCY: 135.051 cycles
cpu0_STLB AVERAGE itMISS LATENCY: 0 cycles
cpu0_STLB AVERAGE dtMISS LATENCY: 0 cycles
cpu0_STLB PAGE CROSSINGS (TLB HIT):         0 
cpu0_STLB PAGE CROSSINGS (TLB MISS):         0 
cpu0_STLB AVERAGE MISS LATENCY: 159.578 cycles
cpu0_L1D TOTAL       ACCESS:   44528396  HIT:   39170510  MISS:    5357886  iACCESS:          0  iHIT:          0  iMISS:          0  dACCESS:   43979093  dHIT:   39141038  dMISS:    4838055  itACCESS:      65695  itHIT:       5766  itMISS:      59929  dtACCESS:     483608  dtHIT:      23706  dtMISS:     459902
cpu0_L1D LOAD         ACCESS:   20084779  HIT:   17929888  MISS:    2154891  iACCESS:          0  iHIT:          0  iMISS:          0  dACCESS:   20084779  dHIT:   17929888  dMISS:    2154891  itACCESS:          0  itHIT:          0  itMISS:          0  dtACCESS:          0  dtHIT:          0  dtMISS:          0
cpu0_L1D RFO          ACCESS:          0  HIT:          0  MISS:          0  iACCESS:          0  iHIT:          0  iMISS:          0  dACCESS:          0  dHIT:          0  dMISS:          0  itACCESS:          0  itHIT:          0  itMISS:          0  dtACCESS:          0  dtHIT:          0  dtMISS:          0
cpu0_L1D PREFETCH     ACCESS:   13706550  HIT:   11586644  MISS:    2119906  iACCESS:          0  iHIT:          0  iMISS:          0  dACCESS:   13706550  dHIT:   11586644  dMISS:    2119906  itACCESS:          0  itHIT:          0  itMISS:          0  dtACCESS:          0  dtHIT:          0  dtMISS:          0
cpu0_L1D WRITE        ACCESS:   10187764  HIT:    9624506  MISS:     563258  iACCESS:          0  iHIT:          0  iMISS:          0  dACCESS:   10187764  dHIT:    9624506  dMISS:     563258  itACCESS:          0  itHIT:          0  itMISS:          0  dtACCESS:          0  dtHIT:          0  dtMISS:          0
cpu0_L1D TRANSLATION  ACCESS:     549303  HIT:      29472  MISS:     519831  iACCESS:          0  iHIT:          0  iMISS:          0  dACCESS:          0  dHIT:          0  dMISS:          0  itACCESS:      65695  itHIT:       5766  itMISS:      59929  dtACCESS:     483608  dtHIT:      23706  dtMISS:     459902
cpu0_L1D PREFETCH  REQUESTED:   20084779  ISSUED:   18409833  CROSSED:          0  USEFUL:     359997  USELESS:     928900
cpu0_L1D AVERAGE iMISS LATENCY: 0 cycles
cpu0_L1D AVERAGE dMISS LATENCY: 48.5063 cycles
cpu0_L1D AVERAGE itMISS LATENCY: 1.50234 cycles
cpu0_L1D AVERAGE dtMISS LATENCY: 7.88305 cycles
cpu0_L1D PAGE CROSSINGS (TLB HIT):         0 
cpu0_L1D PAGE CROSSINGS (TLB MISS):         0 
cpu0_L1D AVERAGE MISS LATENCY: 57.8917 cycles
cpu0_L2C TOTAL       ACCESS:    8545666  HIT:    2530458  MISS:    6015208  iACCESS:    3750793  iHIT:    1419509  iMISS:    2331284  dACCESS:    4303171  dHIT:     881174  dMISS:    3421997  itACCESS:      59235  itHIT:      14883  itMISS:      44352  dtACCESS:     432467  dtHIT:     214892  dtMISS:     217575
cpu0_L2C LOAD         ACCESS:    2037148  HIT:     492742  MISS:    1544406  iACCESS:     835648  iHIT:     285040  iMISS:     550608  dACCESS:    1201500  dHIT:     207702  dMISS:     993798  itACCESS:          0  itHIT:          0  itMISS:          0  dtACCESS:          0  dtHIT:          0  dtMISS:          0
cpu0_L2C RFO          ACCESS:     209057  HIT:      29899  MISS:     179158  iACCESS:          0  iHIT:          0  iMISS:          0  dACCESS:     209057  dHIT:      29899  dMISS:     179158  itACCESS:          0  itHIT:          0  itMISS:          0  dtACCESS:          0  dtHIT:          0  dtMISS:          0
cpu0_L2C PREFETCH     ACCESS:    5463359  HIT:    1651785  MISS:    3811574  iACCESS:    2915145  iHIT:    1134469  iMISS:    1780676  dACCESS:    2548214  dHIT:     517316  dMISS:    2030898  itACCESS:          0  itHIT:          0  itMISS:          0  dtACCESS:          0  dtHIT:          0  dtMISS:          0
cpu0_L2C WRITE        ACCESS:     344400  HIT:     126257  MISS:     218143  iACCESS:          0  iHIT:          0  iMISS:          0  dACCESS:     344400  dHIT:     126257  dMISS:     218143  itACCESS:          0  itHIT:          0  itMISS:          0  dtACCESS:          0  dtHIT:          0  dtMISS:          0
cpu0_L2C TRANSLATION  ACCESS:     491702  HIT:     229775  MISS:     261927  iACCESS:          0  iHIT:          0  iMISS:          0  dACCESS:          0  dHIT:          0  dMISS:          0  itACCESS:      59235  itHIT:      14883  itMISS:      44352  dtACCESS:     432467  dtHIT:     214892  dtMISS:     217575
cpu0_L2C PREFETCH  REQUESTED:    1498199  ISSUED:    1498199  CROSSED:          0  USEFUL:     377925  USELESS:     433316
cpu0_L2C AVERAGE iMISS LATENCY: 27.2665 cycles
cpu0_L2C AVERAGE dMISS LATENCY: 52.9527 cycles
cpu0_L2C AVERAGE itMISS LATENCY: 1.2419 cycles
cpu0_L2C AVERAGE dtMISS LATENCY: 6.3352 cycles
cpu0_L2C PAGE CROSSINGS (TLB HIT):         0 
cpu0_L2C PAGE CROSSINGS (TLB MISS):         0 
cpu0_L2C AVERAGE MISS LATENCY: 87.7962 cycles
LLC TOTAL       ACCESS:    5872232  HIT:    3407525  MISS:    2464707  iACCESS:    2244542  iHIT:    1474706  iMISS:     769836  dACCESS:    3365763  dHIT:    1888026  dMISS:    1477737  itACCESS:      44352  itHIT:       7405  itMISS:      36947  dtACCESS:     217575  dtHIT:      37388  dtMISS:     180187
LLC LOAD         ACCESS:    1539371  HIT:     954101  MISS:     585270  iACCESS:     549272  iHIT:     390314  iMISS:     158958  dACCESS:     990099  dHIT:     563787  dMISS:     426312  itACCESS:          0  itHIT:          0  itMISS:          0  dtACCESS:          0  dtHIT:          0  dtMISS:          0
LLC RFO          ACCESS:     179148  HIT:      95446  MISS:      83702  iACCESS:          0  iHIT:          0  iMISS:          0  dACCESS:     179148  dHIT:      95446  dMISS:      83702  itACCESS:          0  itHIT:          0  itMISS:          0  dtACCESS:          0  dtHIT:          0  dtMISS:          0
LLC PREFETCH     ACCESS:    3616880  HIT:    2042948  MISS:    1573932  iACCESS:    1695270  iHIT:    1084392  iMISS:     610878  dACCESS:    1921610  dHIT:     958556  dMISS:     963054  itACCESS:          0  itHIT:          0  itMISS:          0  dtACCESS:          0  dtHIT:          0  dtMISS:          0
LLC WRITE        ACCESS:     274906  HIT:     270237  MISS:       4669  iACCESS:          0  iHIT:          0  iMISS:          0  dACCESS:     274906  dHIT:     270237  dMISS:       4669  itACCESS:          0  itHIT:          0  itMISS:          0  dtACCESS:          0  dtHIT:          0  dtMISS:          0
LLC TRANSLATION  ACCESS:     261927  HIT:      44793  MISS:     217134  iACCESS:          0  iHIT:          0  iMISS:          0  dACCESS:          0  dHIT:          0  dMISS:          0  itACCESS:      44352  itHIT:       7405  itMISS:      36947  dtACCESS:     217575  dtHIT:      37388  dtMISS:     180187
LLC PREFETCH  REQUESTED:          0  ISSUED:          0  CROSSED:          0  USEFUL:          0  USELESS:          0
LLC AVERAGE iMISS LATENCY: 48.8359 cycles
LLC AVERAGE dMISS LATENCY: 105.49 cycles
LLC AVERAGE itMISS LATENCY: 2.67554 cycles
LLC AVERAGE dtMISS LATENCY: 13.718 cycles
LLC PAGE CROSSINGS (TLB HIT):         0 
LLC PAGE CROSSINGS (TLB MISS):         0 
LLC AVERAGE MISS LATENCY: 170.72 cycles

PageTableWalker TOTAL       ACCESS:     170729  
PageTableWalker AVERAGE LATENCY: 5.99478 cycles
PageTableWalker TOTAL LATENCY: 1023482 cycles

DRAM Statistics
Channel 0
 RQ ROW_BUFFER_HIT:     566245
  ROW_BUFFER_MISS:    1884194
 AVG DBUS CONGESTED CYCLE:    3.65178
 WQ ROW_BUFFER_HIT:      62355
  ROW_BUFFER_MISS:      60388  FULL:          0

