last_page:0x200000000000000
VMEM_RES_CAP:0x100000
PAGE_SIZE:4096
LOG2_PAGE_SIZE:12
LOG2_PAGE_TABLE_SIZE:9
page_table_levels:5
WARNING: physical memory size is smaller than virtual memory size
FDiP enabled with aggresivity 16

*** ChampSim Multicore Out-of-Order Simulator ***

Warmup Instructions: 50000000
Simulation Instructions: 100000000
Number of CPUs: 1
Small page size: 4096
Large page size: 2097152

CPU 0 Bimodal branch predictor
Basic BTB sets: 1024 ways: 8 indirect buffer size: 4096 RAS size: 64
Instruction page size distrubution: 0
Loading instruction page size distribution from /home/bsc/bsc018186/scratch/itp_asplos25_AE/dump/smt_srv540_ap_srv180_ap_1024i.pdst
Data page size distrubution: 0
Loading data page size distribution from /home/bsc/bsc018186/scratch/itp_asplos25_AE/dump/smt_srv540_ap_srv180_ap_1024i.pdst
cpu0_L2C IP-based stride prefetcher
cpu0_L1D next line prefetcher
CHiRPing...
cpu0_L1I next line prefetcher
Off-chip DRAM Size: 4 GiB Channels: 1 Width: 64-bit Data Rate: 3200 MT/s
Heartbeat CPU 0 instructions: 10000000 cycles: 2500617 heartbeat IPC: 3.99902 cumulative IPC: 3.99902 (Simulation time: 0 hr 0 min 41 sec) 
Heartbeat CPU 0 instructions: 20000002 cycles: 5000800 heartbeat IPC: 3.99971 cumulative IPC: 3.99937 (Simulation time: 0 hr 1 min 25 sec) 
Heartbeat CPU 0 instructions: 30000000 cycles: 7501151 heartbeat IPC: 3.99944 cumulative IPC: 3.99939 (Simulation time: 0 hr 2 min 9 sec) 
Heartbeat CPU 0 instructions: 40000001 cycles: 10001376 heartbeat IPC: 3.99965 cumulative IPC: 3.99945 (Simulation time: 0 hr 2 min 54 sec) 
Heartbeat CPU 0 instructions: 50000000 cycles: 12501565 heartbeat IPC: 3.9997 cumulative IPC: 3.9995 (Simulation time: 0 hr 3 min 40 sec) 
Warmup finished CPU 0 instructions: 50000000 cycles: 12501566 cumulative IPC: 3.9995 (Simulation time: 0 hr 3 min 40 sec) 

Warmup complete CPU 0 instructions: 50000000 cycles: 12501566 (Simulation time: 0 hr 3 min 40 sec) 

Heartbeat CPU 0 instructions: 60000001 cycles: 41244597 heartbeat IPC: 0.347911 cumulative IPC: 0.347911 (Simulation time: 0 hr 5 min 9 sec) 
Heartbeat CPU 0 instructions: 70000001 cycles: 69032329 heartbeat IPC: 0.359872 cumulative IPC: 0.35379 (Simulation time: 0 hr 6 min 36 sec) 
Heartbeat CPU 0 instructions: 80000002 cycles: 98366602 heartbeat IPC: 0.340899 cumulative IPC: 0.349386 (Simulation time: 0 hr 8 min 4 sec) 
Heartbeat CPU 0 instructions: 90000000 cycles: 127166857 heartbeat IPC: 0.34722 cumulative IPC: 0.348842 (Simulation time: 0 hr 9 min 31 sec) 
Heartbeat CPU 0 instructions: 100000004 cycles: 156903893 heartbeat IPC: 0.336282 cumulative IPC: 0.346255 (Simulation time: 0 hr 10 min 59 sec) 
Heartbeat CPU 0 instructions: 110000000 cycles: 185547406 heartbeat IPC: 0.34912 cumulative IPC: 0.346729 (Simulation time: 0 hr 12 min 26 sec) 
Heartbeat CPU 0 instructions: 120000001 cycles: 214597248 heartbeat IPC: 0.344236 cumulative IPC: 0.346371 (Simulation time: 0 hr 13 min 53 sec) 
Heartbeat CPU 0 instructions: 130000000 cycles: 242611016 heartbeat IPC: 0.356968 cumulative IPC: 0.347661 (Simulation time: 0 hr 15 min 18 sec) 
Heartbeat CPU 0 instructions: 140000002 cycles: 271756811 heartbeat IPC: 0.343103 cumulative IPC: 0.347149 (Simulation time: 0 hr 16 min 45 sec) 
Heartbeat CPU 0 instructions: 150000001 cycles: 299386530 heartbeat IPC: 0.36193 cumulative IPC: 0.348572 (Simulation time: 0 hr 18 min 12 sec) 
Simulation finished CPU 0 instructions: 100000001 cycles: 286884965 cumulative IPC: 0.348572 (Simulation time: 0 hr 18 min 12 sec) 

Simulation complete CPU 0 instructions: 100000001 cycles: 286884965 (Simulation time: 0 hr 18 min 12 sec) 


ChampSim completed all CPUs

Saving instructions large page distribution to /home/bsc/bsc018186/scratch/itp_asplos25_AE/dump/smt_srv540_ap_srv180_ap_1024i.pdst...
Saving data large page distribution to /home/bsc/bsc018186/scratch/itp_asplos25_AE/dump/smt_srv540_ap_srv180_ap_1024i.pdst...
=== Simulation ===
CPU 0 runs /gpfs/projects/bsc18/MN4/bsc18/romol/ChampSim/traces/qualcomm_srv/smt_srv540_ap_srv180_ap_1024i.champsimtrace.xz

Region of Interest Statistics

CPU 0 cumulative IPC: 0.348572 instructions: 100000001 cycles: 286884965
CPU 0 Branch Prediction Accuracy: 75.9656% MPKI: 43.2063 Average ROB Occupancy at Mispredict: 11.4362
Branch type MPKI
BRANCH_DIRECT_JUMP: 1.30203
BRANCH_INDIRECT: 22.4852
BRANCH_CONDITIONAL: 12.5604
BRANCH_DIRECT_CALL: 2.49187
BRANCH_INDIRECT_CALL: 0.92576
BRANCH_RETURN: 3.44105

Instructions large pages: 0
Instructions small pages: 13008
Large page distribution for instructions: 0%

Data large pages: 0
Data small pages: 11794
Large page distribution for data: 0%

cpu0_L1I TOTAL       ACCESS:   39039114  HIT:   30427946  MISS:    8611168  iACCESS:   39039114  iHIT:   30427946  iMISS:    8611168  dACCESS:          0  dHIT:          0  dMISS:          0  itACCESS:          0  itHIT:          0  itMISS:          0  dtACCESS:          0  dtHIT:          0  dtMISS:          0
cpu0_L1I LOAD         ACCESS:   11750241  HIT:    9402033  MISS:    2348208  iACCESS:   11750241  iHIT:    9402033  iMISS:    2348208  dACCESS:          0  dHIT:          0  dMISS:          0  itACCESS:          0  itHIT:          0  itMISS:          0  dtACCESS:          0  dtHIT:          0  dtMISS:          0
cpu0_L1I RFO          ACCESS:          0  HIT:          0  MISS:          0  iACCESS:          0  iHIT:          0  iMISS:          0  dACCESS:          0  dHIT:          0  dMISS:          0  itACCESS:          0  itHIT:          0  itMISS:          0  dtACCESS:          0  dtHIT:          0  dtMISS:          0
cpu0_L1I PREFETCH     ACCESS:   27288873  HIT:   21025913  MISS:    6262960  iACCESS:   27288873  iHIT:   21025913  iMISS:    6262960  dACCESS:          0  dHIT:          0  dMISS:          0  itACCESS:          0  itHIT:          0  itMISS:          0  dtACCESS:          0  dtHIT:          0  dtMISS:          0
cpu0_L1I WRITE        ACCESS:          0  HIT:          0  MISS:          0  iACCESS:          0  iHIT:          0  iMISS:          0  dACCESS:          0  dHIT:          0  dMISS:          0  itACCESS:          0  itHIT:          0  itMISS:          0  dtACCESS:          0  dtHIT:          0  dtMISS:          0
cpu0_L1I TRANSLATION  ACCESS:          0  HIT:          0  MISS:          0  iACCESS:          0  iHIT:          0  iMISS:          0  dACCESS:          0  dHIT:          0  dMISS:          0  itACCESS:          0  itHIT:          0  itMISS:          0  dtACCESS:          0  dtHIT:          0  dtMISS:          0
cpu0_L1I PREFETCH  REQUESTED:   30181615  ISSUED:   30181595  CROSSED:          0  USEFUL:    2183248  USELESS:     746488
cpu0_L1I AVERAGE iMISS LATENCY: 23.1319 cycles
cpu0_L1I AVERAGE dMISS LATENCY: 0 cycles
cpu0_L1I AVERAGE itMISS LATENCY: 0 cycles
cpu0_L1I AVERAGE dtMISS LATENCY: 0 cycles
cpu0_L1I PAGE CROSSINGS (TLB HIT):         0 
cpu0_L1I PAGE CROSSINGS (TLB MISS):         0 
cpu0_L1I AVERAGE MISS LATENCY: 23.1319 cycles
cpu0_ITLB TOTAL       ACCESS:   32930711  HIT:   30749142  MISS:    2181569  iACCESS:   32930711  iHIT:   30749142  iMISS:    2181569  dACCESS:          0  dHIT:          0  dMISS:          0  itACCESS:          0  itHIT:          0  itMISS:          0  dtACCESS:          0  dtHIT:          0  dtMISS:          0
cpu0_ITLB LOAD         ACCESS:   32930711  HIT:   30749142  MISS:    2181569  iACCESS:   32930711  iHIT:   30749142  iMISS:    2181569  dACCESS:          0  dHIT:          0  dMISS:          0  itACCESS:          0  itHIT:          0  itMISS:          0  dtACCESS:          0  dtHIT:          0  dtMISS:          0
cpu0_ITLB RFO          ACCESS:          0  HIT:          0  MISS:          0  iACCESS:          0  iHIT:          0  iMISS:          0  dACCESS:          0  dHIT:          0  dMISS:          0  itACCESS:          0  itHIT:          0  itMISS:          0  dtACCESS:          0  dtHIT:          0  dtMISS:          0
cpu0_ITLB PREFETCH     ACCESS:          0  HIT:          0  MISS:          0  iACCESS:          0  iHIT:          0  iMISS:          0  dACCESS:          0  dHIT:          0  dMISS:          0  itACCESS:          0  itHIT:          0  itMISS:          0  dtACCESS:          0  dtHIT:          0  dtMISS:          0
cpu0_ITLB WRITE        ACCESS:          0  HIT:          0  MISS:          0  iACCESS:          0  iHIT:          0  iMISS:          0  dACCESS:          0  dHIT:          0  dMISS:          0  itACCESS:          0  itHIT:          0  itMISS:          0  dtACCESS:          0  dtHIT:          0  dtMISS:          0
cpu0_ITLB TRANSLATION  ACCESS:          0  HIT:          0  MISS:          0  iACCESS:          0  iHIT:          0  iMISS:          0  dACCESS:          0  dHIT:          0  dMISS:          0  itACCESS:          0  itHIT:          0  itMISS:          0  dtACCESS:          0  dtHIT:          0  dtMISS:          0
cpu0_ITLB PREFETCH  REQUESTED:          0  ISSUED:          0  CROSSED:          0  USEFUL:     380319  USELESS:      76759
cpu0_ITLB AVERAGE iMISS LATENCY: 9.89611 cycles
cpu0_ITLB AVERAGE dMISS LATENCY: 0 cycles
cpu0_ITLB AVERAGE itMISS LATENCY: 0 cycles
cpu0_ITLB AVERAGE dtMISS LATENCY: 0 cycles
cpu0_ITLB PAGE CROSSINGS (TLB HIT):         0 
cpu0_ITLB PAGE CROSSINGS (TLB MISS):         0 
cpu0_ITLB AVERAGE MISS LATENCY: 9.89611 cycles
cpu0_DTLB TOTAL       ACCESS:   28719850  HIT:   25047202  MISS:    3672648  iACCESS:          0  iHIT:          0  iMISS:          0  dACCESS:   28719850  dHIT:   25047202  dMISS:    3672648  itACCESS:          0  itHIT:          0  itMISS:          0  dtACCESS:          0  dtHIT:          0  dtMISS:          0
cpu0_DTLB LOAD         ACCESS:   28719850  HIT:   25047202  MISS:    3672648  iACCESS:          0  iHIT:          0  iMISS:          0  dACCESS:   28719850  dHIT:   25047202  dMISS:    3672648  itACCESS:          0  itHIT:          0  itMISS:          0  dtACCESS:          0  dtHIT:          0  dtMISS:          0
cpu0_DTLB RFO          ACCESS:          0  HIT:          0  MISS:          0  iACCESS:          0  iHIT:          0  iMISS:          0  dACCESS:          0  dHIT:          0  dMISS:          0  itACCESS:          0  itHIT:          0  itMISS:          0  dtACCESS:          0  dtHIT:          0  dtMISS:          0
cpu0_DTLB PREFETCH     ACCESS:          0  HIT:          0  MISS:          0  iACCESS:          0  iHIT:          0  iMISS:          0  dACCESS:          0  dHIT:          0  dMISS:          0  itACCESS:          0  itHIT:          0  itMISS:          0  dtACCESS:          0  dtHIT:          0  dtMISS:          0
cpu0_DTLB WRITE        ACCESS:          0  HIT:          0  MISS:          0  iACCESS:          0  iHIT:          0  iMISS:          0  dACCESS:          0  dHIT:          0  dMISS:          0  itACCESS:          0  itHIT:          0  itMISS:          0  dtACCESS:          0  dtHIT:          0  dtMISS:          0
cpu0_DTLB TRANSLATION  ACCESS:          0  HIT:          0  MISS:          0  iACCESS:          0  iHIT:          0  iMISS:          0  dACCESS:          0  dHIT:          0  dMISS:          0  itACCESS:          0  itHIT:          0  itMISS:          0  dtACCESS:          0  dtHIT:          0  dtMISS:          0
cpu0_DTLB PREFETCH  REQUESTED:          0  ISSUED:          0  CROSSED:          0  USEFUL:          0  USELESS:          0
cpu0_DTLB AVERAGE iMISS LATENCY: 0 cycles
cpu0_DTLB AVERAGE dMISS LATENCY: 23.7589 cycles
cpu0_DTLB AVERAGE itMISS LATENCY: 0 cycles
cpu0_DTLB AVERAGE dtMISS LATENCY: 0 cycles
cpu0_DTLB PAGE CROSSINGS (TLB HIT):         0 
cpu0_DTLB PAGE CROSSINGS (TLB MISS):         0 
cpu0_DTLB AVERAGE MISS LATENCY: 23.7589 cycles
cpu0_STLB TOTAL       ACCESS:    2582753  HIT:    2223403  MISS:     359350  iACCESS:     457082  iHIT:     350088  iMISS:     106994  dACCESS:    2125671  dHIT:    1873315  dMISS:     252356  itACCESS:          0  itHIT:          0  itMISS:          0  dtACCESS:          0  dtHIT:          0  dtMISS:          0
cpu0_STLB LOAD         ACCESS:    2582753  HIT:    2223403  MISS:     359350  iACCESS:     457082  iHIT:     350088  iMISS:     106994  dACCESS:    2125671  dHIT:    1873315  dMISS:     252356  itACCESS:          0  itHIT:          0  itMISS:          0  dtACCESS:          0  dtHIT:          0  dtMISS:          0
cpu0_STLB RFO          ACCESS:          0  HIT:          0  MISS:          0  iACCESS:          0  iHIT:          0  iMISS:          0  dACCESS:          0  dHIT:          0  dMISS:          0  itACCESS:          0  itHIT:          0  itMISS:          0  dtACCESS:          0  dtHIT:          0  dtMISS:          0
cpu0_STLB PREFETCH     ACCESS:          0  HIT:          0  MISS:          0  iACCESS:          0  iHIT:          0  iMISS:          0  dACCESS:          0  dHIT:          0  dMISS:          0  itACCESS:          0  itHIT:          0  itMISS:          0  dtACCESS:          0  dtHIT:          0  dtMISS:          0
cpu0_STLB WRITE        ACCESS:          0  HIT:          0  MISS:          0  iACCESS:          0  iHIT:          0  iMISS:          0  dACCESS:          0  dHIT:          0  dMISS:          0  itACCESS:          0  itHIT:          0  itMISS:          0  dtACCESS:          0  dtHIT:          0  dtMISS:          0
cpu0_STLB TRANSLATION  ACCESS:          0  HIT:          0  MISS:          0  iACCESS:          0  iHIT:          0  iMISS:          0  dACCESS:          0  dHIT:          0  dMISS:          0  itACCESS:          0  itHIT:          0  itMISS:          0  dtACCESS:          0  dtHIT:          0  dtMISS:          0
cpu0_STLB PREFETCH  REQUESTED:          0  ISSUED:          0  CROSSED:          0  USEFUL:          0  USELESS:          0
cpu0_STLB AVERAGE iMISS LATENCY: 49.9202 cycles
cpu0_STLB AVERAGE dMISS LATENCY: 195.242 cycles
cpu0_STLB AVERAGE itMISS LATENCY: 0 cycles
cpu0_STLB AVERAGE dtMISS LATENCY: 0 cycles
cpu0_STLB PAGE CROSSINGS (TLB HIT):         0 
cpu0_STLB PAGE CROSSINGS (TLB MISS):         0 
cpu0_STLB AVERAGE MISS LATENCY: 245.162 cycles
cpu0_L1D TOTAL       ACCESS:   44107405  HIT:   38926424  MISS:    5180981  iACCESS:          0  iHIT:          0  iMISS:          0  dACCESS:   43584015  dHIT:   38891902  dMISS:    4692113  itACCESS:     120400  itHIT:      14202  itMISS:     106198  dtACCESS:     402990  dtHIT:      20320  dtMISS:     382670
cpu0_L1D LOAD         ACCESS:   19909230  HIT:   17822549  MISS:    2086681  iACCESS:          0  iHIT:          0  iMISS:          0  dACCESS:   19909230  dHIT:   17822549  dMISS:    2086681  itACCESS:          0  itHIT:          0  itMISS:          0  dtACCESS:          0  dtHIT:          0  dtMISS:          0
cpu0_L1D RFO          ACCESS:          0  HIT:          0  MISS:          0  iACCESS:          0  iHIT:          0  iMISS:          0  dACCESS:          0  dHIT:          0  dMISS:          0  itACCESS:          0  itHIT:          0  itMISS:          0  dtACCESS:          0  dtHIT:          0  dtMISS:          0
cpu0_L1D PREFETCH     ACCESS:   13544793  HIT:   11485506  MISS:    2059287  iACCESS:          0  iHIT:          0  iMISS:          0  dACCESS:   13544793  dHIT:   11485506  dMISS:    2059287  itACCESS:          0  itHIT:          0  itMISS:          0  dtACCESS:          0  dtHIT:          0  dtMISS:          0
cpu0_L1D WRITE        ACCESS:   10129992  HIT:    9583847  MISS:     546145  iACCESS:          0  iHIT:          0  iMISS:          0  dACCESS:   10129992  dHIT:    9583847  dMISS:     546145  itACCESS:          0  itHIT:          0  itMISS:          0  dtACCESS:          0  dtHIT:          0  dtMISS:          0
cpu0_L1D TRANSLATION  ACCESS:     523390  HIT:      34522  MISS:     488868  iACCESS:          0  iHIT:          0  iMISS:          0  dACCESS:          0  dHIT:          0  dMISS:          0  itACCESS:     120400  itHIT:      14202  itMISS:     106198  dtACCESS:     402990  dtHIT:      20320  dtMISS:     382670
cpu0_L1D PREFETCH  REQUESTED:   19909230  ISSUED:   18242493  CROSSED:          0  USEFUL:     357939  USELESS:     920715
cpu0_L1D AVERAGE iMISS LATENCY: 0 cycles
cpu0_L1D AVERAGE dMISS LATENCY: 51.5401 cycles
cpu0_L1D AVERAGE itMISS LATENCY: 3.27302 cycles
cpu0_L1D AVERAGE dtMISS LATENCY: 12.5352 cycles
cpu0_L1D PAGE CROSSINGS (TLB HIT):         0 
cpu0_L1D PAGE CROSSINGS (TLB MISS):         0 
cpu0_L1D AVERAGE MISS LATENCY: 67.3483 cycles
cpu0_L2C TOTAL       ACCESS:    8479642  HIT:    4159923  MISS:    4319719  iACCESS:    3727573  iHIT:    2281407  iMISS:    1446166  dACCESS:    4285573  dHIT:    1820656  dMISS:    2464917  itACCESS:     105762  itHIT:      19323  itMISS:      86439  dtACCESS:     360734  dtHIT:      38537  dtMISS:     322197
cpu0_L2C LOAD         ACCESS:    2021343  HIT:     995619  MISS:    1025724  iACCESS:     837282  iHIT:     533622  iMISS:     303660  dACCESS:    1184061  dHIT:     461997  dMISS:     722064  itACCESS:          0  itHIT:          0  itMISS:          0  dtACCESS:          0  dtHIT:          0  dtMISS:          0
cpu0_L2C RFO          ACCESS:     212421  HIT:      84023  MISS:     128398  iACCESS:          0  iHIT:          0  iMISS:          0  dACCESS:     212421  dHIT:      84023  dMISS:     128398  itACCESS:          0  itHIT:          0  itMISS:          0  dtACCESS:          0  dtHIT:          0  dtMISS:          0
cpu0_L2C PREFETCH     ACCESS:    5432312  HIT:    2679207  MISS:    2753105  iACCESS:    2890291  iHIT:    1747785  iMISS:    1142506  dACCESS:    2542021  dHIT:     931422  dMISS:    1610599  itACCESS:          0  itHIT:          0  itMISS:          0  dtACCESS:          0  dtHIT:          0  dtMISS:          0
cpu0_L2C WRITE        ACCESS:     347070  HIT:     343214  MISS:       3856  iACCESS:          0  iHIT:          0  iMISS:          0  dACCESS:     347070  dHIT:     343214  dMISS:       3856  itACCESS:          0  itHIT:          0  itMISS:          0  dtACCESS:          0  dtHIT:          0  dtMISS:          0
cpu0_L2C TRANSLATION  ACCESS:     466496  HIT:      57860  MISS:     408636  iACCESS:          0  iHIT:          0  iMISS:          0  dACCESS:          0  dHIT:          0  dMISS:          0  itACCESS:     105762  itHIT:      19323  itMISS:      86439  dtACCESS:     360734  dtHIT:      38537  dtMISS:     322197
cpu0_L2C PREFETCH  REQUESTED:    1511693  ISSUED:    1511690  CROSSED:          0  USEFUL:     360621  USELESS:     318633
cpu0_L2C AVERAGE iMISS LATENCY: 38.7535 cycles
cpu0_L2C AVERAGE dMISS LATENCY: 76.8045 cycles
cpu0_L2C AVERAGE itMISS LATENCY: 3.68453 cycles
cpu0_L2C AVERAGE dtMISS LATENCY: 14.2034 cycles
cpu0_L2C PAGE CROSSINGS (TLB HIT):         0 
cpu0_L2C PAGE CROSSINGS (TLB MISS):         0 
cpu0_L2C AVERAGE MISS LATENCY: 133.446 cycles
LLC TOTAL       ACCESS:    4322168  HIT:    1428431  MISS:    2893737  iACCESS:    1355956  iHIT:     465242  iMISS:     890714  dACCESS:    2557576  dHIT:     920711  dMISS:    1636865  itACCESS:      86439  itHIT:       6905  itMISS:      79534  dtACCESS:     322197  dtHIT:      35573  dtMISS:     286624
LLC LOAD         ACCESS:    1021069  HIT:     356731  MISS:     664338  iACCESS:     302496  iHIT:     110584  iMISS:     191912  dACCESS:     718573  dHIT:     246147  dMISS:     472426  itACCESS:          0  itHIT:          0  itMISS:          0  dtACCESS:          0  dtHIT:          0  dtMISS:          0
LLC RFO          ACCESS:     128395  HIT:      41932  MISS:      86463  iACCESS:          0  iHIT:          0  iMISS:          0  dACCESS:     128395  dHIT:      41932  dMISS:      86463  itACCESS:          0  itHIT:          0  itMISS:          0  dtACCESS:          0  dtHIT:          0  dtMISS:          0
LLC PREFETCH     ACCESS:    2550165  HIT:     783735  MISS:    1766430  iACCESS:    1053460  iHIT:     354658  iMISS:     698802  dACCESS:    1496705  dHIT:     429077  dMISS:    1067628  itACCESS:          0  itHIT:          0  itMISS:          0  dtACCESS:          0  dtHIT:          0  dtMISS:          0
LLC WRITE        ACCESS:     213903  HIT:     203555  MISS:      10348  iACCESS:          0  iHIT:          0  iMISS:          0  dACCESS:     213903  dHIT:     203555  dMISS:      10348  itACCESS:          0  itHIT:          0  itMISS:          0  dtACCESS:          0  dtHIT:          0  dtMISS:          0
LLC TRANSLATION  ACCESS:     408636  HIT:      42478  MISS:     366158  iACCESS:          0  iHIT:          0  iMISS:          0  dACCESS:          0  dHIT:          0  dMISS:          0  itACCESS:      86439  itHIT:       6905  itMISS:      79534  dtACCESS:     322197  dtHIT:      35573  dtMISS:     286624
LLC PREFETCH  REQUESTED:          0  ISSUED:          0  CROSSED:          0  USEFUL:          0  USELESS:          0
LLC AVERAGE iMISS LATENCY: 48.6307 cycles
LLC AVERAGE dMISS LATENCY: 99.4285 cycles
LLC AVERAGE itMISS LATENCY: 4.90797 cycles
LLC AVERAGE dtMISS LATENCY: 19.0018 cycles
LLC PAGE CROSSINGS (TLB HIT):         0 
LLC PAGE CROSSINGS (TLB MISS):         0 
LLC AVERAGE MISS LATENCY: 171.969 cycles

PageTableWalker TOTAL       ACCESS:     181666  
PageTableWalker AVERAGE LATENCY: 6.54364 cycles
PageTableWalker TOTAL LATENCY: 1188756 cycles

DRAM Statistics
Channel 0
 RQ ROW_BUFFER_HIT:     608590
  ROW_BUFFER_MISS:    2264059
 AVG DBUS CONGESTED CYCLE:    3.64776
 WQ ROW_BUFFER_HIT:      63209
  ROW_BUFFER_MISS:      53156  FULL:          0

