last_page:0x200000000000000
VMEM_RES_CAP:0x100000
PAGE_SIZE:4096
LOG2_PAGE_SIZE:12
LOG2_PAGE_TABLE_SIZE:9
page_table_levels:5
WARNING: physical memory size is smaller than virtual memory size
FDiP enabled with aggresivity 16

*** ChampSim Multicore Out-of-Order Simulator ***

Warmup Instructions: 50000000
Simulation Instructions: 100000000
Number of CPUs: 1
Small page size: 4096
Large page size: 2097152

CPU 0 Bimodal branch predictor
Basic BTB sets: 1024 ways: 8 indirect buffer size: 4096 RAS size: 64
Instruction page size distrubution: 0
Loading instruction page size distribution from /home/bsc/bsc018186/scratch/itp_asplos25_AE/dump/smt_srv537_ap_srv495_ap_1024i.pdst
Data page size distrubution: 0
Loading data page size distribution from /home/bsc/bsc018186/scratch/itp_asplos25_AE/dump/smt_srv537_ap_srv495_ap_1024i.pdst
cpu0_L2C IP-based stride prefetcher
cpu0_L1D next line prefetcher
cpu0_L1I next line prefetcher
Off-chip DRAM Size: 4 GiB Channels: 1 Width: 64-bit Data Rate: 3200 MT/s
Heartbeat CPU 0 instructions: 10000002 cycles: 2500817 heartbeat IPC: 3.9987 cumulative IPC: 3.9987 (Simulation time: 0 hr 0 min 42 sec) 
Heartbeat CPU 0 instructions: 20000000 cycles: 5001085 heartbeat IPC: 3.99958 cumulative IPC: 3.99914 (Simulation time: 0 hr 1 min 26 sec) 
Heartbeat CPU 0 instructions: 30000001 cycles: 7501561 heartbeat IPC: 3.99924 cumulative IPC: 3.99917 (Simulation time: 0 hr 2 min 10 sec) 
Heartbeat CPU 0 instructions: 40000002 cycles: 10001769 heartbeat IPC: 3.99967 cumulative IPC: 3.9993 (Simulation time: 0 hr 2 min 55 sec) 
Heartbeat CPU 0 instructions: 50000001 cycles: 12502015 heartbeat IPC: 3.99961 cumulative IPC: 3.99936 (Simulation time: 0 hr 3 min 41 sec) 
Warmup finished CPU 0 instructions: 50000001 cycles: 12502016 cumulative IPC: 3.99936 (Simulation time: 0 hr 3 min 41 sec) 

Warmup complete CPU 0 instructions: 50000001 cycles: 12502016 (Simulation time: 0 hr 3 min 41 sec) 

Heartbeat CPU 0 instructions: 60000001 cycles: 42585803 heartbeat IPC: 0.332405 cumulative IPC: 0.332405 (Simulation time: 0 hr 5 min 14 sec) 
Heartbeat CPU 0 instructions: 70000004 cycles: 73911553 heartbeat IPC: 0.319227 cumulative IPC: 0.325683 (Simulation time: 0 hr 6 min 45 sec) 
Heartbeat CPU 0 instructions: 80000002 cycles: 104724470 heartbeat IPC: 0.32454 cumulative IPC: 0.325301 (Simulation time: 0 hr 8 min 15 sec) 
Heartbeat CPU 0 instructions: 90000000 cycles: 134440204 heartbeat IPC: 0.336522 cumulative IPC: 0.328036 (Simulation time: 0 hr 9 min 41 sec) 
Heartbeat CPU 0 instructions: 100000003 cycles: 164284247 heartbeat IPC: 0.335076 cumulative IPC: 0.32942 (Simulation time: 0 hr 11 min 9 sec) 
Heartbeat CPU 0 instructions: 110000000 cycles: 195711977 heartbeat IPC: 0.318191 cumulative IPC: 0.327494 (Simulation time: 0 hr 12 min 41 sec) 
Heartbeat CPU 0 instructions: 120000000 cycles: 225596267 heartbeat IPC: 0.334624 cumulative IPC: 0.328494 (Simulation time: 0 hr 14 min 7 sec) 
Heartbeat CPU 0 instructions: 130000001 cycles: 255242823 heartbeat IPC: 0.337308 cumulative IPC: 0.32957 (Simulation time: 0 hr 15 min 35 sec) 
Heartbeat CPU 0 instructions: 140000003 cycles: 285052627 heartbeat IPC: 0.335461 cumulative IPC: 0.330214 (Simulation time: 0 hr 17 min 2 sec) 
Heartbeat CPU 0 instructions: 150000001 cycles: 315065292 heartbeat IPC: 0.333193 cumulative IPC: 0.33051 (Simulation time: 0 hr 18 min 28 sec) 
Simulation finished CPU 0 instructions: 100000000 cycles: 302563277 cumulative IPC: 0.33051 (Simulation time: 0 hr 18 min 28 sec) 

Simulation complete CPU 0 instructions: 100000000 cycles: 302563277 (Simulation time: 0 hr 18 min 28 sec) 


ChampSim completed all CPUs

Saving instructions large page distribution to /home/bsc/bsc018186/scratch/itp_asplos25_AE/dump/smt_srv537_ap_srv495_ap_1024i.pdst...
Saving data large page distribution to /home/bsc/bsc018186/scratch/itp_asplos25_AE/dump/smt_srv537_ap_srv495_ap_1024i.pdst...
=== Simulation ===
CPU 0 runs /gpfs/projects/bsc18/MN4/bsc18/romol/ChampSim/traces/qualcomm_srv/smt_srv537_ap_srv495_ap_1024i.champsimtrace.xz

Region of Interest Statistics

CPU 0 cumulative IPC: 0.33051 instructions: 100000000 cycles: 302563277
CPU 0 Branch Prediction Accuracy: 74.9718% MPKI: 45.2034 Average ROB Occupancy at Mispredict: 10.5579
Branch type MPKI
BRANCH_DIRECT_JUMP: 1.41108
BRANCH_INDIRECT: 23.2807
BRANCH_CONDITIONAL: 13.2201
BRANCH_DIRECT_CALL: 2.71228
BRANCH_INDIRECT_CALL: 1.0268
BRANCH_RETURN: 3.55251

Instructions large pages: 0
Instructions small pages: 10264
Large page distribution for instructions: 0%

Data large pages: 0
Data small pages: 8859
Large page distribution for data: 0%

cpu0_L1I TOTAL       ACCESS:   39469570  HIT:   30634753  MISS:    8834817  iACCESS:   39469570  iHIT:   30634753  iMISS:    8834817  dACCESS:          0  dHIT:          0  dMISS:          0  itACCESS:          0  itHIT:          0  itMISS:          0  dtACCESS:          0  dtHIT:          0  dtMISS:          0
cpu0_L1I LOAD         ACCESS:   11830414  HIT:    9426654  MISS:    2403760  iACCESS:   11830414  iHIT:    9426654  iMISS:    2403760  dACCESS:          0  dHIT:          0  dMISS:          0  itACCESS:          0  itHIT:          0  itMISS:          0  dtACCESS:          0  dtHIT:          0  dtMISS:          0
cpu0_L1I RFO          ACCESS:          0  HIT:          0  MISS:          0  iACCESS:          0  iHIT:          0  iMISS:          0  dACCESS:          0  dHIT:          0  dMISS:          0  itACCESS:          0  itHIT:          0  itMISS:          0  dtACCESS:          0  dtHIT:          0  dtMISS:          0
cpu0_L1I PREFETCH     ACCESS:   27639156  HIT:   21208099  MISS:    6431057  iACCESS:   27639156  iHIT:   21208099  iMISS:    6431057  dACCESS:          0  dHIT:          0  dMISS:          0  itACCESS:          0  itHIT:          0  itMISS:          0  dtACCESS:          0  dtHIT:          0  dtMISS:          0
cpu0_L1I WRITE        ACCESS:          0  HIT:          0  MISS:          0  iACCESS:          0  iHIT:          0  iMISS:          0  dACCESS:          0  dHIT:          0  dMISS:          0  itACCESS:          0  itHIT:          0  itMISS:          0  dtACCESS:          0  dtHIT:          0  dtMISS:          0
cpu0_L1I TRANSLATION  ACCESS:          0  HIT:          0  MISS:          0  iACCESS:          0  iHIT:          0  iMISS:          0  dACCESS:          0  dHIT:          0  dMISS:          0  itACCESS:          0  itHIT:          0  itMISS:          0  dtACCESS:          0  dtHIT:          0  dtMISS:          0
cpu0_L1I PREFETCH  REQUESTED:   30482870  ISSUED:   30482647  CROSSED:          0  USEFUL:    2245700  USELESS:     780132
cpu0_L1I AVERAGE iMISS LATENCY: 24.4338 cycles
cpu0_L1I AVERAGE dMISS LATENCY: 0 cycles
cpu0_L1I AVERAGE itMISS LATENCY: 0 cycles
cpu0_L1I AVERAGE dtMISS LATENCY: 0 cycles
cpu0_L1I PAGE CROSSINGS (TLB HIT):         0 
cpu0_L1I PAGE CROSSINGS (TLB MISS):         0 
cpu0_L1I AVERAGE MISS LATENCY: 24.4338 cycles
cpu0_ITLB TOTAL       ACCESS:   33432770  HIT:   31156492  MISS:    2276278  iACCESS:   33432770  iHIT:   31156492  iMISS:    2276278  dACCESS:          0  dHIT:          0  dMISS:          0  itACCESS:          0  itHIT:          0  itMISS:          0  dtACCESS:          0  dtHIT:          0  dtMISS:          0
cpu0_ITLB LOAD         ACCESS:   33432770  HIT:   31156492  MISS:    2276278  iACCESS:   33432770  iHIT:   31156492  iMISS:    2276278  dACCESS:          0  dHIT:          0  dMISS:          0  itACCESS:          0  itHIT:          0  itMISS:          0  dtACCESS:          0  dtHIT:          0  dtMISS:          0
cpu0_ITLB RFO          ACCESS:          0  HIT:          0  MISS:          0  iACCESS:          0  iHIT:          0  iMISS:          0  dACCESS:          0  dHIT:          0  dMISS:          0  itACCESS:          0  itHIT:          0  itMISS:          0  dtACCESS:          0  dtHIT:          0  dtMISS:          0
cpu0_ITLB PREFETCH     ACCESS:          0  HIT:          0  MISS:          0  iACCESS:          0  iHIT:          0  iMISS:          0  dACCESS:          0  dHIT:          0  dMISS:          0  itACCESS:          0  itHIT:          0  itMISS:          0  dtACCESS:          0  dtHIT:          0  dtMISS:          0
cpu0_ITLB WRITE        ACCESS:          0  HIT:          0  MISS:          0  iACCESS:          0  iHIT:          0  iMISS:          0  dACCESS:          0  dHIT:          0  dMISS:          0  itACCESS:          0  itHIT:          0  itMISS:          0  dtACCESS:          0  dtHIT:          0  dtMISS:          0
cpu0_ITLB TRANSLATION  ACCESS:          0  HIT:          0  MISS:          0  iACCESS:          0  iHIT:          0  iMISS:          0  dACCESS:          0  dHIT:          0  dMISS:          0  itACCESS:          0  itHIT:          0  itMISS:          0  dtACCESS:          0  dtHIT:          0  dtMISS:          0
cpu0_ITLB PREFETCH  REQUESTED:          0  ISSUED:          0  CROSSED:          0  USEFUL:     396559  USELESS:      81076
cpu0_ITLB AVERAGE iMISS LATENCY: 10.1825 cycles
cpu0_ITLB AVERAGE dMISS LATENCY: 0 cycles
cpu0_ITLB AVERAGE itMISS LATENCY: 0 cycles
cpu0_ITLB AVERAGE dtMISS LATENCY: 0 cycles
cpu0_ITLB PAGE CROSSINGS (TLB HIT):         0 
cpu0_ITLB PAGE CROSSINGS (TLB MISS):         0 
cpu0_ITLB AVERAGE MISS LATENCY: 10.1825 cycles
cpu0_DTLB TOTAL       ACCESS:   28852073  HIT:   25474962  MISS:    3377111  iACCESS:          0  iHIT:          0  iMISS:          0  dACCESS:   28852073  dHIT:   25474962  dMISS:    3377111  itACCESS:          0  itHIT:          0  itMISS:          0  dtACCESS:          0  dtHIT:          0  dtMISS:          0
cpu0_DTLB LOAD         ACCESS:   28852073  HIT:   25474962  MISS:    3377111  iACCESS:          0  iHIT:          0  iMISS:          0  dACCESS:   28852073  dHIT:   25474962  dMISS:    3377111  itACCESS:          0  itHIT:          0  itMISS:          0  dtACCESS:          0  dtHIT:          0  dtMISS:          0
cpu0_DTLB RFO          ACCESS:          0  HIT:          0  MISS:          0  iACCESS:          0  iHIT:          0  iMISS:          0  dACCESS:          0  dHIT:          0  dMISS:          0  itACCESS:          0  itHIT:          0  itMISS:          0  dtACCESS:          0  dtHIT:          0  dtMISS:          0
cpu0_DTLB PREFETCH     ACCESS:          0  HIT:          0  MISS:          0  iACCESS:          0  iHIT:          0  iMISS:          0  dACCESS:          0  dHIT:          0  dMISS:          0  itACCESS:          0  itHIT:          0  itMISS:          0  dtACCESS:          0  dtHIT:          0  dtMISS:          0
cpu0_DTLB WRITE        ACCESS:          0  HIT:          0  MISS:          0  iACCESS:          0  iHIT:          0  iMISS:          0  dACCESS:          0  dHIT:          0  dMISS:          0  itACCESS:          0  itHIT:          0  itMISS:          0  dtACCESS:          0  dtHIT:          0  dtMISS:          0
cpu0_DTLB TRANSLATION  ACCESS:          0  HIT:          0  MISS:          0  iACCESS:          0  iHIT:          0  iMISS:          0  dACCESS:          0  dHIT:          0  dMISS:          0  itACCESS:          0  itHIT:          0  itMISS:          0  dtACCESS:          0  dtHIT:          0  dtMISS:          0
cpu0_DTLB PREFETCH  REQUESTED:          0  ISSUED:          0  CROSSED:          0  USEFUL:          0  USELESS:          0
cpu0_DTLB AVERAGE iMISS LATENCY: 0 cycles
cpu0_DTLB AVERAGE dMISS LATENCY: 25.942 cycles
cpu0_DTLB AVERAGE itMISS LATENCY: 0 cycles
cpu0_DTLB AVERAGE dtMISS LATENCY: 0 cycles
cpu0_DTLB PAGE CROSSINGS (TLB HIT):         0 
cpu0_DTLB PAGE CROSSINGS (TLB MISS):         0 
cpu0_DTLB AVERAGE MISS LATENCY: 25.942 cycles
cpu0_STLB TOTAL       ACCESS:    2422640  HIT:    2051481  MISS:     371159  iACCESS:     477638  iHIT:     359240  iMISS:     118398  dACCESS:    1945002  dHIT:    1692241  dMISS:     252761  itACCESS:          0  itHIT:          0  itMISS:          0  dtACCESS:          0  dtHIT:          0  dtMISS:          0
cpu0_STLB LOAD         ACCESS:    2422640  HIT:    2051481  MISS:     371159  iACCESS:     477638  iHIT:     359240  iMISS:     118398  dACCESS:    1945002  dHIT:    1692241  dMISS:     252761  itACCESS:          0  itHIT:          0  itMISS:          0  dtACCESS:          0  dtHIT:          0  dtMISS:          0
cpu0_STLB RFO          ACCESS:          0  HIT:          0  MISS:          0  iACCESS:          0  iHIT:          0  iMISS:          0  dACCESS:          0  dHIT:          0  dMISS:          0  itACCESS:          0  itHIT:          0  itMISS:          0  dtACCESS:          0  dtHIT:          0  dtMISS:          0
cpu0_STLB PREFETCH     ACCESS:          0  HIT:          0  MISS:          0  iACCESS:          0  iHIT:          0  iMISS:          0  dACCESS:          0  dHIT:          0  dMISS:          0  itACCESS:          0  itHIT:          0  itMISS:          0  dtACCESS:          0  dtHIT:          0  dtMISS:          0
cpu0_STLB WRITE        ACCESS:          0  HIT:          0  MISS:          0  iACCESS:          0  iHIT:          0  iMISS:          0  dACCESS:          0  dHIT:          0  dMISS:          0  itACCESS:          0  itHIT:          0  itMISS:          0  dtACCESS:          0  dtHIT:          0  dtMISS:          0
cpu0_STLB TRANSLATION  ACCESS:          0  HIT:          0  MISS:          0  iACCESS:          0  iHIT:          0  iMISS:          0  dACCESS:          0  dHIT:          0  dMISS:          0  itACCESS:          0  itHIT:          0  itMISS:          0  dtACCESS:          0  dtHIT:          0  dtMISS:          0
cpu0_STLB PREFETCH  REQUESTED:          0  ISSUED:          0  CROSSED:          0  USEFUL:          0  USELESS:          0
cpu0_STLB AVERAGE iMISS LATENCY: 52.1466 cycles
cpu0_STLB AVERAGE dMISS LATENCY: 193.897 cycles
cpu0_STLB AVERAGE itMISS LATENCY: 0 cycles
cpu0_STLB AVERAGE dtMISS LATENCY: 0 cycles
cpu0_STLB PAGE CROSSINGS (TLB HIT):         0 
cpu0_STLB PAGE CROSSINGS (TLB MISS):         0 
cpu0_STLB AVERAGE MISS LATENCY: 246.044 cycles
cpu0_L1D TOTAL       ACCESS:   44869954  HIT:   39282270  MISS:    5587684  iACCESS:          0  iHIT:          0  iMISS:          0  dACCESS:   44326712  dHIT:   39249083  dMISS:    5077629  itACCESS:     131326  itHIT:      16024  itMISS:     115302  dtACCESS:     411916  dtHIT:      17163  dtMISS:     394753
cpu0_L1D LOAD         ACCESS:   20204795  HIT:   17923615  MISS:    2281180  iACCESS:          0  iHIT:          0  iMISS:          0  dACCESS:   20204795  dHIT:   17923615  dMISS:    2281180  itACCESS:          0  itHIT:          0  itMISS:          0  dtACCESS:          0  dtHIT:          0  dtMISS:          0
cpu0_L1D RFO          ACCESS:          0  HIT:          0  MISS:          0  iACCESS:          0  iHIT:          0  iMISS:          0  dACCESS:          0  dHIT:          0  dMISS:          0  itACCESS:          0  itHIT:          0  itMISS:          0  dtACCESS:          0  dtHIT:          0  dtMISS:          0
cpu0_L1D PREFETCH     ACCESS:   13947661  HIT:   11708113  MISS:    2239548  iACCESS:          0  iHIT:          0  iMISS:          0  dACCESS:   13947661  dHIT:   11708113  dMISS:    2239548  itACCESS:          0  itHIT:          0  itMISS:          0  dtACCESS:          0  dtHIT:          0  dtMISS:          0
cpu0_L1D WRITE        ACCESS:   10174256  HIT:    9617355  MISS:     556901  iACCESS:          0  iHIT:          0  iMISS:          0  dACCESS:   10174256  dHIT:    9617355  dMISS:     556901  itACCESS:          0  itHIT:          0  itMISS:          0  dtACCESS:          0  dtHIT:          0  dtMISS:          0
cpu0_L1D TRANSLATION  ACCESS:     543242  HIT:      33187  MISS:     510055  iACCESS:          0  iHIT:          0  iMISS:          0  dACCESS:          0  dHIT:          0  dMISS:          0  itACCESS:     131326  itHIT:      16024  itMISS:     115302  dtACCESS:     411916  dtHIT:      17163  dtMISS:     394753
cpu0_L1D PREFETCH  REQUESTED:   20204795  ISSUED:   18427565  CROSSED:          0  USEFUL:     372771  USELESS:     912541
cpu0_L1D AVERAGE iMISS LATENCY: 0 cycles
cpu0_L1D AVERAGE dMISS LATENCY: 50.693 cycles
cpu0_L1D AVERAGE itMISS LATENCY: 3.26417 cycles
cpu0_L1D AVERAGE dtMISS LATENCY: 12.0602 cycles
cpu0_L1D PAGE CROSSINGS (TLB HIT):         0 
cpu0_L1D PAGE CROSSINGS (TLB MISS):         0 
cpu0_L1D AVERAGE MISS LATENCY: 66.0173 cycles
cpu0_L2C TOTAL       ACCESS:    8691783  HIT:    4221068  MISS:    4470715  iACCESS:    3850363  iHIT:    2344975  iMISS:    1505388  dACCESS:    4364781  dHIT:    1819466  dMISS:    2545315  itACCESS:     114744  itHIT:      21266  itMISS:      93478  dtACCESS:     361895  dtHIT:      35361  dtMISS:     326534
cpu0_L2C LOAD         ACCESS:    2068821  HIT:    1016372  MISS:    1052449  iACCESS:     862749  iHIT:     550563  iMISS:     312186  dACCESS:    1206072  dHIT:     465809  dMISS:     740263  itACCESS:          0  itHIT:          0  itMISS:          0  dtACCESS:          0  dtHIT:          0  dtMISS:          0
cpu0_L2C RFO          ACCESS:     213625  HIT:      79156  MISS:     134469  iACCESS:          0  iHIT:          0  iMISS:          0  dACCESS:     213625  dHIT:      79156  dMISS:     134469  itACCESS:          0  itHIT:          0  itMISS:          0  dtACCESS:          0  dtHIT:          0  dtMISS:          0
cpu0_L2C PREFETCH     ACCESS:    5587810  HIT:    2727831  MISS:    2859979  iACCESS:    2987614  iHIT:    1794412  iMISS:    1193202  dACCESS:    2600196  dHIT:     933419  dMISS:    1666777  itACCESS:          0  itHIT:          0  itMISS:          0  dtACCESS:          0  dtHIT:          0  dtMISS:          0
cpu0_L2C WRITE        ACCESS:     344888  HIT:     341082  MISS:       3806  iACCESS:          0  iHIT:          0  iMISS:          0  dACCESS:     344888  dHIT:     341082  dMISS:       3806  itACCESS:          0  itHIT:          0  itMISS:          0  dtACCESS:          0  dtHIT:          0  dtMISS:          0
cpu0_L2C TRANSLATION  ACCESS:     476639  HIT:      56627  MISS:     420012  iACCESS:          0  iHIT:          0  iMISS:          0  dACCESS:          0  dHIT:          0  dMISS:          0  itACCESS:     114744  itHIT:      21266  itMISS:      93478  dtACCESS:     361895  dtHIT:      35361  dtMISS:     326534
cpu0_L2C PREFETCH  REQUESTED:    1561469  ISSUED:    1561464  CROSSED:          0  USEFUL:     365682  USELESS:     333439
cpu0_L2C AVERAGE iMISS LATENCY: 41.0126 cycles
cpu0_L2C AVERAGE dMISS LATENCY: 79.4526 cycles
cpu0_L2C AVERAGE itMISS LATENCY: 3.82705 cycles
cpu0_L2C AVERAGE dtMISS LATENCY: 14.2672 cycles
cpu0_L2C PAGE CROSSINGS (TLB HIT):         0 
cpu0_L2C PAGE CROSSINGS (TLB MISS):         0 
cpu0_L2C AVERAGE MISS LATENCY: 138.56 cycles
LLC TOTAL       ACCESS:    4454441  HIT:    1312264  MISS:    3142177  iACCESS:    1411154  iHIT:     424756  iMISS:     986398  dACCESS:    2623275  dHIT:     848599  dMISS:    1774676  itACCESS:      93478  itHIT:       8174  itMISS:      85304  dtACCESS:     326534  dtHIT:      30735  dtMISS:     295799
LLC LOAD         ACCESS:    1045485  HIT:     325893  MISS:     719592  iACCESS:     311014  iHIT:     101117  iMISS:     209897  dACCESS:     734471  dHIT:     224776  dMISS:     509695  itACCESS:          0  itHIT:          0  itMISS:          0  dtACCESS:          0  dtHIT:          0  dtMISS:          0
LLC RFO          ACCESS:     134460  HIT:      41010  MISS:      93450  iACCESS:          0  iHIT:          0  iMISS:          0  dACCESS:     134460  dHIT:      41010  dMISS:      93450  itACCESS:          0  itHIT:          0  itMISS:          0  dtACCESS:          0  dtHIT:          0  dtMISS:          0
LLC PREFETCH     ACCESS:    2638907  HIT:     701818  MISS:    1937089  iACCESS:    1100140  iHIT:     323639  iMISS:     776501  dACCESS:    1538767  dHIT:     378179  dMISS:    1160588  itACCESS:          0  itHIT:          0  itMISS:          0  dtACCESS:          0  dtHIT:          0  dtMISS:          0
LLC WRITE        ACCESS:     215577  HIT:     204634  MISS:      10943  iACCESS:          0  iHIT:          0  iMISS:          0  dACCESS:     215577  dHIT:     204634  dMISS:      10943  itACCESS:          0  itHIT:          0  itMISS:          0  dtACCESS:          0  dtHIT:          0  dtMISS:          0
LLC TRANSLATION  ACCESS:     420012  HIT:      38909  MISS:     381103  iACCESS:          0  iHIT:          0  iMISS:          0  dACCESS:          0  dHIT:          0  dMISS:          0  itACCESS:      93478  itHIT:       8174  itMISS:      85304  dtACCESS:     326534  dtHIT:      30735  dtMISS:     295799
LLC PREFETCH  REQUESTED:          0  ISSUED:          0  CROSSED:          0  USEFUL:          0  USELESS:          0
LLC AVERAGE iMISS LATENCY: 49.5004 cycles
LLC AVERAGE dMISS LATENCY: 98.713 cycles
LLC AVERAGE itMISS LATENCY: 4.85544 cycles
LLC AVERAGE dtMISS LATENCY: 18.2441 cycles
LLC PAGE CROSSINGS (TLB HIT):         0 
LLC PAGE CROSSINGS (TLB MISS):         0 
LLC AVERAGE MISS LATENCY: 171.313 cycles

PageTableWalker TOTAL       ACCESS:     181662  
PageTableWalker AVERAGE LATENCY: 6.52521 cycles
PageTableWalker TOTAL LATENCY: 1185382 cycles

DRAM Statistics
Channel 0
 RQ ROW_BUFFER_HIT:     667798
  ROW_BUFFER_MISS:    2445888
 AVG DBUS CONGESTED CYCLE:    3.64903
 WQ ROW_BUFFER_HIT:      67150
  ROW_BUFFER_MISS:      56251  FULL:          0

