last_page:0x200000000000000
VMEM_RES_CAP:0x100000
PAGE_SIZE:4096
LOG2_PAGE_SIZE:12
LOG2_PAGE_TABLE_SIZE:9
page_table_levels:5
WARNING: physical memory size is smaller than virtual memory size
FDiP enabled with aggresivity 16

*** ChampSim Multicore Out-of-Order Simulator ***

Warmup Instructions: 50000000
Simulation Instructions: 100000000
Number of CPUs: 1
Small page size: 4096
Large page size: 2097152

CPU 0 Bimodal branch predictor
Basic BTB sets: 1024 ways: 8 indirect buffer size: 4096 RAS size: 64
Instruction page size distrubution: 0
Loading instruction page size distribution from /home/bsc/bsc018186/scratch/itp_asplos25_AE/dump/smt_srv207_ap_srv73_ap_1024i.pdst
Data page size distrubution: 0
Loading data page size distribution from /home/bsc/bsc018186/scratch/itp_asplos25_AE/dump/smt_srv207_ap_srv73_ap_1024i.pdst
cpu0_L2C IP-based stride prefetcher
cpu0_L1D next line prefetcher
cpu0_L1I next line prefetcher
Off-chip DRAM Size: 4 GiB Channels: 1 Width: 64-bit Data Rate: 3200 MT/s
Heartbeat CPU 0 instructions: 10000002 cycles: 2501187 heartbeat IPC: 3.99811 cumulative IPC: 3.99811 (Simulation time: 0 hr 0 min 40 sec) 
Heartbeat CPU 0 instructions: 20000001 cycles: 5002091 heartbeat IPC: 3.99856 cumulative IPC: 3.99833 (Simulation time: 0 hr 1 min 21 sec) 
Heartbeat CPU 0 instructions: 30000002 cycles: 7502609 heartbeat IPC: 3.99918 cumulative IPC: 3.99861 (Simulation time: 0 hr 2 min 3 sec) 
Heartbeat CPU 0 instructions: 40000003 cycles: 10003019 heartbeat IPC: 3.99935 cumulative IPC: 3.9988 (Simulation time: 0 hr 2 min 46 sec) 
Heartbeat CPU 0 instructions: 50000003 cycles: 12504530 heartbeat IPC: 3.99759 cumulative IPC: 3.99856 (Simulation time: 0 hr 3 min 29 sec) 
Warmup finished CPU 0 instructions: 50000003 cycles: 12504531 cumulative IPC: 3.99856 (Simulation time: 0 hr 3 min 29 sec) 

Warmup complete CPU 0 instructions: 50000003 cycles: 12504531 (Simulation time: 0 hr 3 min 29 sec) 

Heartbeat CPU 0 instructions: 60000004 cycles: 37154711 heartbeat IPC: 0.405677 cumulative IPC: 0.405677 (Simulation time: 0 hr 4 min 48 sec) 
Heartbeat CPU 0 instructions: 70000000 cycles: 59526189 heartbeat IPC: 0.446998 cumulative IPC: 0.425336 (Simulation time: 0 hr 6 min 5 sec) 
Heartbeat CPU 0 instructions: 80000002 cycles: 84451408 heartbeat IPC: 0.401201 cumulative IPC: 0.416975 (Simulation time: 0 hr 7 min 25 sec) 
Heartbeat CPU 0 instructions: 90000000 cycles: 116331086 heartbeat IPC: 0.31368 cumulative IPC: 0.385258 (Simulation time: 0 hr 8 min 58 sec) 
Heartbeat CPU 0 instructions: 100000003 cycles: 147910181 heartbeat IPC: 0.316666 cumulative IPC: 0.369261 (Simulation time: 0 hr 10 min 38 sec) 
Heartbeat CPU 0 instructions: 110000002 cycles: 179604832 heartbeat IPC: 0.315511 cumulative IPC: 0.359066 (Simulation time: 0 hr 12 min 16 sec) 
Heartbeat CPU 0 instructions: 120000001 cycles: 209706287 heartbeat IPC: 0.33221 cumulative IPC: 0.354967 (Simulation time: 0 hr 13 min 50 sec) 
Heartbeat CPU 0 instructions: 130000000 cycles: 226467173 heartbeat IPC: 0.596628 cumulative IPC: 0.373898 (Simulation time: 0 hr 15 min 10 sec) 
Heartbeat CPU 0 instructions: 140000002 cycles: 248727150 heartbeat IPC: 0.449237 cumulative IPC: 0.380997 (Simulation time: 0 hr 16 min 37 sec) 
Heartbeat CPU 0 instructions: 150000000 cycles: 279267903 heartbeat IPC: 0.327432 cumulative IPC: 0.374865 (Simulation time: 0 hr 18 min 12 sec) 
Simulation finished CPU 0 instructions: 100000002 cycles: 266763374 cumulative IPC: 0.374865 (Simulation time: 0 hr 18 min 12 sec) 

Simulation complete CPU 0 instructions: 100000002 cycles: 266763374 (Simulation time: 0 hr 18 min 12 sec) 


ChampSim completed all CPUs

Saving instructions large page distribution to /home/bsc/bsc018186/scratch/itp_asplos25_AE/dump/smt_srv207_ap_srv73_ap_1024i.pdst...
Saving data large page distribution to /home/bsc/bsc018186/scratch/itp_asplos25_AE/dump/smt_srv207_ap_srv73_ap_1024i.pdst...
=== Simulation ===
CPU 0 runs /gpfs/projects/bsc18/MN4/bsc18/romol/ChampSim/traces/qualcomm_srv/smt_srv207_ap_srv73_ap_1024i.champsimtrace.xz

Region of Interest Statistics

CPU 0 cumulative IPC: 0.374865 instructions: 100000002 cycles: 266763374
CPU 0 Branch Prediction Accuracy: 77.5974% MPKI: 43.423 Average ROB Occupancy at Mispredict: 11.0622
Branch type MPKI
BRANCH_DIRECT_JUMP: 1.11372
BRANCH_INDIRECT: 23.5844
BRANCH_CONDITIONAL: 12.0181
BRANCH_DIRECT_CALL: 2.04424
BRANCH_INDIRECT_CALL: 1.68306
BRANCH_RETURN: 2.97949

Instructions large pages: 0
Instructions small pages: 12734
Large page distribution for instructions: 0%

Data large pages: 0
Data small pages: 10893
Large page distribution for data: 0%

cpu0_L1I TOTAL       ACCESS:   37902162  HIT:   30828477  MISS:    7073685  iACCESS:   37902162  iHIT:   30828477  iMISS:    7073685  dACCESS:          0  dHIT:          0  dMISS:          0  itACCESS:          0  itHIT:          0  itMISS:          0  dtACCESS:          0  dtHIT:          0  dtMISS:          0
cpu0_L1I LOAD         ACCESS:   10370118  HIT:    8422228  MISS:    1947890  iACCESS:   10370118  iHIT:    8422228  iMISS:    1947890  dACCESS:          0  dHIT:          0  dMISS:          0  itACCESS:          0  itHIT:          0  itMISS:          0  dtACCESS:          0  dtHIT:          0  dtMISS:          0
cpu0_L1I RFO          ACCESS:          0  HIT:          0  MISS:          0  iACCESS:          0  iHIT:          0  iMISS:          0  dACCESS:          0  dHIT:          0  dMISS:          0  itACCESS:          0  itHIT:          0  itMISS:          0  dtACCESS:          0  dtHIT:          0  dtMISS:          0
cpu0_L1I PREFETCH     ACCESS:   27532044  HIT:   22406249  MISS:    5125795  iACCESS:   27532044  iHIT:   22406249  iMISS:    5125795  dACCESS:          0  dHIT:          0  dMISS:          0  itACCESS:          0  itHIT:          0  itMISS:          0  dtACCESS:          0  dtHIT:          0  dtMISS:          0
cpu0_L1I WRITE        ACCESS:          0  HIT:          0  MISS:          0  iACCESS:          0  iHIT:          0  iMISS:          0  dACCESS:          0  dHIT:          0  dMISS:          0  itACCESS:          0  itHIT:          0  itMISS:          0  dtACCESS:          0  dtHIT:          0  dtMISS:          0
cpu0_L1I TRANSLATION  ACCESS:          0  HIT:          0  MISS:          0  iACCESS:          0  iHIT:          0  iMISS:          0  dACCESS:          0  dHIT:          0  dMISS:          0  itACCESS:          0  itHIT:          0  itMISS:          0  dtACCESS:          0  dtHIT:          0  dtMISS:          0
cpu0_L1I PREFETCH  REQUESTED:   29879445  ISSUED:   29879421  CROSSED:          0  USEFUL:    1779502  USELESS:     667063
cpu0_L1I AVERAGE iMISS LATENCY: 24.4362 cycles
cpu0_L1I AVERAGE dMISS LATENCY: 0 cycles
cpu0_L1I AVERAGE itMISS LATENCY: 0 cycles
cpu0_L1I AVERAGE dtMISS LATENCY: 0 cycles
cpu0_L1I PAGE CROSSINGS (TLB HIT):         0 
cpu0_L1I PAGE CROSSINGS (TLB MISS):         0 
cpu0_L1I AVERAGE MISS LATENCY: 24.4362 cycles
cpu0_ITLB TOTAL       ACCESS:   32166182  HIT:   30299628  MISS:    1866554  iACCESS:   32166182  iHIT:   30299628  iMISS:    1866554  dACCESS:          0  dHIT:          0  dMISS:          0  itACCESS:          0  itHIT:          0  itMISS:          0  dtACCESS:          0  dtHIT:          0  dtMISS:          0
cpu0_ITLB LOAD         ACCESS:   32166182  HIT:   30299628  MISS:    1866554  iACCESS:   32166182  iHIT:   30299628  iMISS:    1866554  dACCESS:          0  dHIT:          0  dMISS:          0  itACCESS:          0  itHIT:          0  itMISS:          0  dtACCESS:          0  dtHIT:          0  dtMISS:          0
cpu0_ITLB RFO          ACCESS:          0  HIT:          0  MISS:          0  iACCESS:          0  iHIT:          0  iMISS:          0  dACCESS:          0  dHIT:          0  dMISS:          0  itACCESS:          0  itHIT:          0  itMISS:          0  dtACCESS:          0  dtHIT:          0  dtMISS:          0
cpu0_ITLB PREFETCH     ACCESS:          0  HIT:          0  MISS:          0  iACCESS:          0  iHIT:          0  iMISS:          0  dACCESS:          0  dHIT:          0  dMISS:          0  itACCESS:          0  itHIT:          0  itMISS:          0  dtACCESS:          0  dtHIT:          0  dtMISS:          0
cpu0_ITLB WRITE        ACCESS:          0  HIT:          0  MISS:          0  iACCESS:          0  iHIT:          0  iMISS:          0  dACCESS:          0  dHIT:          0  dMISS:          0  itACCESS:          0  itHIT:          0  itMISS:          0  dtACCESS:          0  dtHIT:          0  dtMISS:          0
cpu0_ITLB TRANSLATION  ACCESS:          0  HIT:          0  MISS:          0  iACCESS:          0  iHIT:          0  iMISS:          0  dACCESS:          0  dHIT:          0  dMISS:          0  itACCESS:          0  itHIT:          0  itMISS:          0  dtACCESS:          0  dtHIT:          0  dtMISS:          0
cpu0_ITLB PREFETCH  REQUESTED:          0  ISSUED:          0  CROSSED:          0  USEFUL:     330039  USELESS:      70276
cpu0_ITLB AVERAGE iMISS LATENCY: 10.4994 cycles
cpu0_ITLB AVERAGE dMISS LATENCY: 0 cycles
cpu0_ITLB AVERAGE itMISS LATENCY: 0 cycles
cpu0_ITLB AVERAGE dtMISS LATENCY: 0 cycles
cpu0_ITLB PAGE CROSSINGS (TLB HIT):         0 
cpu0_ITLB PAGE CROSSINGS (TLB MISS):         0 
cpu0_ITLB AVERAGE MISS LATENCY: 10.4994 cycles
cpu0_DTLB TOTAL       ACCESS:   31599406  HIT:   26254848  MISS:    5344558  iACCESS:          0  iHIT:          0  iMISS:          0  dACCESS:   31599406  dHIT:   26254848  dMISS:    5344558  itACCESS:          0  itHIT:          0  itMISS:          0  dtACCESS:          0  dtHIT:          0  dtMISS:          0
cpu0_DTLB LOAD         ACCESS:   31599406  HIT:   26254848  MISS:    5344558  iACCESS:          0  iHIT:          0  iMISS:          0  dACCESS:   31599406  dHIT:   26254848  dMISS:    5344558  itACCESS:          0  itHIT:          0  itMISS:          0  dtACCESS:          0  dtHIT:          0  dtMISS:          0
cpu0_DTLB RFO          ACCESS:          0  HIT:          0  MISS:          0  iACCESS:          0  iHIT:          0  iMISS:          0  dACCESS:          0  dHIT:          0  dMISS:          0  itACCESS:          0  itHIT:          0  itMISS:          0  dtACCESS:          0  dtHIT:          0  dtMISS:          0
cpu0_DTLB PREFETCH     ACCESS:          0  HIT:          0  MISS:          0  iACCESS:          0  iHIT:          0  iMISS:          0  dACCESS:          0  dHIT:          0  dMISS:          0  itACCESS:          0  itHIT:          0  itMISS:          0  dtACCESS:          0  dtHIT:          0  dtMISS:          0
cpu0_DTLB WRITE        ACCESS:          0  HIT:          0  MISS:          0  iACCESS:          0  iHIT:          0  iMISS:          0  dACCESS:          0  dHIT:          0  dMISS:          0  itACCESS:          0  itHIT:          0  itMISS:          0  dtACCESS:          0  dtHIT:          0  dtMISS:          0
cpu0_DTLB TRANSLATION  ACCESS:          0  HIT:          0  MISS:          0  iACCESS:          0  iHIT:          0  iMISS:          0  dACCESS:          0  dHIT:          0  dMISS:          0  itACCESS:          0  itHIT:          0  itMISS:          0  dtACCESS:          0  dtHIT:          0  dtMISS:          0
cpu0_DTLB PREFETCH  REQUESTED:          0  ISSUED:          0  CROSSED:          0  USEFUL:          0  USELESS:          0
cpu0_DTLB AVERAGE iMISS LATENCY: 0 cycles
cpu0_DTLB AVERAGE dMISS LATENCY: 14.8315 cycles
cpu0_DTLB AVERAGE itMISS LATENCY: 0 cycles
cpu0_DTLB AVERAGE dtMISS LATENCY: 0 cycles
cpu0_DTLB PAGE CROSSINGS (TLB HIT):         0 
cpu0_DTLB PAGE CROSSINGS (TLB MISS):         0 
cpu0_DTLB AVERAGE MISS LATENCY: 14.8315 cycles
cpu0_STLB TOTAL       ACCESS:    3247357  HIT:    2952106  MISS:     295251  iACCESS:     400320  iHIT:     308894  iMISS:      91426  dACCESS:    2847037  dHIT:    2643212  dMISS:     203825  itACCESS:          0  itHIT:          0  itMISS:          0  dtACCESS:          0  dtHIT:          0  dtMISS:          0
cpu0_STLB LOAD         ACCESS:    3247357  HIT:    2952106  MISS:     295251  iACCESS:     400320  iHIT:     308894  iMISS:      91426  dACCESS:    2847037  dHIT:    2643212  dMISS:     203825  itACCESS:          0  itHIT:          0  itMISS:          0  dtACCESS:          0  dtHIT:          0  dtMISS:          0
cpu0_STLB RFO          ACCESS:          0  HIT:          0  MISS:          0  iACCESS:          0  iHIT:          0  iMISS:          0  dACCESS:          0  dHIT:          0  dMISS:          0  itACCESS:          0  itHIT:          0  itMISS:          0  dtACCESS:          0  dtHIT:          0  dtMISS:          0
cpu0_STLB PREFETCH     ACCESS:          0  HIT:          0  MISS:          0  iACCESS:          0  iHIT:          0  iMISS:          0  dACCESS:          0  dHIT:          0  dMISS:          0  itACCESS:          0  itHIT:          0  itMISS:          0  dtACCESS:          0  dtHIT:          0  dtMISS:          0
cpu0_STLB WRITE        ACCESS:          0  HIT:          0  MISS:          0  iACCESS:          0  iHIT:          0  iMISS:          0  dACCESS:          0  dHIT:          0  dMISS:          0  itACCESS:          0  itHIT:          0  itMISS:          0  dtACCESS:          0  dtHIT:          0  dtMISS:          0
cpu0_STLB TRANSLATION  ACCESS:          0  HIT:          0  MISS:          0  iACCESS:          0  iHIT:          0  iMISS:          0  dACCESS:          0  dHIT:          0  dMISS:          0  itACCESS:          0  itHIT:          0  itMISS:          0  dtACCESS:          0  dtHIT:          0  dtMISS:          0
cpu0_STLB PREFETCH  REQUESTED:          0  ISSUED:          0  CROSSED:          0  USEFUL:          0  USELESS:          0
cpu0_STLB AVERAGE iMISS LATENCY: 55.5504 cycles
cpu0_STLB AVERAGE dMISS LATENCY: 190.556 cycles
cpu0_STLB AVERAGE itMISS LATENCY: 0 cycles
cpu0_STLB AVERAGE dtMISS LATENCY: 0 cycles
cpu0_STLB PAGE CROSSINGS (TLB HIT):         0 
cpu0_STLB PAGE CROSSINGS (TLB MISS):         0 
cpu0_STLB AVERAGE MISS LATENCY: 246.106 cycles
cpu0_L1D TOTAL       ACCESS:   49547331  HIT:   41211921  MISS:    8335410  iACCESS:          0  iHIT:          0  iMISS:          0  dACCESS:   49068266  dHIT:   41189146  dMISS:    7879120  itACCESS:     112424  itHIT:       9231  itMISS:     103193  dtACCESS:     366641  dtHIT:      13544  dtMISS:     353097
cpu0_L1D LOAD         ACCESS:   23738849  HIT:   19550319  MISS:    4188530  iACCESS:          0  iHIT:          0  iMISS:          0  dACCESS:   23738849  dHIT:   19550319  dMISS:    4188530  itACCESS:          0  itHIT:          0  itMISS:          0  dtACCESS:          0  dtHIT:          0  dtMISS:          0
cpu0_L1D RFO          ACCESS:          0  HIT:          0  MISS:          0  iACCESS:          0  iHIT:          0  iMISS:          0  dACCESS:          0  dHIT:          0  dMISS:          0  itACCESS:          0  itHIT:          0  itMISS:          0  dtACCESS:          0  dtHIT:          0  dtMISS:          0
cpu0_L1D PREFETCH     ACCESS:   15521765  HIT:   12633307  MISS:    2888458  iACCESS:          0  iHIT:          0  iMISS:          0  dACCESS:   15521765  dHIT:   12633307  dMISS:    2888458  itACCESS:          0  itHIT:          0  itMISS:          0  dtACCESS:          0  dtHIT:          0  dtMISS:          0
cpu0_L1D WRITE        ACCESS:    9807652  HIT:    9005520  MISS:     802132  iACCESS:          0  iHIT:          0  iMISS:          0  dACCESS:    9807652  dHIT:    9005520  dMISS:     802132  itACCESS:          0  itHIT:          0  itMISS:          0  dtACCESS:          0  dtHIT:          0  dtMISS:          0
cpu0_L1D TRANSLATION  ACCESS:     479065  HIT:      22775  MISS:     456290  iACCESS:          0  iHIT:          0  iMISS:          0  dACCESS:          0  dHIT:          0  dMISS:          0  itACCESS:     112424  itHIT:       9231  itMISS:     103193  dtACCESS:     366641  dtHIT:      13544  dtMISS:     353097
cpu0_L1D PREFETCH  REQUESTED:   23738849  ISSUED:   20102415  CROSSED:          0  USEFUL:     358895  USELESS:    1138186
cpu0_L1D AVERAGE iMISS LATENCY: 0 cycles
cpu0_L1D AVERAGE dMISS LATENCY: 33.5254 cycles
cpu0_L1D AVERAGE itMISS LATENCY: 1.85576 cycles
cpu0_L1D AVERAGE dtMISS LATENCY: 6.29469 cycles
cpu0_L1D PAGE CROSSINGS (TLB HIT):         0 
cpu0_L1D PAGE CROSSINGS (TLB MISS):         0 
cpu0_L1D AVERAGE MISS LATENCY: 41.6759 cycles
cpu0_L2C TOTAL       ACCESS:    9292251  HIT:    5637599  MISS:    3654652  iACCESS:    3124422  iHIT:    1940823  iMISS:    1183599  dACCESS:    5790158  dHIT:    3651511  dMISS:    2138647  itACCESS:      93298  itHIT:      15228  itMISS:      78070  dtACCESS:     284373  dtHIT:      30037  dtMISS:     254336
cpu0_L2C LOAD         ACCESS:    3390759  HIT:    2476473  MISS:     914286  iACCESS:     703282  iHIT:     456676  iMISS:     246606  dACCESS:    2687477  dHIT:    2019797  dMISS:     667680  itACCESS:          0  itHIT:          0  itMISS:          0  dtACCESS:          0  dtHIT:          0  dtMISS:          0
cpu0_L2C RFO          ACCESS:     244024  HIT:     113877  MISS:     130147  iACCESS:          0  iHIT:          0  iMISS:          0  dACCESS:     244024  dHIT:     113877  dMISS:     130147  itACCESS:          0  itHIT:          0  itMISS:          0  dtACCESS:          0  dtHIT:          0  dtMISS:          0
cpu0_L2C PREFETCH     ACCESS:    4941485  HIT:    2666024  MISS:    2275461  iACCESS:    2421140  iHIT:    1484147  iMISS:     936993  dACCESS:    2520345  dHIT:    1181877  dMISS:    1338468  itACCESS:          0  itHIT:          0  itMISS:          0  dtACCESS:          0  dtHIT:          0  dtMISS:          0
cpu0_L2C WRITE        ACCESS:     338312  HIT:     335960  MISS:       2352  iACCESS:          0  iHIT:          0  iMISS:          0  dACCESS:     338312  dHIT:     335960  dMISS:       2352  itACCESS:          0  itHIT:          0  itMISS:          0  dtACCESS:          0  dtHIT:          0  dtMISS:          0
cpu0_L2C TRANSLATION  ACCESS:     377671  HIT:      45265  MISS:     332406  iACCESS:          0  iHIT:          0  iMISS:          0  dACCESS:          0  dHIT:          0  dMISS:          0  itACCESS:      93298  itHIT:      15228  itMISS:      78070  dtACCESS:     284373  dtHIT:      30037  dtMISS:     254336
cpu0_L2C PREFETCH  REQUESTED:    1202903  ISSUED:    1202810  CROSSED:          0  USEFUL:     261300  USELESS:     250986
cpu0_L2C AVERAGE iMISS LATENCY: 40.2174 cycles
cpu0_L2C AVERAGE dMISS LATENCY: 83.4471 cycles
cpu0_L2C AVERAGE itMISS LATENCY: 3.98072 cycles
cpu0_L2C AVERAGE dtMISS LATENCY: 13.5825 cycles
cpu0_L2C PAGE CROSSINGS (TLB HIT):         0 
cpu0_L2C PAGE CROSSINGS (TLB MISS):         0 
cpu0_L2C AVERAGE MISS LATENCY: 141.228 cycles
LLC TOTAL       ACCESS:    3683250  HIT:    1118274  MISS:    2564976  iACCESS:    1121055  iHIT:     342111  iMISS:     778944  dACCESS:    2229789  dHIT:     745083  dMISS:    1484706  itACCESS:      78070  itHIT:       5639  itMISS:      72431  dtACCESS:     254336  dtHIT:      25441  dtMISS:     228895
LLC LOAD         ACCESS:     907386  HIT:     289813  MISS:     617573  iACCESS:     245716  iHIT:      80053  iMISS:     165663  dACCESS:     661670  dHIT:     209760  dMISS:     451910  itACCESS:          0  itHIT:          0  itMISS:          0  dtACCESS:          0  dtHIT:          0  dtMISS:          0
LLC RFO          ACCESS:     130140  HIT:      34787  MISS:      95353  iACCESS:          0  iHIT:          0  iMISS:          0  dACCESS:     130140  dHIT:      34787  dMISS:      95353  itACCESS:          0  itHIT:          0  itMISS:          0  dtACCESS:          0  dtHIT:          0  dtMISS:          0
LLC PREFETCH     ACCESS:    2126597  HIT:     583807  MISS:    1542790  iACCESS:     875339  iHIT:     262058  iMISS:     613281  dACCESS:    1251258  dHIT:     321749  dMISS:     929509  itACCESS:          0  itHIT:          0  itMISS:          0  dtACCESS:          0  dtHIT:          0  dtMISS:          0
LLC WRITE        ACCESS:     186721  HIT:     178787  MISS:       7934  iACCESS:          0  iHIT:          0  iMISS:          0  dACCESS:     186721  dHIT:     178787  dMISS:       7934  itACCESS:          0  itHIT:          0  itMISS:          0  dtACCESS:          0  dtHIT:          0  dtMISS:          0
LLC TRANSLATION  ACCESS:     332406  HIT:      31080  MISS:     301326  iACCESS:          0  iHIT:          0  iMISS:          0  dACCESS:          0  dHIT:          0  dMISS:          0  itACCESS:      78070  itHIT:       5639  itMISS:      72431  dtACCESS:     254336  dtHIT:      25441  dtMISS:     228895
LLC PREFETCH  REQUESTED:          0  ISSUED:          0  CROSSED:          0  USEFUL:          0  USELESS:          0
LLC AVERAGE iMISS LATENCY: 48.6862 cycles
LLC AVERAGE dMISS LATENCY: 104.117 cycles
LLC AVERAGE itMISS LATENCY: 5.06805 cycles
LLC AVERAGE dtMISS LATENCY: 17.3923 cycles
LLC PAGE CROSSINGS (TLB HIT):         0 
LLC PAGE CROSSINGS (TLB MISS):         0 
LLC AVERAGE MISS LATENCY: 175.264 cycles

PageTableWalker TOTAL       ACCESS:     187717  
PageTableWalker AVERAGE LATENCY: 6.62195 cycles
PageTableWalker TOTAL LATENCY: 1243051 cycles

DRAM Statistics
Channel 0
 RQ ROW_BUFFER_HIT:     514793
  ROW_BUFFER_MISS:    2027445
 AVG DBUS CONGESTED CYCLE:    3.65551
 WQ ROW_BUFFER_HIT:      56482
  ROW_BUFFER_MISS:      53417  FULL:          0

