last_page:0x200000000000000
VMEM_RES_CAP:0x100000
PAGE_SIZE:4096
LOG2_PAGE_SIZE:12
LOG2_PAGE_TABLE_SIZE:9
page_table_levels:5
WARNING: physical memory size is smaller than virtual memory size
FDiP enabled with aggresivity 16

*** ChampSim Multicore Out-of-Order Simulator ***

Warmup Instructions: 50000000
Simulation Instructions: 100000000
Number of CPUs: 1
Small page size: 4096
Large page size: 2097152

CPU 0 Bimodal branch predictor
Basic BTB sets: 1024 ways: 8 indirect buffer size: 4096 RAS size: 64
Instruction page size distrubution: 0
Loading instruction page size distribution from /home/bsc/bsc018186/scratch/itp_asplos25_AE/dump/smt_srv537_ap_srv582_ap_1024i.pdst
Data page size distrubution: 0
Loading data page size distribution from /home/bsc/bsc018186/scratch/itp_asplos25_AE/dump/smt_srv537_ap_srv582_ap_1024i.pdst
cpu0_L2C IP-based stride prefetcher
cpu0_L1D next line prefetcher
CHiRPing...
cpu0_L1I next line prefetcher
Off-chip DRAM Size: 4 GiB Channels: 1 Width: 64-bit Data Rate: 3200 MT/s
Heartbeat CPU 0 instructions: 10000001 cycles: 2500781 heartbeat IPC: 3.99876 cumulative IPC: 3.99876 (Simulation time: 0 hr 0 min 40 sec) 
Heartbeat CPU 0 instructions: 20000000 cycles: 5000992 heartbeat IPC: 3.99967 cumulative IPC: 3.99921 (Simulation time: 0 hr 1 min 22 sec) 
Heartbeat CPU 0 instructions: 30000002 cycles: 7501287 heartbeat IPC: 3.99953 cumulative IPC: 3.99932 (Simulation time: 0 hr 2 min 4 sec) 
Heartbeat CPU 0 instructions: 40000000 cycles: 10001441 heartbeat IPC: 3.99976 cumulative IPC: 3.99943 (Simulation time: 0 hr 2 min 46 sec) 
Heartbeat CPU 0 instructions: 50000001 cycles: 12501766 heartbeat IPC: 3.99949 cumulative IPC: 3.99944 (Simulation time: 0 hr 3 min 29 sec) 
Warmup finished CPU 0 instructions: 50000001 cycles: 12501767 cumulative IPC: 3.99944 (Simulation time: 0 hr 3 min 29 sec) 

Warmup complete CPU 0 instructions: 50000001 cycles: 12501767 (Simulation time: 0 hr 3 min 29 sec) 

Heartbeat CPU 0 instructions: 60000000 cycles: 40311266 heartbeat IPC: 0.35959 cumulative IPC: 0.35959 (Simulation time: 0 hr 4 min 53 sec) 
Heartbeat CPU 0 instructions: 70000000 cycles: 68592715 heartbeat IPC: 0.353589 cumulative IPC: 0.356564 (Simulation time: 0 hr 6 min 18 sec) 
Heartbeat CPU 0 instructions: 80000002 cycles: 95538665 heartbeat IPC: 0.371114 cumulative IPC: 0.361286 (Simulation time: 0 hr 7 min 42 sec) 
Heartbeat CPU 0 instructions: 90000000 cycles: 122905353 heartbeat IPC: 0.365408 cumulative IPC: 0.362308 (Simulation time: 0 hr 9 min 5 sec) 
Heartbeat CPU 0 instructions: 100000003 cycles: 151149252 heartbeat IPC: 0.354059 cumulative IPC: 0.360627 (Simulation time: 0 hr 10 min 32 sec) 
Heartbeat CPU 0 instructions: 110000000 cycles: 179760463 heartbeat IPC: 0.349514 cumulative IPC: 0.358726 (Simulation time: 0 hr 11 min 58 sec) 
Heartbeat CPU 0 instructions: 120000002 cycles: 207032714 heartbeat IPC: 0.366674 cumulative IPC: 0.35984 (Simulation time: 0 hr 13 min 22 sec) 
Heartbeat CPU 0 instructions: 130000003 cycles: 234048761 heartbeat IPC: 0.370151 cumulative IPC: 0.361098 (Simulation time: 0 hr 14 min 45 sec) 
Heartbeat CPU 0 instructions: 140000001 cycles: 261617347 heartbeat IPC: 0.362732 cumulative IPC: 0.361279 (Simulation time: 0 hr 16 min 9 sec) 
Heartbeat CPU 0 instructions: 150000002 cycles: 288557670 heartbeat IPC: 0.371191 cumulative IPC: 0.362246 (Simulation time: 0 hr 17 min 33 sec) 
Simulation finished CPU 0 instructions: 100000001 cycles: 276055904 cumulative IPC: 0.362246 (Simulation time: 0 hr 17 min 33 sec) 

Simulation complete CPU 0 instructions: 100000001 cycles: 276055904 (Simulation time: 0 hr 17 min 33 sec) 


ChampSim completed all CPUs

Saving instructions large page distribution to /home/bsc/bsc018186/scratch/itp_asplos25_AE/dump/smt_srv537_ap_srv582_ap_1024i.pdst...
Saving data large page distribution to /home/bsc/bsc018186/scratch/itp_asplos25_AE/dump/smt_srv537_ap_srv582_ap_1024i.pdst...
=== Simulation ===
CPU 0 runs /gpfs/projects/bsc18/MN4/bsc18/romol/ChampSim/traces/qualcomm_srv/smt_srv537_ap_srv582_ap_1024i.champsimtrace.xz

Region of Interest Statistics

CPU 0 cumulative IPC: 0.362246 instructions: 100000001 cycles: 276055904
CPU 0 Branch Prediction Accuracy: 75.196% MPKI: 44.8115 Average ROB Occupancy at Mispredict: 10.3265
Branch type MPKI
BRANCH_DIRECT_JUMP: 1.38827
BRANCH_INDIRECT: 23.1194
BRANCH_CONDITIONAL: 13.0578
BRANCH_DIRECT_CALL: 2.67901
BRANCH_INDIRECT_CALL: 1.03441
BRANCH_RETURN: 3.5327

Instructions large pages: 0
Instructions small pages: 10288
Large page distribution for instructions: 0%

Data large pages: 0
Data small pages: 8888
Large page distribution for data: 0%

cpu0_L1I TOTAL       ACCESS:   39764632  HIT:   30475030  MISS:    9289602  iACCESS:   39764632  iHIT:   30475030  iMISS:    9289602  dACCESS:          0  dHIT:          0  dMISS:          0  itACCESS:          0  itHIT:          0  itMISS:          0  dtACCESS:          0  dtHIT:          0  dtMISS:          0
cpu0_L1I LOAD         ACCESS:   11885978  HIT:    9366908  MISS:    2519070  iACCESS:   11885978  iHIT:    9366908  iMISS:    2519070  dACCESS:          0  dHIT:          0  dMISS:          0  itACCESS:          0  itHIT:          0  itMISS:          0  dtACCESS:          0  dtHIT:          0  dtMISS:          0
cpu0_L1I RFO          ACCESS:          0  HIT:          0  MISS:          0  iACCESS:          0  iHIT:          0  iMISS:          0  dACCESS:          0  dHIT:          0  dMISS:          0  itACCESS:          0  itHIT:          0  itMISS:          0  dtACCESS:          0  dtHIT:          0  dtMISS:          0
cpu0_L1I PREFETCH     ACCESS:   27878654  HIT:   21108122  MISS:    6770532  iACCESS:   27878654  iHIT:   21108122  iMISS:    6770532  dACCESS:          0  dHIT:          0  dMISS:          0  itACCESS:          0  itHIT:          0  itMISS:          0  dtACCESS:          0  dtHIT:          0  dtMISS:          0
cpu0_L1I WRITE        ACCESS:          0  HIT:          0  MISS:          0  iACCESS:          0  iHIT:          0  iMISS:          0  dACCESS:          0  dHIT:          0  dMISS:          0  itACCESS:          0  itHIT:          0  itMISS:          0  dtACCESS:          0  dtHIT:          0  dtMISS:          0
cpu0_L1I TRANSLATION  ACCESS:          0  HIT:          0  MISS:          0  iACCESS:          0  iHIT:          0  iMISS:          0  dACCESS:          0  dHIT:          0  dMISS:          0  itACCESS:          0  itHIT:          0  itMISS:          0  dtACCESS:          0  dtHIT:          0  dtMISS:          0
cpu0_L1I PREFETCH  REQUESTED:   30503949  ISSUED:   30502185  CROSSED:          0  USEFUL:    2228334  USELESS:     772104
cpu0_L1I AVERAGE iMISS LATENCY: 24.0269 cycles
cpu0_L1I AVERAGE dMISS LATENCY: 0 cycles
cpu0_L1I AVERAGE itMISS LATENCY: 0 cycles
cpu0_L1I AVERAGE dtMISS LATENCY: 0 cycles
cpu0_L1I PAGE CROSSINGS (TLB HIT):         0 
cpu0_L1I PAGE CROSSINGS (TLB MISS):         0 
cpu0_L1I AVERAGE MISS LATENCY: 24.0269 cycles
cpu0_ITLB TOTAL       ACCESS:   33429924  HIT:   31177730  MISS:    2252194  iACCESS:   33429924  iHIT:   31177730  iMISS:    2252194  dACCESS:          0  dHIT:          0  dMISS:          0  itACCESS:          0  itHIT:          0  itMISS:          0  dtACCESS:          0  dtHIT:          0  dtMISS:          0
cpu0_ITLB LOAD         ACCESS:   33429924  HIT:   31177730  MISS:    2252194  iACCESS:   33429924  iHIT:   31177730  iMISS:    2252194  dACCESS:          0  dHIT:          0  dMISS:          0  itACCESS:          0  itHIT:          0  itMISS:          0  dtACCESS:          0  dtHIT:          0  dtMISS:          0
cpu0_ITLB RFO          ACCESS:          0  HIT:          0  MISS:          0  iACCESS:          0  iHIT:          0  iMISS:          0  dACCESS:          0  dHIT:          0  dMISS:          0  itACCESS:          0  itHIT:          0  itMISS:          0  dtACCESS:          0  dtHIT:          0  dtMISS:          0
cpu0_ITLB PREFETCH     ACCESS:          0  HIT:          0  MISS:          0  iACCESS:          0  iHIT:          0  iMISS:          0  dACCESS:          0  dHIT:          0  dMISS:          0  itACCESS:          0  itHIT:          0  itMISS:          0  dtACCESS:          0  dtHIT:          0  dtMISS:          0
cpu0_ITLB WRITE        ACCESS:          0  HIT:          0  MISS:          0  iACCESS:          0  iHIT:          0  iMISS:          0  dACCESS:          0  dHIT:          0  dMISS:          0  itACCESS:          0  itHIT:          0  itMISS:          0  dtACCESS:          0  dtHIT:          0  dtMISS:          0
cpu0_ITLB TRANSLATION  ACCESS:          0  HIT:          0  MISS:          0  iACCESS:          0  iHIT:          0  iMISS:          0  dACCESS:          0  dHIT:          0  dMISS:          0  itACCESS:          0  itHIT:          0  itMISS:          0  dtACCESS:          0  dtHIT:          0  dtMISS:          0
cpu0_ITLB PREFETCH  REQUESTED:          0  ISSUED:          0  CROSSED:          0  USEFUL:     393810  USELESS:      80326
cpu0_ITLB AVERAGE iMISS LATENCY: 7.65254 cycles
cpu0_ITLB AVERAGE dMISS LATENCY: 0 cycles
cpu0_ITLB AVERAGE itMISS LATENCY: 0 cycles
cpu0_ITLB AVERAGE dtMISS LATENCY: 0 cycles
cpu0_ITLB PAGE CROSSINGS (TLB HIT):         0 
cpu0_ITLB PAGE CROSSINGS (TLB MISS):         0 
cpu0_ITLB AVERAGE MISS LATENCY: 7.65254 cycles
cpu0_DTLB TOTAL       ACCESS:   28879545  HIT:   25514642  MISS:    3364903  iACCESS:          0  iHIT:          0  iMISS:          0  dACCESS:   28879545  dHIT:   25514642  dMISS:    3364903  itACCESS:          0  itHIT:          0  itMISS:          0  dtACCESS:          0  dtHIT:          0  dtMISS:          0
cpu0_DTLB LOAD         ACCESS:   28879545  HIT:   25514642  MISS:    3364903  iACCESS:          0  iHIT:          0  iMISS:          0  dACCESS:   28879545  dHIT:   25514642  dMISS:    3364903  itACCESS:          0  itHIT:          0  itMISS:          0  dtACCESS:          0  dtHIT:          0  dtMISS:          0
cpu0_DTLB RFO          ACCESS:          0  HIT:          0  MISS:          0  iACCESS:          0  iHIT:          0  iMISS:          0  dACCESS:          0  dHIT:          0  dMISS:          0  itACCESS:          0  itHIT:          0  itMISS:          0  dtACCESS:          0  dtHIT:          0  dtMISS:          0
cpu0_DTLB PREFETCH     ACCESS:          0  HIT:          0  MISS:          0  iACCESS:          0  iHIT:          0  iMISS:          0  dACCESS:          0  dHIT:          0  dMISS:          0  itACCESS:          0  itHIT:          0  itMISS:          0  dtACCESS:          0  dtHIT:          0  dtMISS:          0
cpu0_DTLB WRITE        ACCESS:          0  HIT:          0  MISS:          0  iACCESS:          0  iHIT:          0  iMISS:          0  dACCESS:          0  dHIT:          0  dMISS:          0  itACCESS:          0  itHIT:          0  itMISS:          0  dtACCESS:          0  dtHIT:          0  dtMISS:          0
cpu0_DTLB TRANSLATION  ACCESS:          0  HIT:          0  MISS:          0  iACCESS:          0  iHIT:          0  iMISS:          0  dACCESS:          0  dHIT:          0  dMISS:          0  itACCESS:          0  itHIT:          0  itMISS:          0  dtACCESS:          0  dtHIT:          0  dtMISS:          0
cpu0_DTLB PREFETCH  REQUESTED:          0  ISSUED:          0  CROSSED:          0  USEFUL:          0  USELESS:          0
cpu0_DTLB AVERAGE iMISS LATENCY: 0 cycles
cpu0_DTLB AVERAGE dMISS LATENCY: 17.353 cycles
cpu0_DTLB AVERAGE itMISS LATENCY: 0 cycles
cpu0_DTLB AVERAGE dtMISS LATENCY: 0 cycles
cpu0_DTLB PAGE CROSSINGS (TLB HIT):         0 
cpu0_DTLB PAGE CROSSINGS (TLB MISS):         0 
cpu0_DTLB AVERAGE MISS LATENCY: 17.353 cycles
cpu0_STLB TOTAL       ACCESS:    2416891  HIT:    2048313  MISS:     368578  iACCESS:     474141  iHIT:     356666  iMISS:     117475  dACCESS:    1942750  dHIT:    1691647  dMISS:     251103  itACCESS:          0  itHIT:          0  itMISS:          0  dtACCESS:          0  dtHIT:          0  dtMISS:          0
cpu0_STLB LOAD         ACCESS:    2416891  HIT:    2048313  MISS:     368578  iACCESS:     474141  iHIT:     356666  iMISS:     117475  dACCESS:    1942750  dHIT:    1691647  dMISS:     251103  itACCESS:          0  itHIT:          0  itMISS:          0  dtACCESS:          0  dtHIT:          0  dtMISS:          0
cpu0_STLB RFO          ACCESS:          0  HIT:          0  MISS:          0  iACCESS:          0  iHIT:          0  iMISS:          0  dACCESS:          0  dHIT:          0  dMISS:          0  itACCESS:          0  itHIT:          0  itMISS:          0  dtACCESS:          0  dtHIT:          0  dtMISS:          0
cpu0_STLB PREFETCH     ACCESS:          0  HIT:          0  MISS:          0  iACCESS:          0  iHIT:          0  iMISS:          0  dACCESS:          0  dHIT:          0  dMISS:          0  itACCESS:          0  itHIT:          0  itMISS:          0  dtACCESS:          0  dtHIT:          0  dtMISS:          0
cpu0_STLB WRITE        ACCESS:          0  HIT:          0  MISS:          0  iACCESS:          0  iHIT:          0  iMISS:          0  dACCESS:          0  dHIT:          0  dMISS:          0  itACCESS:          0  itHIT:          0  itMISS:          0  dtACCESS:          0  dtHIT:          0  dtMISS:          0
cpu0_STLB TRANSLATION  ACCESS:          0  HIT:          0  MISS:          0  iACCESS:          0  iHIT:          0  iMISS:          0  dACCESS:          0  dHIT:          0  dMISS:          0  itACCESS:          0  itHIT:          0  itMISS:          0  dtACCESS:          0  dtHIT:          0  dtMISS:          0
cpu0_STLB PREFETCH  REQUESTED:          0  ISSUED:          0  CROSSED:          0  USEFUL:          0  USELESS:          0
cpu0_STLB AVERAGE iMISS LATENCY: 36.4744 cycles
cpu0_STLB AVERAGE dMISS LATENCY: 116.105 cycles
cpu0_STLB AVERAGE itMISS LATENCY: 0 cycles
cpu0_STLB AVERAGE dtMISS LATENCY: 0 cycles
cpu0_STLB PAGE CROSSINGS (TLB HIT):         0 
cpu0_STLB PAGE CROSSINGS (TLB MISS):         0 
cpu0_STLB AVERAGE MISS LATENCY: 152.579 cycles
cpu0_L1D TOTAL       ACCESS:   44997832  HIT:   39281875  MISS:    5715957  iACCESS:          0  iHIT:          0  iMISS:          0  dACCESS:   44457411  dHIT:   39249105  dMISS:    5208306  itACCESS:     130061  itHIT:      15809  itMISS:     114252  dtACCESS:     410360  dtHIT:      16961  dtMISS:     393399
cpu0_L1D LOAD         ACCESS:   20268033  HIT:   17930079  MISS:    2337954  iACCESS:          0  iHIT:          0  iMISS:          0  dACCESS:   20268033  dHIT:   17930079  dMISS:    2337954  itACCESS:          0  itHIT:          0  itMISS:          0  dtACCESS:          0  dtHIT:          0  dtMISS:          0
cpu0_L1D RFO          ACCESS:          0  HIT:          0  MISS:          0  iACCESS:          0  iHIT:          0  iMISS:          0  dACCESS:          0  dHIT:          0  dMISS:          0  itACCESS:          0  itHIT:          0  itMISS:          0  dtACCESS:          0  dtHIT:          0  dtMISS:          0
cpu0_L1D PREFETCH     ACCESS:   14005366  HIT:   11702299  MISS:    2303067  iACCESS:          0  iHIT:          0  iMISS:          0  dACCESS:   14005366  dHIT:   11702299  dMISS:    2303067  itACCESS:          0  itHIT:          0  itMISS:          0  dtACCESS:          0  dtHIT:          0  dtMISS:          0
cpu0_L1D WRITE        ACCESS:   10184012  HIT:    9616727  MISS:     567285  iACCESS:          0  iHIT:          0  iMISS:          0  dACCESS:   10184012  dHIT:    9616727  dMISS:     567285  itACCESS:          0  itHIT:          0  itMISS:          0  dtACCESS:          0  dtHIT:          0  dtMISS:          0
cpu0_L1D TRANSLATION  ACCESS:     540421  HIT:      32770  MISS:     507651  iACCESS:          0  iHIT:          0  iMISS:          0  dACCESS:          0  dHIT:          0  dMISS:          0  itACCESS:     130061  itHIT:      15809  itMISS:     114252  dtACCESS:     410360  dtHIT:      16961  dtMISS:     393399
cpu0_L1D PREFETCH  REQUESTED:   20268033  ISSUED:   18433027  CROSSED:          0  USEFUL:     373054  USELESS:     909950
cpu0_L1D AVERAGE iMISS LATENCY: 0 cycles
cpu0_L1D AVERAGE dMISS LATENCY: 50.2538 cycles
cpu0_L1D AVERAGE itMISS LATENCY: 2.15863 cycles
cpu0_L1D AVERAGE dtMISS LATENCY: 6.69801 cycles
cpu0_L1D PAGE CROSSINGS (TLB HIT):         0 
cpu0_L1D PAGE CROSSINGS (TLB MISS):         0 
cpu0_L1D AVERAGE MISS LATENCY: 59.1104 cycles
cpu0_L2C TOTAL       ACCESS:    8634170  HIT:    1522697  MISS:    7111473  iACCESS:    3813686  iHIT:     802336  iMISS:    3011350  dACCESS:    4347656  dHIT:     528374  dMISS:    3819282  itACCESS:     114126  itHIT:      40734  itMISS:      73392  dtACCESS:     358702  dtHIT:     151253  dtMISS:     207449
cpu0_L2C LOAD         ACCESS:    2052724  HIT:     201449  MISS:    1851275  iACCESS:     849977  iHIT:     112782  iMISS:     737195  dACCESS:    1202747  dHIT:      88667  dMISS:    1114080  itACCESS:          0  itHIT:          0  itMISS:          0  dtACCESS:          0  dtHIT:          0  dtMISS:          0
cpu0_L2C RFO          ACCESS:     214043  HIT:      28523  MISS:     185520  iACCESS:          0  iHIT:          0  iMISS:          0  dACCESS:     214043  dHIT:      28523  dMISS:     185520  itACCESS:          0  itHIT:          0  itMISS:          0  dtACCESS:          0  dtHIT:          0  dtMISS:          0
cpu0_L2C PREFETCH     ACCESS:    5550355  HIT:    1002353  MISS:    4548002  iACCESS:    2963709  iHIT:     689554  iMISS:    2274155  dACCESS:    2586646  dHIT:     312799  dMISS:    2273847  itACCESS:          0  itHIT:          0  itMISS:          0  dtACCESS:          0  dtHIT:          0  dtMISS:          0
cpu0_L2C WRITE        ACCESS:     344220  HIT:      98385  MISS:     245835  iACCESS:          0  iHIT:          0  iMISS:          0  dACCESS:     344220  dHIT:      98385  dMISS:     245835  itACCESS:          0  itHIT:          0  itMISS:          0  dtACCESS:          0  dtHIT:          0  dtMISS:          0
cpu0_L2C TRANSLATION  ACCESS:     472828  HIT:     191987  MISS:     280841  iACCESS:          0  iHIT:          0  iMISS:          0  dACCESS:          0  dHIT:          0  dMISS:          0  itACCESS:     114126  itHIT:      40734  itMISS:      73392  dtACCESS:     358702  dtHIT:     151253  dtMISS:     207449
cpu0_L2C PREFETCH  REQUESTED:    1547712  ISSUED:    1547711  CROSSED:          0  USEFUL:     415564  USELESS:     497844
cpu0_L2C AVERAGE iMISS LATENCY: 26.7774 cycles
cpu0_L2C AVERAGE dMISS LATENCY: 50.0498 cycles
cpu0_L2C AVERAGE itMISS LATENCY: 1.57985 cycles
cpu0_L2C AVERAGE dtMISS LATENCY: 4.89841 cycles
cpu0_L2C PAGE CROSSINGS (TLB HIT):         0 
cpu0_L2C PAGE CROSSINGS (TLB MISS):         0 
cpu0_L2C AVERAGE MISS LATENCY: 83.3054 cycles
LLC TOTAL       ACCESS:    6909670  HIT:    4180646  MISS:    2729024  iACCESS:    2917198  iHIT:    2060323  iMISS:     856875  dACCESS:    3711631  dHIT:    2055479  dMISS:    1656152  itACCESS:      73392  itHIT:      18449  itMISS:      54943  dtACCESS:     207449  dtHIT:      46395  dtMISS:     161054
LLC LOAD         ACCESS:    1843476  HIT:    1186129  MISS:     657347  iACCESS:     735897  iHIT:     555509  iMISS:     180388  dACCESS:    1107579  dHIT:     630620  dMISS:     476959  itACCESS:          0  itHIT:          0  itMISS:          0  dtACCESS:          0  dtHIT:          0  dtMISS:          0
LLC RFO          ACCESS:     185501  HIT:      93040  MISS:      92461  iACCESS:          0  iHIT:          0  iMISS:          0  dACCESS:     185501  dHIT:      93040  dMISS:      92461  itACCESS:          0  itHIT:          0  itMISS:          0  dtACCESS:          0  dtHIT:          0  dtMISS:          0
LLC PREFETCH     ACCESS:    4323908  HIT:    2567637  MISS:    1756271  iACCESS:    2181301  iHIT:    1504814  iMISS:     676487  dACCESS:    2142607  dHIT:    1062823  dMISS:    1079784  itACCESS:          0  itHIT:          0  itMISS:          0  dtACCESS:          0  dtHIT:          0  dtMISS:          0
LLC WRITE        ACCESS:     275944  HIT:     268996  MISS:       6948  iACCESS:          0  iHIT:          0  iMISS:          0  dACCESS:     275944  dHIT:     268996  dMISS:       6948  itACCESS:          0  itHIT:          0  itMISS:          0  dtACCESS:          0  dtHIT:          0  dtMISS:          0
LLC TRANSLATION  ACCESS:     280841  HIT:      64844  MISS:     215997  iACCESS:          0  iHIT:          0  iMISS:          0  dACCESS:          0  dHIT:          0  dMISS:          0  itACCESS:      73392  itHIT:      18449  itMISS:      54943  dtACCESS:     207449  dtHIT:      46395  dtMISS:     161054
LLC PREFETCH  REQUESTED:          0  ISSUED:          0  CROSSED:          0  USEFUL:          0  USELESS:          0
LLC AVERAGE iMISS LATENCY: 49.0214 cycles
LLC AVERAGE dMISS LATENCY: 106.784 cycles
LLC AVERAGE itMISS LATENCY: 3.5875 cycles
LLC AVERAGE dtMISS LATENCY: 11.2671 cycles
LLC PAGE CROSSINGS (TLB HIT):         0 
LLC PAGE CROSSINGS (TLB MISS):         0 
LLC AVERAGE MISS LATENCY: 170.66 cycles

PageTableWalker TOTAL       ACCESS:     186638  
PageTableWalker AVERAGE LATENCY: 5.80814 cycles
PageTableWalker TOTAL LATENCY: 1084018 cycles

DRAM Statistics
Channel 0
 RQ ROW_BUFFER_HIT:     620961
  ROW_BUFFER_MISS:    2082805
 AVG DBUS CONGESTED CYCLE:    3.65463
 WQ ROW_BUFFER_HIT:      67692
  ROW_BUFFER_MISS:      63570  FULL:          0

