last_page:0x200000000000000
VMEM_RES_CAP:0x100000
PAGE_SIZE:4096
LOG2_PAGE_SIZE:12
LOG2_PAGE_TABLE_SIZE:9
page_table_levels:5
WARNING: physical memory size is smaller than virtual memory size
FDiP enabled with aggresivity 16

*** ChampSim Multicore Out-of-Order Simulator ***

Warmup Instructions: 50000000
Simulation Instructions: 100000000
Number of CPUs: 1
Small page size: 4096
Large page size: 2097152

CPU 0 Bimodal branch predictor
Basic BTB sets: 1024 ways: 8 indirect buffer size: 4096 RAS size: 64
Instruction page size distrubution: 0
Loading instruction page size distribution from /home/bsc/bsc018186/scratch/itp_asplos25_AE/dump/smt_srv540_ap_srv180_ap_1024i.pdst
Data page size distrubution: 0
Loading data page size distribution from /home/bsc/bsc018186/scratch/itp_asplos25_AE/dump/smt_srv540_ap_srv180_ap_1024i.pdst
cpu0_L2C IP-based stride prefetcher
cpu0_L1D next line prefetcher
cpu0_STLB using iTP with max lru@8
cpu0_STLB using iTP with instr@0 and data@2
Init sat counter with 3 bits (max:50).
cpu0_L1I next line prefetcher
Off-chip DRAM Size: 4 GiB Channels: 1 Width: 64-bit Data Rate: 3200 MT/s
Heartbeat CPU 0 instructions: 10000000 cycles: 2500322 heartbeat IPC: 3.99949 cumulative IPC: 3.99949 (Simulation time: 0 hr 0 min 36 sec) 
Heartbeat CPU 0 instructions: 20000003 cycles: 5000387 heartbeat IPC: 3.9999 cumulative IPC: 3.9997 (Simulation time: 0 hr 1 min 15 sec) 
Heartbeat CPU 0 instructions: 30000001 cycles: 7500669 heartbeat IPC: 3.99955 cumulative IPC: 3.99965 (Simulation time: 0 hr 1 min 53 sec) 
Heartbeat CPU 0 instructions: 40000003 cycles: 10000899 heartbeat IPC: 3.99964 cumulative IPC: 3.99965 (Simulation time: 0 hr 2 min 33 sec) 
Heartbeat CPU 0 instructions: 50000002 cycles: 12500974 heartbeat IPC: 3.99988 cumulative IPC: 3.99969 (Simulation time: 0 hr 3 min 14 sec) 
Warmup finished CPU 0 instructions: 50000002 cycles: 12500975 cumulative IPC: 3.99969 (Simulation time: 0 hr 3 min 14 sec) 

Warmup complete CPU 0 instructions: 50000002 cycles: 12500975 (Simulation time: 0 hr 3 min 14 sec) 

Heartbeat CPU 0 instructions: 60000001 cycles: 38913608 heartbeat IPC: 0.378607 cumulative IPC: 0.378607 (Simulation time: 0 hr 4 min 38 sec) 
Heartbeat CPU 0 instructions: 70000003 cycles: 64280219 heartbeat IPC: 0.39422 cumulative IPC: 0.386256 (Simulation time: 0 hr 6 min 12 sec) 
Heartbeat CPU 0 instructions: 80000002 cycles: 90913990 heartbeat IPC: 0.375464 cumulative IPC: 0.38259 (Simulation time: 0 hr 7 min 57 sec) 
Heartbeat CPU 0 instructions: 90000000 cycles: 117258116 heartbeat IPC: 0.379592 cumulative IPC: 0.381836 (Simulation time: 0 hr 9 min 43 sec) 
Heartbeat CPU 0 instructions: 100000000 cycles: 144297655 heartbeat IPC: 0.369829 cumulative IPC: 0.379373 (Simulation time: 0 hr 11 min 31 sec) 
Heartbeat CPU 0 instructions: 110000000 cycles: 170622221 heartbeat IPC: 0.379874 cumulative IPC: 0.379456 (Simulation time: 0 hr 13 min 16 sec) 
Heartbeat CPU 0 instructions: 120000001 cycles: 197165613 heartbeat IPC: 0.376742 cumulative IPC: 0.379066 (Simulation time: 0 hr 15 min 0 sec) 
Heartbeat CPU 0 instructions: 130000000 cycles: 222983011 heartbeat IPC: 0.387336 cumulative IPC: 0.38008 (Simulation time: 0 hr 16 min 35 sec) 
Heartbeat CPU 0 instructions: 140000002 cycles: 249861683 heartbeat IPC: 0.372043 cumulative IPC: 0.37917 (Simulation time: 0 hr 18 min 0 sec) 
Heartbeat CPU 0 instructions: 150000001 cycles: 275406805 heartbeat IPC: 0.391465 cumulative IPC: 0.380365 (Simulation time: 0 hr 19 min 19 sec) 
Simulation finished CPU 0 instructions: 100000004 cycles: 262905832 cumulative IPC: 0.380365 (Simulation time: 0 hr 19 min 19 sec) 

Simulation complete CPU 0 instructions: 100000004 cycles: 262905832 (Simulation time: 0 hr 19 min 19 sec) 


ChampSim completed all CPUs

Saving instructions large page distribution to /home/bsc/bsc018186/scratch/itp_asplos25_AE/dump/smt_srv540_ap_srv180_ap_1024i.pdst...
Saving data large page distribution to /home/bsc/bsc018186/scratch/itp_asplos25_AE/dump/smt_srv540_ap_srv180_ap_1024i.pdst...
=== Simulation ===
CPU 0 runs /gpfs/projects/bsc18/MN4/bsc18/romol/ChampSim/traces/qualcomm_srv/smt_srv540_ap_srv180_ap_1024i.champsimtrace.xz

Region of Interest Statistics

CPU 0 cumulative IPC: 0.380365 instructions: 100000004 cycles: 262905832
CPU 0 Branch Prediction Accuracy: 75.9656% MPKI: 43.2063 Average ROB Occupancy at Mispredict: 11.2294
Branch type MPKI
BRANCH_DIRECT_JUMP: 1.30203
BRANCH_INDIRECT: 22.4852
BRANCH_CONDITIONAL: 12.5604
BRANCH_DIRECT_CALL: 2.49187
BRANCH_INDIRECT_CALL: 0.92576
BRANCH_RETURN: 3.44105

Instructions large pages: 0
Instructions small pages: 13008
Large page distribution for instructions: 0%

Data large pages: 0
Data small pages: 11794
Large page distribution for data: 0%

cpu0_L1I TOTAL       ACCESS:   39397514  HIT:   30304332  MISS:    9093182  iACCESS:   39397514  iHIT:   30304332  iMISS:    9093182  dACCESS:          0  dHIT:          0  dMISS:          0  itACCESS:          0  itHIT:          0  itMISS:          0  dtACCESS:          0  dtHIT:          0  dtMISS:          0
cpu0_L1I LOAD         ACCESS:   11835671  HIT:    9366618  MISS:    2469053  iACCESS:   11835671  iHIT:    9366618  iMISS:    2469053  dACCESS:          0  dHIT:          0  dMISS:          0  itACCESS:          0  itHIT:          0  itMISS:          0  dtACCESS:          0  dtHIT:          0  dtMISS:          0
cpu0_L1I RFO          ACCESS:          0  HIT:          0  MISS:          0  iACCESS:          0  iHIT:          0  iMISS:          0  dACCESS:          0  dHIT:          0  dMISS:          0  itACCESS:          0  itHIT:          0  itMISS:          0  dtACCESS:          0  dtHIT:          0  dtMISS:          0
cpu0_L1I PREFETCH     ACCESS:   27561843  HIT:   20937714  MISS:    6624129  iACCESS:   27561843  iHIT:   20937714  iMISS:    6624129  dACCESS:          0  dHIT:          0  dMISS:          0  itACCESS:          0  itHIT:          0  itMISS:          0  dtACCESS:          0  dtHIT:          0  dtMISS:          0
cpu0_L1I WRITE        ACCESS:          0  HIT:          0  MISS:          0  iACCESS:          0  iHIT:          0  iMISS:          0  dACCESS:          0  dHIT:          0  dMISS:          0  itACCESS:          0  itHIT:          0  itMISS:          0  dtACCESS:          0  dtHIT:          0  dtMISS:          0
cpu0_L1I TRANSLATION  ACCESS:          0  HIT:          0  MISS:          0  iACCESS:          0  iHIT:          0  iMISS:          0  dACCESS:          0  dHIT:          0  dMISS:          0  itACCESS:          0  itHIT:          0  itMISS:          0  dtACCESS:          0  dtHIT:          0  dtMISS:          0
cpu0_L1I PREFETCH  REQUESTED:   30257837  ISSUED:   30256699  CROSSED:          0  USEFUL:    2190079  USELESS:     745012
cpu0_L1I AVERAGE iMISS LATENCY: 22.9114 cycles
cpu0_L1I AVERAGE dMISS LATENCY: 0 cycles
cpu0_L1I AVERAGE itMISS LATENCY: 0 cycles
cpu0_L1I AVERAGE dtMISS LATENCY: 0 cycles
cpu0_L1I PAGE CROSSINGS (TLB HIT):         0 
cpu0_L1I PAGE CROSSINGS (TLB MISS):         0 
cpu0_L1I AVERAGE MISS LATENCY: 22.9114 cycles
cpu0_ITLB TOTAL       ACCESS:   33025431  HIT:   30856851  MISS:    2168580  iACCESS:   33025431  iHIT:   30856851  iMISS:    2168580  dACCESS:          0  dHIT:          0  dMISS:          0  itACCESS:          0  itHIT:          0  itMISS:          0  dtACCESS:          0  dtHIT:          0  dtMISS:          0
cpu0_ITLB LOAD         ACCESS:   33025431  HIT:   30856851  MISS:    2168580  iACCESS:   33025431  iHIT:   30856851  iMISS:    2168580  dACCESS:          0  dHIT:          0  dMISS:          0  itACCESS:          0  itHIT:          0  itMISS:          0  dtACCESS:          0  dtHIT:          0  dtMISS:          0
cpu0_ITLB RFO          ACCESS:          0  HIT:          0  MISS:          0  iACCESS:          0  iHIT:          0  iMISS:          0  dACCESS:          0  dHIT:          0  dMISS:          0  itACCESS:          0  itHIT:          0  itMISS:          0  dtACCESS:          0  dtHIT:          0  dtMISS:          0
cpu0_ITLB PREFETCH     ACCESS:          0  HIT:          0  MISS:          0  iACCESS:          0  iHIT:          0  iMISS:          0  dACCESS:          0  dHIT:          0  dMISS:          0  itACCESS:          0  itHIT:          0  itMISS:          0  dtACCESS:          0  dtHIT:          0  dtMISS:          0
cpu0_ITLB WRITE        ACCESS:          0  HIT:          0  MISS:          0  iACCESS:          0  iHIT:          0  iMISS:          0  dACCESS:          0  dHIT:          0  dMISS:          0  itACCESS:          0  itHIT:          0  itMISS:          0  dtACCESS:          0  dtHIT:          0  dtMISS:          0
cpu0_ITLB TRANSLATION  ACCESS:          0  HIT:          0  MISS:          0  iACCESS:          0  iHIT:          0  iMISS:          0  dACCESS:          0  dHIT:          0  dMISS:          0  itACCESS:          0  itHIT:          0  itMISS:          0  dtACCESS:          0  dtHIT:          0  dtMISS:          0
cpu0_ITLB PREFETCH  REQUESTED:          0  ISSUED:          0  CROSSED:          0  USEFUL:     380482  USELESS:      76580
cpu0_ITLB AVERAGE iMISS LATENCY: 5.11542 cycles
cpu0_ITLB AVERAGE dMISS LATENCY: 0 cycles
cpu0_ITLB AVERAGE itMISS LATENCY: 0 cycles
cpu0_ITLB AVERAGE dtMISS LATENCY: 0 cycles
cpu0_ITLB PAGE CROSSINGS (TLB HIT):         0 
cpu0_ITLB PAGE CROSSINGS (TLB MISS):         0 
cpu0_ITLB AVERAGE MISS LATENCY: 5.11542 cycles
cpu0_DTLB TOTAL       ACCESS:   28750447  HIT:   25080834  MISS:    3669613  iACCESS:          0  iHIT:          0  iMISS:          0  dACCESS:   28750447  dHIT:   25080834  dMISS:    3669613  itACCESS:          0  itHIT:          0  itMISS:          0  dtACCESS:          0  dtHIT:          0  dtMISS:          0
cpu0_DTLB LOAD         ACCESS:   28750447  HIT:   25080834  MISS:    3669613  iACCESS:          0  iHIT:          0  iMISS:          0  dACCESS:   28750447  dHIT:   25080834  dMISS:    3669613  itACCESS:          0  itHIT:          0  itMISS:          0  dtACCESS:          0  dtHIT:          0  dtMISS:          0
cpu0_DTLB RFO          ACCESS:          0  HIT:          0  MISS:          0  iACCESS:          0  iHIT:          0  iMISS:          0  dACCESS:          0  dHIT:          0  dMISS:          0  itACCESS:          0  itHIT:          0  itMISS:          0  dtACCESS:          0  dtHIT:          0  dtMISS:          0
cpu0_DTLB PREFETCH     ACCESS:          0  HIT:          0  MISS:          0  iACCESS:          0  iHIT:          0  iMISS:          0  dACCESS:          0  dHIT:          0  dMISS:          0  itACCESS:          0  itHIT:          0  itMISS:          0  dtACCESS:          0  dtHIT:          0  dtMISS:          0
cpu0_DTLB WRITE        ACCESS:          0  HIT:          0  MISS:          0  iACCESS:          0  iHIT:          0  iMISS:          0  dACCESS:          0  dHIT:          0  dMISS:          0  itACCESS:          0  itHIT:          0  itMISS:          0  dtACCESS:          0  dtHIT:          0  dtMISS:          0
cpu0_DTLB TRANSLATION  ACCESS:          0  HIT:          0  MISS:          0  iACCESS:          0  iHIT:          0  iMISS:          0  dACCESS:          0  dHIT:          0  dMISS:          0  itACCESS:          0  itHIT:          0  itMISS:          0  dtACCESS:          0  dtHIT:          0  dtMISS:          0
cpu0_DTLB PREFETCH  REQUESTED:          0  ISSUED:          0  CROSSED:          0  USEFUL:          0  USELESS:          0
cpu0_DTLB AVERAGE iMISS LATENCY: 0 cycles
cpu0_DTLB AVERAGE dMISS LATENCY: 17.9807 cycles
cpu0_DTLB AVERAGE itMISS LATENCY: 0 cycles
cpu0_DTLB AVERAGE dtMISS LATENCY: 0 cycles
cpu0_DTLB PAGE CROSSINGS (TLB HIT):         0 
cpu0_DTLB PAGE CROSSINGS (TLB MISS):         0 
cpu0_DTLB AVERAGE MISS LATENCY: 17.9807 cycles
cpu0_STLB TOTAL       ACCESS:    2582886  HIT:    2227646  MISS:     355240  iACCESS:     457071  iHIT:     407622  iMISS:      49449  dACCESS:    2125815  dHIT:    1820024  dMISS:     305791  itACCESS:          0  itHIT:          0  itMISS:          0  dtACCESS:          0  dtHIT:          0  dtMISS:          0
cpu0_STLB LOAD         ACCESS:    2582886  HIT:    2227646  MISS:     355240  iACCESS:     457071  iHIT:     407622  iMISS:      49449  dACCESS:    2125815  dHIT:    1820024  dMISS:     305791  itACCESS:          0  itHIT:          0  itMISS:          0  dtACCESS:          0  dtHIT:          0  dtMISS:          0
cpu0_STLB RFO          ACCESS:          0  HIT:          0  MISS:          0  iACCESS:          0  iHIT:          0  iMISS:          0  dACCESS:          0  dHIT:          0  dMISS:          0  itACCESS:          0  itHIT:          0  itMISS:          0  dtACCESS:          0  dtHIT:          0  dtMISS:          0
cpu0_STLB PREFETCH     ACCESS:          0  HIT:          0  MISS:          0  iACCESS:          0  iHIT:          0  iMISS:          0  dACCESS:          0  dHIT:          0  dMISS:          0  itACCESS:          0  itHIT:          0  itMISS:          0  dtACCESS:          0  dtHIT:          0  dtMISS:          0
cpu0_STLB WRITE        ACCESS:          0  HIT:          0  MISS:          0  iACCESS:          0  iHIT:          0  iMISS:          0  dACCESS:          0  dHIT:          0  dMISS:          0  itACCESS:          0  itHIT:          0  itMISS:          0  dtACCESS:          0  dtHIT:          0  dtMISS:          0
cpu0_STLB TRANSLATION  ACCESS:          0  HIT:          0  MISS:          0  iACCESS:          0  iHIT:          0  iMISS:          0  dACCESS:          0  dHIT:          0  dMISS:          0  itACCESS:          0  itHIT:          0  itMISS:          0  dtACCESS:          0  dtHIT:          0  dtMISS:          0
cpu0_STLB PREFETCH  REQUESTED:          0  ISSUED:          0  CROSSED:          0  USEFUL:          0  USELESS:          0
cpu0_STLB AVERAGE iMISS LATENCY: 21.1391 cycles
cpu0_STLB AVERAGE dMISS LATENCY: 137.529 cycles
cpu0_STLB AVERAGE itMISS LATENCY: 0 cycles
cpu0_STLB AVERAGE dtMISS LATENCY: 0 cycles
cpu0_STLB PAGE CROSSINGS (TLB HIT):         0 
cpu0_STLB PAGE CROSSINGS (TLB MISS):         0 
cpu0_STLB AVERAGE MISS LATENCY: 158.668 cycles
cpu0_L1D TOTAL       ACCESS:   44176860  HIT:   38935803  MISS:    5241057  iACCESS:          0  iHIT:          0  iMISS:          0  dACCESS:   43633198  dHIT:   38906335  dMISS:    4726863  itACCESS:      58642  itHIT:       4849  itMISS:      53793  dtACCESS:     485020  dtHIT:      24619  dtMISS:     460401
cpu0_L1D LOAD         ACCESS:   19945993  HIT:   17829404  MISS:    2116589  iACCESS:          0  iHIT:          0  iMISS:          0  dACCESS:   19945993  dHIT:   17829404  dMISS:    2116589  itACCESS:          0  itHIT:          0  itMISS:          0  dtACCESS:          0  dtHIT:          0  dtMISS:          0
cpu0_L1D RFO          ACCESS:          0  HIT:          0  MISS:          0  iACCESS:          0  iHIT:          0  iMISS:          0  dACCESS:          0  dHIT:          0  dMISS:          0  itACCESS:          0  itHIT:          0  itMISS:          0  dtACCESS:          0  dtHIT:          0  dtMISS:          0
cpu0_L1D PREFETCH     ACCESS:   13558996  HIT:   11498278  MISS:    2060718  iACCESS:          0  iHIT:          0  iMISS:          0  dACCESS:   13558996  dHIT:   11498278  dMISS:    2060718  itACCESS:          0  itHIT:          0  itMISS:          0  dtACCESS:          0  dtHIT:          0  dtMISS:          0
cpu0_L1D WRITE        ACCESS:   10128209  HIT:    9578653  MISS:     549556  iACCESS:          0  iHIT:          0  iMISS:          0  dACCESS:   10128209  dHIT:    9578653  dMISS:     549556  itACCESS:          0  itHIT:          0  itMISS:          0  dtACCESS:          0  dtHIT:          0  dtMISS:          0
cpu0_L1D TRANSLATION  ACCESS:     543662  HIT:      29468  MISS:     514194  iACCESS:          0  iHIT:          0  iMISS:          0  dACCESS:          0  dHIT:          0  dMISS:          0  itACCESS:      58642  itHIT:       4849  itMISS:      53793  dtACCESS:     485020  dtHIT:      24619  dtMISS:     460401
cpu0_L1D PREFETCH  REQUESTED:   19945993  ISSUED:   18280186  CROSSED:          0  USEFUL:     359758  USELESS:     921104
cpu0_L1D AVERAGE iMISS LATENCY: 0 cycles
cpu0_L1D AVERAGE dMISS LATENCY: 51.5825 cycles
cpu0_L1D AVERAGE itMISS LATENCY: 1.33747 cycles
cpu0_L1D AVERAGE dtMISS LATENCY: 8.23799 cycles
cpu0_L1D PAGE CROSSINGS (TLB HIT):         0 
cpu0_L1D PAGE CROSSINGS (TLB MISS):         0 
cpu0_L1D AVERAGE MISS LATENCY: 61.158 cycles
cpu0_L2C TOTAL       ACCESS:    8513256  HIT:    1574601  MISS:    6938655  iACCESS:    3727219  iHIT:     813358  iMISS:    2913861  dACCESS:    4294153  dHIT:     557979  dMISS:    3736174  itACCESS:      53693  itHIT:      14316  itMISS:      39377  dtACCESS:     438191  dtHIT:     188948  dtMISS:     249243
cpu0_L2C LOAD         ACCESS:    2014293  HIT:     210158  MISS:    1804135  iACCESS:     829628  iHIT:     114219  iMISS:     715409  dACCESS:    1184665  dHIT:      95939  dMISS:    1088726  itACCESS:          0  itHIT:          0  itMISS:          0  dtACCESS:          0  dtHIT:          0  dtMISS:          0
cpu0_L2C RFO          ACCESS:     213142  HIT:      34211  MISS:     178931  iACCESS:          0  iHIT:          0  iMISS:          0  dACCESS:     213142  dHIT:      34211  dMISS:     178931  itACCESS:          0  itHIT:          0  itMISS:          0  dtACCESS:          0  dtHIT:          0  dtMISS:          0
cpu0_L2C PREFETCH     ACCESS:    5447383  HIT:    1019230  MISS:    4428153  iACCESS:    2897591  iHIT:     699139  iMISS:    2198452  dACCESS:    2549792  dHIT:     320091  dMISS:    2229701  itACCESS:          0  itHIT:          0  itMISS:          0  dtACCESS:          0  dtHIT:          0  dtMISS:          0
cpu0_L2C WRITE        ACCESS:     346554  HIT:     107738  MISS:     238816  iACCESS:          0  iHIT:          0  iMISS:          0  dACCESS:     346554  dHIT:     107738  dMISS:     238816  itACCESS:          0  itHIT:          0  itMISS:          0  dtACCESS:          0  dtHIT:          0  dtMISS:          0
cpu0_L2C TRANSLATION  ACCESS:     491884  HIT:     203264  MISS:     288620  iACCESS:          0  iHIT:          0  iMISS:          0  dACCESS:          0  dHIT:          0  dMISS:          0  itACCESS:      53693  itHIT:      14316  itMISS:      39377  dtACCESS:     438191  dtHIT:     188948  dtMISS:     249243
cpu0_L2C PREFETCH  REQUESTED:    1518798  ISSUED:    1518793  CROSSED:          0  USEFUL:     413682  USELESS:     478893
cpu0_L2C AVERAGE iMISS LATENCY: 25.3436 cycles
cpu0_L2C AVERAGE dMISS LATENCY: 47.8795 cycles
cpu0_L2C AVERAGE itMISS LATENCY: 0.934742 cycles
cpu0_L2C AVERAGE dtMISS LATENCY: 5.61527 cycles
cpu0_L2C PAGE CROSSINGS (TLB HIT):         0 
cpu0_L2C PAGE CROSSINGS (TLB MISS):         0 
cpu0_L2C AVERAGE MISS LATENCY: 79.7731 cycles
LLC TOTAL       ACCESS:    6756097  HIT:    4251474  MISS:    2504623  iACCESS:    2824113  iHIT:    2057645  iMISS:     766468  dACCESS:    3643364  dHIT:    2118841  dMISS:    1524523  itACCESS:      39377  itHIT:       7720  itMISS:      31657  dtACCESS:     249243  dtHIT:      67268  dtMISS:     181975
LLC LOAD         ACCESS:    1798971  HIT:    1199811  MISS:     599160  iACCESS:     714105  iHIT:     553970  iMISS:     160135  dACCESS:    1084866  dHIT:     645841  dMISS:     439025  itACCESS:          0  itHIT:          0  itMISS:          0  dtACCESS:          0  dtHIT:          0  dtMISS:          0
LLC RFO          ACCESS:     178898  HIT:      93573  MISS:      85325  iACCESS:          0  iHIT:          0  iMISS:          0  dACCESS:     178898  dHIT:      93573  dMISS:      85325  itACCESS:          0  itHIT:          0  itMISS:          0  dtACCESS:          0  dtHIT:          0  dtMISS:          0
LLC PREFETCH     ACCESS:    4224167  HIT:    2625848  MISS:    1598319  iACCESS:    2110008  iHIT:    1503675  iMISS:     606333  dACCESS:    2114159  dHIT:    1122173  dMISS:     991986  itACCESS:          0  itHIT:          0  itMISS:          0  dtACCESS:          0  dtHIT:          0  dtMISS:          0
LLC WRITE        ACCESS:     265441  HIT:     257254  MISS:       8187  iACCESS:          0  iHIT:          0  iMISS:          0  dACCESS:     265441  dHIT:     257254  dMISS:       8187  itACCESS:          0  itHIT:          0  itMISS:          0  dtACCESS:          0  dtHIT:          0  dtMISS:          0
LLC TRANSLATION  ACCESS:     288620  HIT:      74988  MISS:     213632  iACCESS:          0  iHIT:          0  iMISS:          0  dACCESS:          0  dHIT:          0  dMISS:          0  itACCESS:      39377  itHIT:       7720  itMISS:      31657  dtACCESS:     249243  dtHIT:      67268  dtMISS:     181975
LLC PREFETCH  REQUESTED:          0  ISSUED:          0  CROSSED:          0  USEFUL:          0  USELESS:          0
LLC AVERAGE iMISS LATENCY: 48.3345 cycles
LLC AVERAGE dMISS LATENCY: 107.111 cycles
LLC AVERAGE itMISS LATENCY: 2.27937 cycles
LLC AVERAGE dtMISS LATENCY: 13.5982 cycles
LLC PAGE CROSSINGS (TLB HIT):         0 
LLC PAGE CROSSINGS (TLB MISS):         0 
LLC AVERAGE MISS LATENCY: 171.323 cycles

PageTableWalker TOTAL       ACCESS:     176977  
PageTableWalker AVERAGE LATENCY: 6.1679 cycles
PageTableWalker TOTAL LATENCY: 1091575 cycles

DRAM Statistics
Channel 0
 RQ ROW_BUFFER_HIT:     556387
  ROW_BUFFER_MISS:    1929576
 AVG DBUS CONGESTED CYCLE:    3.64997
 WQ ROW_BUFFER_HIT:      61620
  ROW_BUFFER_MISS:      57703  FULL:          0

