last_page:0x200000000000000
VMEM_RES_CAP:0x100000
PAGE_SIZE:4096
LOG2_PAGE_SIZE:12
LOG2_PAGE_TABLE_SIZE:9
page_table_levels:5
WARNING: physical memory size is smaller than virtual memory size
FDiP enabled with aggresivity 16

*** ChampSim Multicore Out-of-Order Simulator ***

Warmup Instructions: 50000000
Simulation Instructions: 100000000
Number of CPUs: 1
Small page size: 4096
Large page size: 2097152

CPU 0 Bimodal branch predictor
Basic BTB sets: 1024 ways: 8 indirect buffer size: 4096 RAS size: 64
Instruction page size distrubution: 0
Loading instruction page size distribution from /home/bsc/bsc018186/scratch/itp_asplos25_AE/dump/smt_srv540_ap_srv180_ap_1024i.pdst
Data page size distrubution: 0
Loading data page size distribution from /home/bsc/bsc018186/scratch/itp_asplos25_AE/dump/smt_srv540_ap_srv180_ap_1024i.pdst
cpu0_L2C IP-based stride prefetcher
cpu0_L1D next line prefetcher
CHiRPing...
cpu0_L1I next line prefetcher
Off-chip DRAM Size: 4 GiB Channels: 1 Width: 64-bit Data Rate: 3200 MT/s
Heartbeat CPU 0 instructions: 10000001 cycles: 2500487 heartbeat IPC: 3.99923 cumulative IPC: 3.99923 (Simulation time: 0 hr 0 min 43 sec) 
Heartbeat CPU 0 instructions: 20000000 cycles: 5000651 heartbeat IPC: 3.99974 cumulative IPC: 3.99948 (Simulation time: 0 hr 1 min 28 sec) 
Heartbeat CPU 0 instructions: 30000003 cycles: 7501045 heartbeat IPC: 3.99938 cumulative IPC: 3.99945 (Simulation time: 0 hr 2 min 14 sec) 
Heartbeat CPU 0 instructions: 40000003 cycles: 10001424 heartbeat IPC: 3.9994 cumulative IPC: 3.99944 (Simulation time: 0 hr 3 min 0 sec) 
Heartbeat CPU 0 instructions: 50000000 cycles: 12501537 heartbeat IPC: 3.99982 cumulative IPC: 3.99951 (Simulation time: 0 hr 3 min 47 sec) 
Warmup finished CPU 0 instructions: 50000000 cycles: 12501538 cumulative IPC: 3.99951 (Simulation time: 0 hr 3 min 47 sec) 

Warmup complete CPU 0 instructions: 50000000 cycles: 12501538 (Simulation time: 0 hr 3 min 47 sec) 

Heartbeat CPU 0 instructions: 60000001 cycles: 39069717 heartbeat IPC: 0.376391 cumulative IPC: 0.376391 (Simulation time: 0 hr 5 min 15 sec) 
Heartbeat CPU 0 instructions: 70000003 cycles: 64637059 heartbeat IPC: 0.391125 cumulative IPC: 0.383616 (Simulation time: 0 hr 6 min 40 sec) 
Heartbeat CPU 0 instructions: 80000002 cycles: 91502136 heartbeat IPC: 0.372231 cumulative IPC: 0.379744 (Simulation time: 0 hr 8 min 8 sec) 
Heartbeat CPU 0 instructions: 90000000 cycles: 117949497 heartbeat IPC: 0.37811 cumulative IPC: 0.379335 (Simulation time: 0 hr 9 min 31 sec) 
Heartbeat CPU 0 instructions: 100000000 cycles: 145194175 heartbeat IPC: 0.367045 cumulative IPC: 0.376811 (Simulation time: 0 hr 10 min 55 sec) 
Heartbeat CPU 0 instructions: 110000000 cycles: 171600930 heartbeat IPC: 0.378691 cumulative IPC: 0.377123 (Simulation time: 0 hr 12 min 18 sec) 
Heartbeat CPU 0 instructions: 120000002 cycles: 198224143 heartbeat IPC: 0.375613 cumulative IPC: 0.376907 (Simulation time: 0 hr 13 min 40 sec) 
Heartbeat CPU 0 instructions: 130000000 cycles: 223995191 heartbeat IPC: 0.388033 cumulative IPC: 0.378262 (Simulation time: 0 hr 15 min 3 sec) 
Heartbeat CPU 0 instructions: 140000002 cycles: 250896923 heartbeat IPC: 0.371724 cumulative IPC: 0.377525 (Simulation time: 0 hr 16 min 26 sec) 
Heartbeat CPU 0 instructions: 150000001 cycles: 276344774 heartbeat IPC: 0.392961 cumulative IPC: 0.379013 (Simulation time: 0 hr 17 min 47 sec) 
Simulation finished CPU 0 instructions: 100000001 cycles: 263843237 cumulative IPC: 0.379013 (Simulation time: 0 hr 17 min 47 sec) 

Simulation complete CPU 0 instructions: 100000001 cycles: 263843237 (Simulation time: 0 hr 17 min 47 sec) 


ChampSim completed all CPUs

Saving instructions large page distribution to /home/bsc/bsc018186/scratch/itp_asplos25_AE/dump/smt_srv540_ap_srv180_ap_1024i.pdst...
Saving data large page distribution to /home/bsc/bsc018186/scratch/itp_asplos25_AE/dump/smt_srv540_ap_srv180_ap_1024i.pdst...
=== Simulation ===
CPU 0 runs /gpfs/projects/bsc18/MN4/bsc18/romol/ChampSim/traces/qualcomm_srv/smt_srv540_ap_srv180_ap_1024i.champsimtrace.xz

Region of Interest Statistics

CPU 0 cumulative IPC: 0.379013 instructions: 100000001 cycles: 263843237
CPU 0 Branch Prediction Accuracy: 75.9656% MPKI: 43.2063 Average ROB Occupancy at Mispredict: 11.1102
Branch type MPKI
BRANCH_DIRECT_JUMP: 1.30203
BRANCH_INDIRECT: 22.4852
BRANCH_CONDITIONAL: 12.5604
BRANCH_DIRECT_CALL: 2.49187
BRANCH_INDIRECT_CALL: 0.92576
BRANCH_RETURN: 3.44105

Instructions large pages: 0
Instructions small pages: 13008
Large page distribution for instructions: 0%

Data large pages: 0
Data small pages: 11794
Large page distribution for data: 0%

cpu0_L1I TOTAL       ACCESS:   39409641  HIT:   30305907  MISS:    9103734  iACCESS:   39409641  iHIT:   30305907  iMISS:    9103734  dACCESS:          0  dHIT:          0  dMISS:          0  itACCESS:          0  itHIT:          0  itMISS:          0  dtACCESS:          0  dtHIT:          0  dtMISS:          0
cpu0_L1I LOAD         ACCESS:   11838355  HIT:    9366851  MISS:    2471504  iACCESS:   11838355  iHIT:    9366851  iMISS:    2471504  dACCESS:          0  dHIT:          0  dMISS:          0  itACCESS:          0  itHIT:          0  itMISS:          0  dtACCESS:          0  dtHIT:          0  dtMISS:          0
cpu0_L1I RFO          ACCESS:          0  HIT:          0  MISS:          0  iACCESS:          0  iHIT:          0  iMISS:          0  dACCESS:          0  dHIT:          0  dMISS:          0  itACCESS:          0  itHIT:          0  itMISS:          0  dtACCESS:          0  dtHIT:          0  dtMISS:          0
cpu0_L1I PREFETCH     ACCESS:   27571286  HIT:   20939056  MISS:    6632230  iACCESS:   27571286  iHIT:   20939056  iMISS:    6632230  dACCESS:          0  dHIT:          0  dMISS:          0  itACCESS:          0  itHIT:          0  itMISS:          0  dtACCESS:          0  dtHIT:          0  dtMISS:          0
cpu0_L1I WRITE        ACCESS:          0  HIT:          0  MISS:          0  iACCESS:          0  iHIT:          0  iMISS:          0  dACCESS:          0  dHIT:          0  dMISS:          0  itACCESS:          0  itHIT:          0  itMISS:          0  dtACCESS:          0  dtHIT:          0  dtMISS:          0
cpu0_L1I TRANSLATION  ACCESS:          0  HIT:          0  MISS:          0  iACCESS:          0  iHIT:          0  iMISS:          0  dACCESS:          0  dHIT:          0  dMISS:          0  itACCESS:          0  itHIT:          0  itMISS:          0  dtACCESS:          0  dtHIT:          0  dtMISS:          0
cpu0_L1I PREFETCH  REQUESTED:   30260178  ISSUED:   30258745  CROSSED:          0  USEFUL:    2188483  USELESS:     744906
cpu0_L1I AVERAGE iMISS LATENCY: 22.8697 cycles
cpu0_L1I AVERAGE dMISS LATENCY: 0 cycles
cpu0_L1I AVERAGE itMISS LATENCY: 0 cycles
cpu0_L1I AVERAGE dtMISS LATENCY: 0 cycles
cpu0_L1I PAGE CROSSINGS (TLB HIT):         0 
cpu0_L1I PAGE CROSSINGS (TLB MISS):         0 
cpu0_L1I AVERAGE MISS LATENCY: 22.8697 cycles
cpu0_ITLB TOTAL       ACCESS:   33028524  HIT:   30853510  MISS:    2175014  iACCESS:   33028524  iHIT:   30853510  iMISS:    2175014  dACCESS:          0  dHIT:          0  dMISS:          0  itACCESS:          0  itHIT:          0  itMISS:          0  dtACCESS:          0  dtHIT:          0  dtMISS:          0
cpu0_ITLB LOAD         ACCESS:   33028524  HIT:   30853510  MISS:    2175014  iACCESS:   33028524  iHIT:   30853510  iMISS:    2175014  dACCESS:          0  dHIT:          0  dMISS:          0  itACCESS:          0  itHIT:          0  itMISS:          0  dtACCESS:          0  dtHIT:          0  dtMISS:          0
cpu0_ITLB RFO          ACCESS:          0  HIT:          0  MISS:          0  iACCESS:          0  iHIT:          0  iMISS:          0  dACCESS:          0  dHIT:          0  dMISS:          0  itACCESS:          0  itHIT:          0  itMISS:          0  dtACCESS:          0  dtHIT:          0  dtMISS:          0
cpu0_ITLB PREFETCH     ACCESS:          0  HIT:          0  MISS:          0  iACCESS:          0  iHIT:          0  iMISS:          0  dACCESS:          0  dHIT:          0  dMISS:          0  itACCESS:          0  itHIT:          0  itMISS:          0  dtACCESS:          0  dtHIT:          0  dtMISS:          0
cpu0_ITLB WRITE        ACCESS:          0  HIT:          0  MISS:          0  iACCESS:          0  iHIT:          0  iMISS:          0  dACCESS:          0  dHIT:          0  dMISS:          0  itACCESS:          0  itHIT:          0  itMISS:          0  dtACCESS:          0  dtHIT:          0  dtMISS:          0
cpu0_ITLB TRANSLATION  ACCESS:          0  HIT:          0  MISS:          0  iACCESS:          0  iHIT:          0  iMISS:          0  dACCESS:          0  dHIT:          0  dMISS:          0  itACCESS:          0  itHIT:          0  itMISS:          0  dtACCESS:          0  dtHIT:          0  dtMISS:          0
cpu0_ITLB PREFETCH  REQUESTED:          0  ISSUED:          0  CROSSED:          0  USEFUL:     380436  USELESS:      76641
cpu0_ITLB AVERAGE iMISS LATENCY: 7.61809 cycles
cpu0_ITLB AVERAGE dMISS LATENCY: 0 cycles
cpu0_ITLB AVERAGE itMISS LATENCY: 0 cycles
cpu0_ITLB AVERAGE dtMISS LATENCY: 0 cycles
cpu0_ITLB PAGE CROSSINGS (TLB HIT):         0 
cpu0_ITLB PAGE CROSSINGS (TLB MISS):         0 
cpu0_ITLB AVERAGE MISS LATENCY: 7.61809 cycles
cpu0_DTLB TOTAL       ACCESS:   28754866  HIT:   25098644  MISS:    3656222  iACCESS:          0  iHIT:          0  iMISS:          0  dACCESS:   28754866  dHIT:   25098644  dMISS:    3656222  itACCESS:          0  itHIT:          0  itMISS:          0  dtACCESS:          0  dtHIT:          0  dtMISS:          0
cpu0_DTLB LOAD         ACCESS:   28754866  HIT:   25098644  MISS:    3656222  iACCESS:          0  iHIT:          0  iMISS:          0  dACCESS:   28754866  dHIT:   25098644  dMISS:    3656222  itACCESS:          0  itHIT:          0  itMISS:          0  dtACCESS:          0  dtHIT:          0  dtMISS:          0
cpu0_DTLB RFO          ACCESS:          0  HIT:          0  MISS:          0  iACCESS:          0  iHIT:          0  iMISS:          0  dACCESS:          0  dHIT:          0  dMISS:          0  itACCESS:          0  itHIT:          0  itMISS:          0  dtACCESS:          0  dtHIT:          0  dtMISS:          0
cpu0_DTLB PREFETCH     ACCESS:          0  HIT:          0  MISS:          0  iACCESS:          0  iHIT:          0  iMISS:          0  dACCESS:          0  dHIT:          0  dMISS:          0  itACCESS:          0  itHIT:          0  itMISS:          0  dtACCESS:          0  dtHIT:          0  dtMISS:          0
cpu0_DTLB WRITE        ACCESS:          0  HIT:          0  MISS:          0  iACCESS:          0  iHIT:          0  iMISS:          0  dACCESS:          0  dHIT:          0  dMISS:          0  itACCESS:          0  itHIT:          0  itMISS:          0  dtACCESS:          0  dtHIT:          0  dtMISS:          0
cpu0_DTLB TRANSLATION  ACCESS:          0  HIT:          0  MISS:          0  iACCESS:          0  iHIT:          0  iMISS:          0  dACCESS:          0  dHIT:          0  dMISS:          0  itACCESS:          0  itHIT:          0  itMISS:          0  dtACCESS:          0  dtHIT:          0  dtMISS:          0
cpu0_DTLB PREFETCH  REQUESTED:          0  ISSUED:          0  CROSSED:          0  USEFUL:          0  USELESS:          0
cpu0_DTLB AVERAGE iMISS LATENCY: 0 cycles
cpu0_DTLB AVERAGE dMISS LATENCY: 16.2306 cycles
cpu0_DTLB AVERAGE itMISS LATENCY: 0 cycles
cpu0_DTLB AVERAGE dtMISS LATENCY: 0 cycles
cpu0_DTLB PAGE CROSSINGS (TLB HIT):         0 
cpu0_DTLB PAGE CROSSINGS (TLB MISS):         0 
cpu0_DTLB AVERAGE MISS LATENCY: 16.2306 cycles
cpu0_STLB TOTAL       ACCESS:    2583065  HIT:    2223709  MISS:     359356  iACCESS:     457086  iHIT:     350092  iMISS:     106994  dACCESS:    2125979  dHIT:    1873617  dMISS:     252362  itACCESS:          0  itHIT:          0  itMISS:          0  dtACCESS:          0  dtHIT:          0  dtMISS:          0
cpu0_STLB LOAD         ACCESS:    2583065  HIT:    2223709  MISS:     359356  iACCESS:     457086  iHIT:     350092  iMISS:     106994  dACCESS:    2125979  dHIT:    1873617  dMISS:     252362  itACCESS:          0  itHIT:          0  itMISS:          0  dtACCESS:          0  dtHIT:          0  dtMISS:          0
cpu0_STLB RFO          ACCESS:          0  HIT:          0  MISS:          0  iACCESS:          0  iHIT:          0  iMISS:          0  dACCESS:          0  dHIT:          0  dMISS:          0  itACCESS:          0  itHIT:          0  itMISS:          0  dtACCESS:          0  dtHIT:          0  dtMISS:          0
cpu0_STLB PREFETCH     ACCESS:          0  HIT:          0  MISS:          0  iACCESS:          0  iHIT:          0  iMISS:          0  dACCESS:          0  dHIT:          0  dMISS:          0  itACCESS:          0  itHIT:          0  itMISS:          0  dtACCESS:          0  dtHIT:          0  dtMISS:          0
cpu0_STLB WRITE        ACCESS:          0  HIT:          0  MISS:          0  iACCESS:          0  iHIT:          0  iMISS:          0  dACCESS:          0  dHIT:          0  dMISS:          0  itACCESS:          0  itHIT:          0  itMISS:          0  dtACCESS:          0  dtHIT:          0  dtMISS:          0
cpu0_STLB TRANSLATION  ACCESS:          0  HIT:          0  MISS:          0  iACCESS:          0  iHIT:          0  iMISS:          0  dACCESS:          0  dHIT:          0  dMISS:          0  itACCESS:          0  itHIT:          0  itMISS:          0  dtACCESS:          0  dtHIT:          0  dtMISS:          0
cpu0_STLB PREFETCH  REQUESTED:          0  ISSUED:          0  CROSSED:          0  USEFUL:          0  USELESS:          0
cpu0_STLB AVERAGE iMISS LATENCY: 35.9603 cycles
cpu0_STLB AVERAGE dMISS LATENCY: 117.609 cycles
cpu0_STLB AVERAGE itMISS LATENCY: 0 cycles
cpu0_STLB AVERAGE dtMISS LATENCY: 0 cycles
cpu0_STLB PAGE CROSSINGS (TLB HIT):         0 
cpu0_STLB PAGE CROSSINGS (TLB MISS):         0 
cpu0_STLB AVERAGE MISS LATENCY: 153.569 cycles
cpu0_L1D TOTAL       ACCESS:   44191484  HIT:   38956670  MISS:    5234814  iACCESS:          0  iHIT:          0  iMISS:          0  dACCESS:   43670563  dHIT:   38922015  dMISS:    4748548  itACCESS:     120485  itHIT:      14196  itMISS:     106289  dtACCESS:     400436  dtHIT:      20459  dtMISS:     379977
cpu0_L1D LOAD         ACCESS:   19961626  HIT:   17837601  MISS:    2124025  iACCESS:          0  iHIT:          0  iMISS:          0  dACCESS:   19961626  dHIT:   17837601  dMISS:    2124025  itACCESS:          0  itHIT:          0  itMISS:          0  dtACCESS:          0  dtHIT:          0  dtMISS:          0
cpu0_L1D RFO          ACCESS:          0  HIT:          0  MISS:          0  iACCESS:          0  iHIT:          0  iMISS:          0  dACCESS:          0  dHIT:          0  dMISS:          0  itACCESS:          0  itHIT:          0  itMISS:          0  dtACCESS:          0  dtHIT:          0  dtMISS:          0
cpu0_L1D PREFETCH     ACCESS:   13576086  HIT:   11504304  MISS:    2071782  iACCESS:          0  iHIT:          0  iMISS:          0  dACCESS:   13576086  dHIT:   11504304  dMISS:    2071782  itACCESS:          0  itHIT:          0  itMISS:          0  dtACCESS:          0  dtHIT:          0  dtMISS:          0
cpu0_L1D WRITE        ACCESS:   10132851  HIT:    9580110  MISS:     552741  iACCESS:          0  iHIT:          0  iMISS:          0  dACCESS:   10132851  dHIT:    9580110  dMISS:     552741  itACCESS:          0  itHIT:          0  itMISS:          0  dtACCESS:          0  dtHIT:          0  dtMISS:          0
cpu0_L1D TRANSLATION  ACCESS:     520921  HIT:      34655  MISS:     486266  iACCESS:          0  iHIT:          0  iMISS:          0  dACCESS:          0  dHIT:          0  dMISS:          0  itACCESS:     120485  itHIT:      14196  itMISS:     106289  dtACCESS:     400436  dtHIT:      20459  dtMISS:     379977
cpu0_L1D PREFETCH  REQUESTED:   19961626  ISSUED:   18290091  CROSSED:          0  USEFUL:     359192  USELESS:     920234
cpu0_L1D AVERAGE iMISS LATENCY: 0 cycles
cpu0_L1D AVERAGE dMISS LATENCY: 51.9352 cycles
cpu0_L1D AVERAGE itMISS LATENCY: 2.28131 cycles
cpu0_L1D AVERAGE dtMISS LATENCY: 7.10565 cycles
cpu0_L1D PAGE CROSSINGS (TLB HIT):         0 
cpu0_L1D PAGE CROSSINGS (TLB MISS):         0 
cpu0_L1D AVERAGE MISS LATENCY: 61.3221 cycles
cpu0_L2C TOTAL       ACCESS:    8482973  HIT:    1525951  MISS:    6957022  iACCESS:    3726608  iHIT:     802833  iMISS:    2923775  dACCESS:    4289852  dHIT:     534606  dMISS:    3755246  itACCESS:     105759  itHIT:      35779  itMISS:      69980  dtACCESS:     360754  dtHIT:     152733  dtMISS:     208021
cpu0_L2C LOAD         ACCESS:    2013683  HIT:     199904  MISS:    1813779  iACCESS:     831136  iHIT:     110501  iMISS:     720635  dACCESS:    1182547  dHIT:      89403  dMISS:    1093144  itACCESS:          0  itHIT:          0  itMISS:          0  dtACCESS:          0  dtHIT:          0  dtMISS:          0
cpu0_L2C RFO          ACCESS:     212553  HIT:      28604  MISS:     183949  iACCESS:          0  iHIT:          0  iMISS:          0  dACCESS:     212553  dHIT:      28604  dMISS:     183949  itACCESS:          0  itHIT:          0  itMISS:          0  dtACCESS:          0  dtHIT:          0  dtMISS:          0
cpu0_L2C PREFETCH     ACCESS:    5443944  HIT:    1008295  MISS:    4435649  iACCESS:    2895472  iHIT:     692332  iMISS:    2203140  dACCESS:    2548472  dHIT:     315963  dMISS:    2232509  itACCESS:          0  itHIT:          0  itMISS:          0  dtACCESS:          0  dtHIT:          0  dtMISS:          0
cpu0_L2C WRITE        ACCESS:     346280  HIT:     100636  MISS:     245644  iACCESS:          0  iHIT:          0  iMISS:          0  dACCESS:     346280  dHIT:     100636  dMISS:     245644  itACCESS:          0  itHIT:          0  itMISS:          0  dtACCESS:          0  dtHIT:          0  dtMISS:          0
cpu0_L2C TRANSLATION  ACCESS:     466513  HIT:     188512  MISS:     278001  iACCESS:          0  iHIT:          0  iMISS:          0  dACCESS:          0  dHIT:          0  dMISS:          0  itACCESS:     105759  itHIT:      35779  itMISS:      69980  dtACCESS:     360754  dtHIT:     152733  dtMISS:     208021
cpu0_L2C PREFETCH  REQUESTED:    1517475  ISSUED:    1517472  CROSSED:          0  USEFUL:     416055  USELESS:     479644
cpu0_L2C AVERAGE iMISS LATENCY: 25.2756 cycles
cpu0_L2C AVERAGE dMISS LATENCY: 47.9142 cycles
cpu0_L2C AVERAGE itMISS LATENCY: 1.5693 cycles
cpu0_L2C AVERAGE dtMISS LATENCY: 4.84779 cycles
cpu0_L2C PAGE CROSSINGS (TLB HIT):         0 
cpu0_L2C PAGE CROSSINGS (TLB MISS):         0 
cpu0_L2C AVERAGE MISS LATENCY: 79.6068 cycles
LLC TOTAL       ACCESS:    6779312  HIT:    4270894  MISS:    2508418  iACCESS:    2834387  iHIT:    2064812  iMISS:     769575  dACCESS:    3666924  dHIT:    2138504  dMISS:    1528420  itACCESS:      69980  itHIT:      16570  itMISS:      53410  dtACCESS:     208021  dtHIT:      51008  dtMISS:     157013
LLC LOAD         ACCESS:    1808856  HIT:    1202328  MISS:     606528  iACCESS:     719296  iHIT:     555132  iMISS:     164164  dACCESS:    1089560  dHIT:     647196  dMISS:     442364  itACCESS:          0  itHIT:          0  itMISS:          0  dtACCESS:          0  dtHIT:          0  dtMISS:          0
LLC RFO          ACCESS:     183915  HIT:      97422  MISS:      86493  iACCESS:          0  iHIT:          0  iMISS:          0  dACCESS:     183915  dHIT:      97422  dMISS:      86493  itACCESS:          0  itHIT:          0  itMISS:          0  dtACCESS:          0  dtHIT:          0  dtMISS:          0
LLC PREFETCH     ACCESS:    4233014  HIT:    2634442  MISS:    1598572  iACCESS:    2115091  iHIT:    1509680  iMISS:     605411  dACCESS:    2117923  dHIT:    1124762  dMISS:     993161  itACCESS:          0  itHIT:          0  itMISS:          0  dtACCESS:          0  dtHIT:          0  dtMISS:          0
LLC WRITE        ACCESS:     275526  HIT:     269124  MISS:       6402  iACCESS:          0  iHIT:          0  iMISS:          0  dACCESS:     275526  dHIT:     269124  dMISS:       6402  itACCESS:          0  itHIT:          0  itMISS:          0  dtACCESS:          0  dtHIT:          0  dtMISS:          0
LLC TRANSLATION  ACCESS:     278001  HIT:      67578  MISS:     210423  iACCESS:          0  iHIT:          0  iMISS:          0  dACCESS:          0  dHIT:          0  dMISS:          0  itACCESS:      69980  itHIT:      16570  itMISS:      53410  dtACCESS:     208021  dtHIT:      51008  dtMISS:     157013
LLC PREFETCH  REQUESTED:          0  ISSUED:          0  CROSSED:          0  USEFUL:          0  USELESS:          0
LLC AVERAGE iMISS LATENCY: 48.1758 cycles
LLC AVERAGE dMISS LATENCY: 107.305 cycles
LLC AVERAGE itMISS LATENCY: 3.80287 cycles
LLC AVERAGE dtMISS LATENCY: 11.8127 cycles
LLC PAGE CROSSINGS (TLB HIT):         0 
LLC PAGE CROSSINGS (TLB MISS):         0 
LLC AVERAGE MISS LATENCY: 171.096 cycles

PageTableWalker TOTAL       ACCESS:     181670  
PageTableWalker AVERAGE LATENCY: 5.90755 cycles
PageTableWalker TOTAL LATENCY: 1073224 cycles

DRAM Statistics
Channel 0
 RQ ROW_BUFFER_HIT:     555309
  ROW_BUFFER_MISS:    1934738
 AVG DBUS CONGESTED CYCLE:     3.6498
 WQ ROW_BUFFER_HIT:      63182
  ROW_BUFFER_MISS:      60560  FULL:          0

