last_page:0x200000000000000
VMEM_RES_CAP:0x100000
PAGE_SIZE:4096
LOG2_PAGE_SIZE:12
LOG2_PAGE_TABLE_SIZE:9
page_table_levels:5
WARNING: physical memory size is smaller than virtual memory size
FDiP enabled with aggresivity 16

*** ChampSim Multicore Out-of-Order Simulator ***

Warmup Instructions: 50000000
Simulation Instructions: 100000000
Number of CPUs: 1
Small page size: 4096
Large page size: 2097152

CPU 0 Bimodal branch predictor
Basic BTB sets: 1024 ways: 8 indirect buffer size: 4096 RAS size: 64
Instruction page size distrubution: 0
Loading instruction page size distribution from /home/bsc/bsc018186/scratch/itp_asplos25_AE/dump/smt_srv12_ap_srv495_ap_1024i.pdst
Data page size distrubution: 0
Loading data page size distribution from /home/bsc/bsc018186/scratch/itp_asplos25_AE/dump/smt_srv12_ap_srv495_ap_1024i.pdst
cpu0_L2C IP-based stride prefetcher
cpu0_L2C is using PTP replacement policy:
	TLB_STRESS_THRESHOLD:0
	PTE_EVICTION_RATIO:0
cpu0_L1D next line prefetcher
cpu0_STLB using iTP with max lru@8
cpu0_STLB using iTP with instr@0 and data@2
Init sat counter with 3 bits (max:50).
cpu0_L1I next line prefetcher
Off-chip DRAM Size: 4 GiB Channels: 1 Width: 64-bit Data Rate: 3200 MT/s
Heartbeat CPU 0 instructions: 10000001 cycles: 2500395 heartbeat IPC: 3.99937 cumulative IPC: 3.99937 (Simulation time: 0 hr 0 min 43 sec) 
Heartbeat CPU 0 instructions: 20000002 cycles: 5000424 heartbeat IPC: 3.99996 cumulative IPC: 3.99967 (Simulation time: 0 hr 1 min 31 sec) 
Heartbeat CPU 0 instructions: 30000002 cycles: 7501131 heartbeat IPC: 3.99887 cumulative IPC: 3.9994 (Simulation time: 0 hr 2 min 19 sec) 
Heartbeat CPU 0 instructions: 40000002 cycles: 10001272 heartbeat IPC: 3.99978 cumulative IPC: 3.9995 (Simulation time: 0 hr 3 min 7 sec) 
Heartbeat CPU 0 instructions: 50000001 cycles: 12501358 heartbeat IPC: 3.99987 cumulative IPC: 3.99957 (Simulation time: 0 hr 3 min 55 sec) 
Warmup finished CPU 0 instructions: 50000001 cycles: 12501359 cumulative IPC: 3.99957 (Simulation time: 0 hr 3 min 55 sec) 

Warmup complete CPU 0 instructions: 50000001 cycles: 12501359 (Simulation time: 0 hr 3 min 55 sec) 

Heartbeat CPU 0 instructions: 60000001 cycles: 43924084 heartbeat IPC: 0.318242 cumulative IPC: 0.318242 (Simulation time: 0 hr 5 min 34 sec) 
Heartbeat CPU 0 instructions: 70000003 cycles: 74729843 heartbeat IPC: 0.324615 cumulative IPC: 0.321397 (Simulation time: 0 hr 7 min 7 sec) 
Heartbeat CPU 0 instructions: 80000000 cycles: 106519485 heartbeat IPC: 0.314568 cumulative IPC: 0.319088 (Simulation time: 0 hr 8 min 47 sec) 
Heartbeat CPU 0 instructions: 90000000 cycles: 134363177 heartbeat IPC: 0.359148 cumulative IPC: 0.328241 (Simulation time: 0 hr 10 min 20 sec) 
Heartbeat CPU 0 instructions: 100000001 cycles: 164865052 heartbeat IPC: 0.327849 cumulative IPC: 0.328163 (Simulation time: 0 hr 11 min 58 sec) 
Heartbeat CPU 0 instructions: 110000000 cycles: 196216547 heartbeat IPC: 0.318965 cumulative IPC: 0.326593 (Simulation time: 0 hr 13 min 36 sec) 
Heartbeat CPU 0 instructions: 120000000 cycles: 226833601 heartbeat IPC: 0.326616 cumulative IPC: 0.326596 (Simulation time: 0 hr 15 min 14 sec) 
Heartbeat CPU 0 instructions: 130000002 cycles: 257321773 heartbeat IPC: 0.327997 cumulative IPC: 0.326771 (Simulation time: 0 hr 16 min 51 sec) 
Heartbeat CPU 0 instructions: 140000000 cycles: 288047583 heartbeat IPC: 0.32546 cumulative IPC: 0.326624 (Simulation time: 0 hr 18 min 14 sec) 
Heartbeat CPU 0 instructions: 150000002 cycles: 318671554 heartbeat IPC: 0.326542 cumulative IPC: 0.326616 (Simulation time: 0 hr 19 min 37 sec) 
Simulation finished CPU 0 instructions: 100000001 cycles: 306170196 cumulative IPC: 0.326616 (Simulation time: 0 hr 19 min 37 sec) 

Simulation complete CPU 0 instructions: 100000001 cycles: 306170196 (Simulation time: 0 hr 19 min 37 sec) 


ChampSim completed all CPUs

Saving instructions large page distribution to /home/bsc/bsc018186/scratch/itp_asplos25_AE/dump/smt_srv12_ap_srv495_ap_1024i.pdst...
Saving data large page distribution to /home/bsc/bsc018186/scratch/itp_asplos25_AE/dump/smt_srv12_ap_srv495_ap_1024i.pdst...
=== Simulation ===
CPU 0 runs /gpfs/projects/bsc18/MN4/bsc18/romol/ChampSim/traces/qualcomm_srv/smt_srv12_ap_srv495_ap_1024i.champsimtrace.xz

Region of Interest Statistics

CPU 0 cumulative IPC: 0.326616 instructions: 100000001 cycles: 306170196
CPU 0 Branch Prediction Accuracy: 74.6867% MPKI: 45.8673 Average ROB Occupancy at Mispredict: 10.5932
Branch type MPKI
BRANCH_DIRECT_JUMP: 1.43963
BRANCH_INDIRECT: 23.3813
BRANCH_CONDITIONAL: 13.5832
BRANCH_DIRECT_CALL: 2.79
BRANCH_INDIRECT_CALL: 1.12068
BRANCH_RETURN: 3.55247

Instructions large pages: 0
Instructions small pages: 11363
Large page distribution for instructions: 0%

Data large pages: 0
Data small pages: 9536
Large page distribution for data: 0%

cpu0_L1I TOTAL       ACCESS:   39254244  HIT:   30501399  MISS:    8752845  iACCESS:   39254244  iHIT:   30501399  iMISS:    8752845  dACCESS:          0  dHIT:          0  dMISS:          0  itACCESS:          0  itHIT:          0  itMISS:          0  dtACCESS:          0  dtHIT:          0  dtMISS:          0
cpu0_L1I LOAD         ACCESS:   11669269  HIT:    9293977  MISS:    2375292  iACCESS:   11669269  iHIT:    9293977  iMISS:    2375292  dACCESS:          0  dHIT:          0  dMISS:          0  itACCESS:          0  itHIT:          0  itMISS:          0  dtACCESS:          0  dtHIT:          0  dtMISS:          0
cpu0_L1I RFO          ACCESS:          0  HIT:          0  MISS:          0  iACCESS:          0  iHIT:          0  iMISS:          0  dACCESS:          0  dHIT:          0  dMISS:          0  itACCESS:          0  itHIT:          0  itMISS:          0  dtACCESS:          0  dtHIT:          0  dtMISS:          0
cpu0_L1I PREFETCH     ACCESS:   27584975  HIT:   21207422  MISS:    6377553  iACCESS:   27584975  iHIT:   21207422  iMISS:    6377553  dACCESS:          0  dHIT:          0  dMISS:          0  itACCESS:          0  itHIT:          0  itMISS:          0  dtACCESS:          0  dtHIT:          0  dtMISS:          0
cpu0_L1I WRITE        ACCESS:          0  HIT:          0  MISS:          0  iACCESS:          0  iHIT:          0  iMISS:          0  dACCESS:          0  dHIT:          0  dMISS:          0  itACCESS:          0  itHIT:          0  itMISS:          0  dtACCESS:          0  dtHIT:          0  dtMISS:          0
cpu0_L1I TRANSLATION  ACCESS:          0  HIT:          0  MISS:          0  iACCESS:          0  iHIT:          0  iMISS:          0  dACCESS:          0  dHIT:          0  dMISS:          0  itACCESS:          0  itHIT:          0  itMISS:          0  dtACCESS:          0  dtHIT:          0  dtMISS:          0
cpu0_L1I PREFETCH  REQUESTED:   30318771  ISSUED:   30318692  CROSSED:          0  USEFUL:    2223383  USELESS:     776444
cpu0_L1I AVERAGE iMISS LATENCY: 25.3924 cycles
cpu0_L1I AVERAGE dMISS LATENCY: 0 cycles
cpu0_L1I AVERAGE itMISS LATENCY: 0 cycles
cpu0_L1I AVERAGE dtMISS LATENCY: 0 cycles
cpu0_L1I PAGE CROSSINGS (TLB HIT):         0 
cpu0_L1I PAGE CROSSINGS (TLB MISS):         0 
cpu0_L1I AVERAGE MISS LATENCY: 25.3924 cycles
cpu0_ITLB TOTAL       ACCESS:   33327050  HIT:   31080385  MISS:    2246665  iACCESS:   33327050  iHIT:   31080385  iMISS:    2246665  dACCESS:          0  dHIT:          0  dMISS:          0  itACCESS:          0  itHIT:          0  itMISS:          0  dtACCESS:          0  dtHIT:          0  dtMISS:          0
cpu0_ITLB LOAD         ACCESS:   33327050  HIT:   31080385  MISS:    2246665  iACCESS:   33327050  iHIT:   31080385  iMISS:    2246665  dACCESS:          0  dHIT:          0  dMISS:          0  itACCESS:          0  itHIT:          0  itMISS:          0  dtACCESS:          0  dtHIT:          0  dtMISS:          0
cpu0_ITLB RFO          ACCESS:          0  HIT:          0  MISS:          0  iACCESS:          0  iHIT:          0  iMISS:          0  dACCESS:          0  dHIT:          0  dMISS:          0  itACCESS:          0  itHIT:          0  itMISS:          0  dtACCESS:          0  dtHIT:          0  dtMISS:          0
cpu0_ITLB PREFETCH     ACCESS:          0  HIT:          0  MISS:          0  iACCESS:          0  iHIT:          0  iMISS:          0  dACCESS:          0  dHIT:          0  dMISS:          0  itACCESS:          0  itHIT:          0  itMISS:          0  dtACCESS:          0  dtHIT:          0  dtMISS:          0
cpu0_ITLB WRITE        ACCESS:          0  HIT:          0  MISS:          0  iACCESS:          0  iHIT:          0  iMISS:          0  dACCESS:          0  dHIT:          0  dMISS:          0  itACCESS:          0  itHIT:          0  itMISS:          0  dtACCESS:          0  dtHIT:          0  dtMISS:          0
cpu0_ITLB TRANSLATION  ACCESS:          0  HIT:          0  MISS:          0  iACCESS:          0  iHIT:          0  iMISS:          0  dACCESS:          0  dHIT:          0  dMISS:          0  itACCESS:          0  itHIT:          0  itMISS:          0  dtACCESS:          0  dtHIT:          0  dtMISS:          0
cpu0_ITLB PREFETCH  REQUESTED:          0  ISSUED:          0  CROSSED:          0  USEFUL:     396610  USELESS:      80849
cpu0_ITLB AVERAGE iMISS LATENCY: 7.2254 cycles
cpu0_ITLB AVERAGE dMISS LATENCY: 0 cycles
cpu0_ITLB AVERAGE itMISS LATENCY: 0 cycles
cpu0_ITLB AVERAGE dtMISS LATENCY: 0 cycles
cpu0_ITLB PAGE CROSSINGS (TLB HIT):         0 
cpu0_ITLB PAGE CROSSINGS (TLB MISS):         0 
cpu0_ITLB AVERAGE MISS LATENCY: 7.2254 cycles
cpu0_DTLB TOTAL       ACCESS:   28975273  HIT:   25416988  MISS:    3558285  iACCESS:          0  iHIT:          0  iMISS:          0  dACCESS:   28975273  dHIT:   25416988  dMISS:    3558285  itACCESS:          0  itHIT:          0  itMISS:          0  dtACCESS:          0  dtHIT:          0  dtMISS:          0
cpu0_DTLB LOAD         ACCESS:   28975273  HIT:   25416988  MISS:    3558285  iACCESS:          0  iHIT:          0  iMISS:          0  dACCESS:   28975273  dHIT:   25416988  dMISS:    3558285  itACCESS:          0  itHIT:          0  itMISS:          0  dtACCESS:          0  dtHIT:          0  dtMISS:          0
cpu0_DTLB RFO          ACCESS:          0  HIT:          0  MISS:          0  iACCESS:          0  iHIT:          0  iMISS:          0  dACCESS:          0  dHIT:          0  dMISS:          0  itACCESS:          0  itHIT:          0  itMISS:          0  dtACCESS:          0  dtHIT:          0  dtMISS:          0
cpu0_DTLB PREFETCH     ACCESS:          0  HIT:          0  MISS:          0  iACCESS:          0  iHIT:          0  iMISS:          0  dACCESS:          0  dHIT:          0  dMISS:          0  itACCESS:          0  itHIT:          0  itMISS:          0  dtACCESS:          0  dtHIT:          0  dtMISS:          0
cpu0_DTLB WRITE        ACCESS:          0  HIT:          0  MISS:          0  iACCESS:          0  iHIT:          0  iMISS:          0  dACCESS:          0  dHIT:          0  dMISS:          0  itACCESS:          0  itHIT:          0  itMISS:          0  dtACCESS:          0  dtHIT:          0  dtMISS:          0
cpu0_DTLB TRANSLATION  ACCESS:          0  HIT:          0  MISS:          0  iACCESS:          0  iHIT:          0  iMISS:          0  dACCESS:          0  dHIT:          0  dMISS:          0  itACCESS:          0  itHIT:          0  itMISS:          0  dtACCESS:          0  dtHIT:          0  dtMISS:          0
cpu0_DTLB PREFETCH  REQUESTED:          0  ISSUED:          0  CROSSED:          0  USEFUL:          0  USELESS:          0
cpu0_DTLB AVERAGE iMISS LATENCY: 0 cycles
cpu0_DTLB AVERAGE dMISS LATENCY: 27.6857 cycles
cpu0_DTLB AVERAGE itMISS LATENCY: 0 cycles
cpu0_DTLB AVERAGE dtMISS LATENCY: 0 cycles
cpu0_DTLB PAGE CROSSINGS (TLB HIT):         0 
cpu0_DTLB PAGE CROSSINGS (TLB MISS):         0 
cpu0_DTLB AVERAGE MISS LATENCY: 27.6857 cycles
cpu0_STLB TOTAL       ACCESS:    2560723  HIT:    2180105  MISS:     380618  iACCESS:     477458  iHIT:     413003  iMISS:      64455  dACCESS:    2083265  dHIT:    1767102  dMISS:     316163  itACCESS:          0  itHIT:          0  itMISS:          0  dtACCESS:          0  dtHIT:          0  dtMISS:          0
cpu0_STLB LOAD         ACCESS:    2560723  HIT:    2180105  MISS:     380618  iACCESS:     477458  iHIT:     413003  iMISS:      64455  dACCESS:    2083265  dHIT:    1767102  dMISS:     316163  itACCESS:          0  itHIT:          0  itMISS:          0  dtACCESS:          0  dtHIT:          0  dtMISS:          0
cpu0_STLB RFO          ACCESS:          0  HIT:          0  MISS:          0  iACCESS:          0  iHIT:          0  iMISS:          0  dACCESS:          0  dHIT:          0  dMISS:          0  itACCESS:          0  itHIT:          0  itMISS:          0  dtACCESS:          0  dtHIT:          0  dtMISS:          0
cpu0_STLB PREFETCH     ACCESS:          0  HIT:          0  MISS:          0  iACCESS:          0  iHIT:          0  iMISS:          0  dACCESS:          0  dHIT:          0  dMISS:          0  itACCESS:          0  itHIT:          0  itMISS:          0  dtACCESS:          0  dtHIT:          0  dtMISS:          0
cpu0_STLB WRITE        ACCESS:          0  HIT:          0  MISS:          0  iACCESS:          0  iHIT:          0  iMISS:          0  dACCESS:          0  dHIT:          0  dMISS:          0  itACCESS:          0  itHIT:          0  itMISS:          0  dtACCESS:          0  dtHIT:          0  dtMISS:          0
cpu0_STLB TRANSLATION  ACCESS:          0  HIT:          0  MISS:          0  iACCESS:          0  iHIT:          0  iMISS:          0  dACCESS:          0  dHIT:          0  dMISS:          0  itACCESS:          0  itHIT:          0  itMISS:          0  dtACCESS:          0  dtHIT:          0  dtMISS:          0
cpu0_STLB PREFETCH  REQUESTED:          0  ISSUED:          0  CROSSED:          0  USEFUL:          0  USELESS:          0
cpu0_STLB AVERAGE iMISS LATENCY: 32.7666 cycles
cpu0_STLB AVERAGE dMISS LATENCY: 214.618 cycles
cpu0_STLB AVERAGE itMISS LATENCY: 0 cycles
cpu0_STLB AVERAGE dtMISS LATENCY: 0 cycles
cpu0_STLB PAGE CROSSINGS (TLB HIT):         0 
cpu0_STLB PAGE CROSSINGS (TLB MISS):         0 
cpu0_STLB AVERAGE MISS LATENCY: 247.385 cycles
cpu0_L1D TOTAL       ACCESS:   44984580  HIT:   39318660  MISS:    5665920  iACCESS:          0  iHIT:          0  iMISS:          0  dACCESS:   44400954  dHIT:   39289132  dMISS:    5111822  itACCESS:      75457  itHIT:       6270  itMISS:      69187  dtACCESS:     508169  dtHIT:      23258  dtMISS:     484911
cpu0_L1D LOAD         ACCESS:   20288990  HIT:   18002889  MISS:    2286101  iACCESS:          0  iHIT:          0  iMISS:          0  dACCESS:   20288990  dHIT:   18002889  dMISS:    2286101  itACCESS:          0  itHIT:          0  itMISS:          0  dtACCESS:          0  dtHIT:          0  dtMISS:          0
cpu0_L1D RFO          ACCESS:          0  HIT:          0  MISS:          0  iACCESS:          0  iHIT:          0  iMISS:          0  dACCESS:          0  dHIT:          0  dMISS:          0  itACCESS:          0  itHIT:          0  itMISS:          0  dtACCESS:          0  dtHIT:          0  dtMISS:          0
cpu0_L1D PREFETCH     ACCESS:   13942368  HIT:   11691216  MISS:    2251152  iACCESS:          0  iHIT:          0  iMISS:          0  dACCESS:   13942368  dHIT:   11691216  dMISS:    2251152  itACCESS:          0  itHIT:          0  itMISS:          0  dtACCESS:          0  dtHIT:          0  dtMISS:          0
cpu0_L1D WRITE        ACCESS:   10169596  HIT:    9595027  MISS:     574569  iACCESS:          0  iHIT:          0  iMISS:          0  dACCESS:   10169596  dHIT:    9595027  dMISS:     574569  itACCESS:          0  itHIT:          0  itMISS:          0  dtACCESS:          0  dtHIT:          0  dtMISS:          0
cpu0_L1D TRANSLATION  ACCESS:     583626  HIT:      29528  MISS:     554098  iACCESS:          0  iHIT:          0  iMISS:          0  dACCESS:          0  dHIT:          0  dMISS:          0  itACCESS:      75457  itHIT:       6270  itMISS:      69187  dtACCESS:     508169  dtHIT:      23258  dtMISS:     484911
cpu0_L1D PREFETCH  REQUESTED:   20288990  ISSUED:   18543048  CROSSED:          0  USEFUL:     363909  USELESS:     936754
cpu0_L1D AVERAGE iMISS LATENCY: 0 cycles
cpu0_L1D AVERAGE dMISS LATENCY: 50.8917 cycles
cpu0_L1D AVERAGE itMISS LATENCY: 2.07042 cycles
cpu0_L1D AVERAGE dtMISS LATENCY: 13.4736 cycles
cpu0_L1D PAGE CROSSINGS (TLB HIT):         0 
cpu0_L1D PAGE CROSSINGS (TLB MISS):         0 
cpu0_L1D AVERAGE MISS LATENCY: 66.4357 cycles
cpu0_L2C TOTAL       ACCESS:    8710010  HIT:    3922877  MISS:    4787133  iACCESS:    3810077  iHIT:    2154871  iMISS:    1655206  dACCESS:    4377709  dHIT:    1687640  dMISS:    2690069  itACCESS:      68846  itHIT:       9006  itMISS:      59840  dtACCESS:     453378  dtHIT:      71360  dtMISS:     382018
cpu0_L2C LOAD         ACCESS:    2058907  HIT:     926010  MISS:    1132897  iACCESS:     847122  iHIT:     497366  iMISS:     349756  dACCESS:    1211785  dHIT:     428644  dMISS:     783141  itACCESS:          0  itHIT:          0  itMISS:          0  dtACCESS:          0  dtHIT:          0  dtMISS:          0
cpu0_L2C RFO          ACCESS:     215745  HIT:      73017  MISS:     142728  iACCESS:          0  iHIT:          0  iMISS:          0  dACCESS:     215745  dHIT:      73017  dMISS:     142728  itACCESS:          0  itHIT:          0  itMISS:          0  dtACCESS:          0  dtHIT:          0  dtMISS:          0
cpu0_L2C PREFETCH     ACCESS:    5572242  HIT:    2539685  MISS:    3032557  iACCESS:    2962955  iHIT:    1657505  iMISS:    1305450  dACCESS:    2609287  dHIT:     882180  dMISS:    1727107  itACCESS:          0  itHIT:          0  itMISS:          0  dtACCESS:          0  dtHIT:          0  dtMISS:          0
cpu0_L2C WRITE        ACCESS:     340892  HIT:     303799  MISS:      37093  iACCESS:          0  iHIT:          0  iMISS:          0  dACCESS:     340892  dHIT:     303799  dMISS:      37093  itACCESS:          0  itHIT:          0  itMISS:          0  dtACCESS:          0  dtHIT:          0  dtMISS:          0
cpu0_L2C TRANSLATION  ACCESS:     522224  HIT:      80366  MISS:     441858  iACCESS:          0  iHIT:          0  iMISS:          0  dACCESS:          0  dHIT:          0  dMISS:          0  itACCESS:      68846  itHIT:       9006  itMISS:      59840  dtACCESS:     453378  dtHIT:      71360  dtMISS:     382018
cpu0_L2C PREFETCH  REQUESTED:    1545897  ISSUED:    1545893  CROSSED:          0  USEFUL:     364507  USELESS:     349481
cpu0_L2C AVERAGE iMISS LATENCY: 39.8607 cycles
cpu0_L2C AVERAGE dMISS LATENCY: 75.5733 cycles
cpu0_L2C AVERAGE itMISS LATENCY: 2.30808 cycles
cpu0_L2C AVERAGE dtMISS LATENCY: 15.0094 cycles
cpu0_L2C PAGE CROSSINGS (TLB HIT):         0 
cpu0_L2C PAGE CROSSINGS (TLB MISS):         0 
cpu0_L2C AVERAGE MISS LATENCY: 132.752 cycles
LLC TOTAL       ACCESS:    4744871  HIT:    1562577  MISS:    3182294  iACCESS:    1561913  iHIT:     552588  iMISS:    1009325  dACCESS:    2741100  dHIT:     954997  dMISS:    1786103  itACCESS:      59840  itHIT:       4758  itMISS:      55082  dtACCESS:     382018  dtHIT:      50234  dtMISS:     331784
LLC LOAD         ACCESS:    1126157  HIT:     401560  MISS:     724597  iACCESS:     348597  iHIT:     136196  iMISS:     212401  dACCESS:     777560  dHIT:     265364  dMISS:     512196  itACCESS:          0  itHIT:          0  itMISS:          0  dtACCESS:          0  dtHIT:          0  dtMISS:          0
LLC RFO          ACCESS:     142721  HIT:      48016  MISS:      94705  iACCESS:          0  iHIT:          0  iMISS:          0  dACCESS:     142721  dHIT:      48016  dMISS:      94705  itACCESS:          0  itHIT:          0  itMISS:          0  dtACCESS:          0  dtHIT:          0  dtMISS:          0
LLC PREFETCH     ACCESS:    2814819  HIT:     848337  MISS:    1966482  iACCESS:    1213316  iHIT:     416392  iMISS:     796924  dACCESS:    1601503  dHIT:     431945  dMISS:    1169558  itACCESS:          0  itHIT:          0  itMISS:          0  dtACCESS:          0  dtHIT:          0  dtMISS:          0
LLC WRITE        ACCESS:     219316  HIT:     209672  MISS:       9644  iACCESS:          0  iHIT:          0  iMISS:          0  dACCESS:     219316  dHIT:     209672  dMISS:       9644  itACCESS:          0  itHIT:          0  itMISS:          0  dtACCESS:          0  dtHIT:          0  dtMISS:          0
LLC TRANSLATION  ACCESS:     441858  HIT:      54992  MISS:     386866  iACCESS:          0  iHIT:          0  iMISS:          0  dACCESS:          0  dHIT:          0  dMISS:          0  itACCESS:      59840  itHIT:       4758  itMISS:      55082  dtACCESS:     382018  dtHIT:      50234  dtMISS:     331784
LLC PREFETCH  REQUESTED:          0  ISSUED:          0  CROSSED:          0  USEFUL:          0  USELESS:          0
LLC AVERAGE iMISS LATENCY: 50.3134 cycles
LLC AVERAGE dMISS LATENCY: 98.9111 cycles
LLC AVERAGE itMISS LATENCY: 3.09925 cycles
LLC AVERAGE dtMISS LATENCY: 20.2071 cycles
LLC PAGE CROSSINGS (TLB HIT):         0 
LLC PAGE CROSSINGS (TLB MISS):         0 
LLC AVERAGE MISS LATENCY: 172.531 cycles

PageTableWalker TOTAL       ACCESS:     180787  
PageTableWalker AVERAGE LATENCY: 6.61421 cycles
PageTableWalker TOTAL LATENCY: 1195763 cycles

DRAM Statistics
Channel 0
 RQ ROW_BUFFER_HIT:     681397
  ROW_BUFFER_MISS:    2473040
 AVG DBUS CONGESTED CYCLE:    3.65003
 WQ ROW_BUFFER_HIT:      68478
  ROW_BUFFER_MISS:      54991  FULL:          0

