last_page:0x200000000000000
VMEM_RES_CAP:0x100000
PAGE_SIZE:4096
LOG2_PAGE_SIZE:12
LOG2_PAGE_TABLE_SIZE:9
page_table_levels:5
WARNING: physical memory size is smaller than virtual memory size
FDiP enabled with aggresivity 16

*** ChampSim Multicore Out-of-Order Simulator ***

Warmup Instructions: 50000000
Simulation Instructions: 100000000
Number of CPUs: 1
Small page size: 4096
Large page size: 2097152

CPU 0 Bimodal branch predictor
Basic BTB sets: 1024 ways: 8 indirect buffer size: 4096 RAS size: 64
Instruction page size distrubution: 0
Loading instruction page size distribution from /home/bsc/bsc018186/scratch/itp_asplos25_AE/dump/smt_srv537_ap_srv495_ap_1024i.pdst
Data page size distrubution: 0
Loading data page size distribution from /home/bsc/bsc018186/scratch/itp_asplos25_AE/dump/smt_srv537_ap_srv495_ap_1024i.pdst
cpu0_L2C IP-based stride prefetcher
cpu0_L1D next line prefetcher
cpu0_STLB using iTP with max lru@8
cpu0_STLB using iTP with instr@0 and data@2
Init sat counter with 3 bits (max:50).
cpu0_L1I next line prefetcher
Off-chip DRAM Size: 4 GiB Channels: 1 Width: 64-bit Data Rate: 3200 MT/s
Heartbeat CPU 0 instructions: 10000001 cycles: 2500507 heartbeat IPC: 3.99919 cumulative IPC: 3.99919 (Simulation time: 0 hr 0 min 35 sec) 
Heartbeat CPU 0 instructions: 20000000 cycles: 5000649 heartbeat IPC: 3.99978 cumulative IPC: 3.99949 (Simulation time: 0 hr 1 min 12 sec) 
Heartbeat CPU 0 instructions: 30000003 cycles: 7500760 heartbeat IPC: 3.99983 cumulative IPC: 3.9996 (Simulation time: 0 hr 1 min 50 sec) 
Heartbeat CPU 0 instructions: 40000003 cycles: 10000864 heartbeat IPC: 3.99984 cumulative IPC: 3.99966 (Simulation time: 0 hr 2 min 28 sec) 
Heartbeat CPU 0 instructions: 50000002 cycles: 12500903 heartbeat IPC: 3.99994 cumulative IPC: 3.99972 (Simulation time: 0 hr 3 min 6 sec) 
Warmup finished CPU 0 instructions: 50000002 cycles: 12500904 cumulative IPC: 3.99972 (Simulation time: 0 hr 3 min 6 sec) 

Warmup complete CPU 0 instructions: 50000002 cycles: 12500904 (Simulation time: 0 hr 3 min 6 sec) 

Heartbeat CPU 0 instructions: 60000001 cycles: 42636778 heartbeat IPC: 0.331831 cumulative IPC: 0.331831 (Simulation time: 0 hr 4 min 27 sec) 
Heartbeat CPU 0 instructions: 70000003 cycles: 73754650 heartbeat IPC: 0.321359 cumulative IPC: 0.326511 (Simulation time: 0 hr 5 min 49 sec) 
Heartbeat CPU 0 instructions: 80000002 cycles: 104337033 heartbeat IPC: 0.326986 cumulative IPC: 0.326669 (Simulation time: 0 hr 7 min 10 sec) 
Heartbeat CPU 0 instructions: 90000000 cycles: 134061264 heartbeat IPC: 0.336426 cumulative IPC: 0.329055 (Simulation time: 0 hr 8 min 30 sec) 
Heartbeat CPU 0 instructions: 100000003 cycles: 163913712 heartbeat IPC: 0.334982 cumulative IPC: 0.330224 (Simulation time: 0 hr 9 min 51 sec) 
Heartbeat CPU 0 instructions: 110000000 cycles: 195248114 heartbeat IPC: 0.319138 cumulative IPC: 0.328323 (Simulation time: 0 hr 11 min 13 sec) 
Heartbeat CPU 0 instructions: 120000004 cycles: 225113441 heartbeat IPC: 0.334837 cumulative IPC: 0.329238 (Simulation time: 0 hr 12 min 34 sec) 
Heartbeat CPU 0 instructions: 130000001 cycles: 254909773 heartbeat IPC: 0.335612 cumulative IPC: 0.330021 (Simulation time: 0 hr 13 min 55 sec) 
Heartbeat CPU 0 instructions: 140000003 cycles: 284853128 heartbeat IPC: 0.333964 cumulative IPC: 0.330455 (Simulation time: 0 hr 15 min 16 sec) 
Heartbeat CPU 0 instructions: 150000001 cycles: 314882602 heartbeat IPC: 0.333007 cumulative IPC: 0.330708 (Simulation time: 0 hr 16 min 37 sec) 
Simulation finished CPU 0 instructions: 100000004 cycles: 302381700 cumulative IPC: 0.330708 (Simulation time: 0 hr 16 min 37 sec) 

Simulation complete CPU 0 instructions: 100000004 cycles: 302381700 (Simulation time: 0 hr 16 min 37 sec) 


ChampSim completed all CPUs

Saving instructions large page distribution to /home/bsc/bsc018186/scratch/itp_asplos25_AE/dump/smt_srv537_ap_srv495_ap_1024i.pdst...
Saving data large page distribution to /home/bsc/bsc018186/scratch/itp_asplos25_AE/dump/smt_srv537_ap_srv495_ap_1024i.pdst...
=== Simulation ===
CPU 0 runs /gpfs/projects/bsc18/MN4/bsc18/romol/ChampSim/traces/qualcomm_srv/smt_srv537_ap_srv495_ap_1024i.champsimtrace.xz

Region of Interest Statistics

CPU 0 cumulative IPC: 0.330708 instructions: 100000004 cycles: 302381700
CPU 0 Branch Prediction Accuracy: 74.9718% MPKI: 45.2034 Average ROB Occupancy at Mispredict: 10.6809
Branch type MPKI
BRANCH_DIRECT_JUMP: 1.41107
BRANCH_INDIRECT: 23.2807
BRANCH_CONDITIONAL: 13.2201
BRANCH_DIRECT_CALL: 2.71227
BRANCH_INDIRECT_CALL: 1.02679
BRANCH_RETURN: 3.5525

Instructions large pages: 0
Instructions small pages: 10264
Large page distribution for instructions: 0%

Data large pages: 0
Data small pages: 8859
Large page distribution for data: 0%

cpu0_L1I TOTAL       ACCESS:   39474468  HIT:   30634071  MISS:    8840397  iACCESS:   39474468  iHIT:   30634071  iMISS:    8840397  dACCESS:          0  dHIT:          0  dMISS:          0  itACCESS:          0  itHIT:          0  itMISS:          0  dtACCESS:          0  dtHIT:          0  dtMISS:          0
cpu0_L1I LOAD         ACCESS:   11831254  HIT:    9425478  MISS:    2405776  iACCESS:   11831254  iHIT:    9425478  iMISS:    2405776  dACCESS:          0  dHIT:          0  dMISS:          0  itACCESS:          0  itHIT:          0  itMISS:          0  dtACCESS:          0  dtHIT:          0  dtMISS:          0
cpu0_L1I RFO          ACCESS:          0  HIT:          0  MISS:          0  iACCESS:          0  iHIT:          0  iMISS:          0  dACCESS:          0  dHIT:          0  dMISS:          0  itACCESS:          0  itHIT:          0  itMISS:          0  dtACCESS:          0  dtHIT:          0  dtMISS:          0
cpu0_L1I PREFETCH     ACCESS:   27643214  HIT:   21208593  MISS:    6434621  iACCESS:   27643214  iHIT:   21208593  iMISS:    6434621  dACCESS:          0  dHIT:          0  dMISS:          0  itACCESS:          0  itHIT:          0  itMISS:          0  dtACCESS:          0  dtHIT:          0  dtMISS:          0
cpu0_L1I WRITE        ACCESS:          0  HIT:          0  MISS:          0  iACCESS:          0  iHIT:          0  iMISS:          0  dACCESS:          0  dHIT:          0  dMISS:          0  itACCESS:          0  itHIT:          0  itMISS:          0  dtACCESS:          0  dtHIT:          0  dtMISS:          0
cpu0_L1I TRANSLATION  ACCESS:          0  HIT:          0  MISS:          0  iACCESS:          0  iHIT:          0  iMISS:          0  dACCESS:          0  dHIT:          0  dMISS:          0  itACCESS:          0  itHIT:          0  itMISS:          0  dtACCESS:          0  dtHIT:          0  dtMISS:          0
cpu0_L1I PREFETCH  REQUESTED:   30482900  ISSUED:   30482687  CROSSED:          0  USEFUL:    2246406  USELESS:     780134
cpu0_L1I AVERAGE iMISS LATENCY: 24.6059 cycles
cpu0_L1I AVERAGE dMISS LATENCY: 0 cycles
cpu0_L1I AVERAGE itMISS LATENCY: 0 cycles
cpu0_L1I AVERAGE dtMISS LATENCY: 0 cycles
cpu0_L1I PAGE CROSSINGS (TLB HIT):         0 
cpu0_L1I PAGE CROSSINGS (TLB MISS):         0 
cpu0_L1I AVERAGE MISS LATENCY: 24.6059 cycles
cpu0_ITLB TOTAL       ACCESS:   33432131  HIT:   31158863  MISS:    2273268  iACCESS:   33432131  iHIT:   31158863  iMISS:    2273268  dACCESS:          0  dHIT:          0  dMISS:          0  itACCESS:          0  itHIT:          0  itMISS:          0  dtACCESS:          0  dtHIT:          0  dtMISS:          0
cpu0_ITLB LOAD         ACCESS:   33432131  HIT:   31158863  MISS:    2273268  iACCESS:   33432131  iHIT:   31158863  iMISS:    2273268  dACCESS:          0  dHIT:          0  dMISS:          0  itACCESS:          0  itHIT:          0  itMISS:          0  dtACCESS:          0  dtHIT:          0  dtMISS:          0
cpu0_ITLB RFO          ACCESS:          0  HIT:          0  MISS:          0  iACCESS:          0  iHIT:          0  iMISS:          0  dACCESS:          0  dHIT:          0  dMISS:          0  itACCESS:          0  itHIT:          0  itMISS:          0  dtACCESS:          0  dtHIT:          0  dtMISS:          0
cpu0_ITLB PREFETCH     ACCESS:          0  HIT:          0  MISS:          0  iACCESS:          0  iHIT:          0  iMISS:          0  dACCESS:          0  dHIT:          0  dMISS:          0  itACCESS:          0  itHIT:          0  itMISS:          0  dtACCESS:          0  dtHIT:          0  dtMISS:          0
cpu0_ITLB WRITE        ACCESS:          0  HIT:          0  MISS:          0  iACCESS:          0  iHIT:          0  iMISS:          0  dACCESS:          0  dHIT:          0  dMISS:          0  itACCESS:          0  itHIT:          0  itMISS:          0  dtACCESS:          0  dtHIT:          0  dtMISS:          0
cpu0_ITLB TRANSLATION  ACCESS:          0  HIT:          0  MISS:          0  iACCESS:          0  iHIT:          0  iMISS:          0  dACCESS:          0  dHIT:          0  dMISS:          0  itACCESS:          0  itHIT:          0  itMISS:          0  dtACCESS:          0  dtHIT:          0  dtMISS:          0
cpu0_ITLB PREFETCH  REQUESTED:          0  ISSUED:          0  CROSSED:          0  USEFUL:     396612  USELESS:      81014
cpu0_ITLB AVERAGE iMISS LATENCY: 6.73069 cycles
cpu0_ITLB AVERAGE dMISS LATENCY: 0 cycles
cpu0_ITLB AVERAGE itMISS LATENCY: 0 cycles
cpu0_ITLB AVERAGE dtMISS LATENCY: 0 cycles
cpu0_ITLB PAGE CROSSINGS (TLB HIT):         0 
cpu0_ITLB PAGE CROSSINGS (TLB MISS):         0 
cpu0_ITLB AVERAGE MISS LATENCY: 6.73069 cycles
cpu0_DTLB TOTAL       ACCESS:   28845482  HIT:   25455888  MISS:    3389594  iACCESS:          0  iHIT:          0  iMISS:          0  dACCESS:   28845482  dHIT:   25455888  dMISS:    3389594  itACCESS:          0  itHIT:          0  itMISS:          0  dtACCESS:          0  dtHIT:          0  dtMISS:          0
cpu0_DTLB LOAD         ACCESS:   28845482  HIT:   25455888  MISS:    3389594  iACCESS:          0  iHIT:          0  iMISS:          0  dACCESS:   28845482  dHIT:   25455888  dMISS:    3389594  itACCESS:          0  itHIT:          0  itMISS:          0  dtACCESS:          0  dtHIT:          0  dtMISS:          0
cpu0_DTLB RFO          ACCESS:          0  HIT:          0  MISS:          0  iACCESS:          0  iHIT:          0  iMISS:          0  dACCESS:          0  dHIT:          0  dMISS:          0  itACCESS:          0  itHIT:          0  itMISS:          0  dtACCESS:          0  dtHIT:          0  dtMISS:          0
cpu0_DTLB PREFETCH     ACCESS:          0  HIT:          0  MISS:          0  iACCESS:          0  iHIT:          0  iMISS:          0  dACCESS:          0  dHIT:          0  dMISS:          0  itACCESS:          0  itHIT:          0  itMISS:          0  dtACCESS:          0  dtHIT:          0  dtMISS:          0
cpu0_DTLB WRITE        ACCESS:          0  HIT:          0  MISS:          0  iACCESS:          0  iHIT:          0  iMISS:          0  dACCESS:          0  dHIT:          0  dMISS:          0  itACCESS:          0  itHIT:          0  itMISS:          0  dtACCESS:          0  dtHIT:          0  dtMISS:          0
cpu0_DTLB TRANSLATION  ACCESS:          0  HIT:          0  MISS:          0  iACCESS:          0  iHIT:          0  iMISS:          0  dACCESS:          0  dHIT:          0  dMISS:          0  itACCESS:          0  itHIT:          0  itMISS:          0  dtACCESS:          0  dtHIT:          0  dtMISS:          0
cpu0_DTLB PREFETCH  REQUESTED:          0  ISSUED:          0  CROSSED:          0  USEFUL:          0  USELESS:          0
cpu0_DTLB AVERAGE iMISS LATENCY: 0 cycles
cpu0_DTLB AVERAGE dMISS LATENCY: 29.0559 cycles
cpu0_DTLB AVERAGE itMISS LATENCY: 0 cycles
cpu0_DTLB AVERAGE dtMISS LATENCY: 0 cycles
cpu0_DTLB PAGE CROSSINGS (TLB HIT):         0 
cpu0_DTLB PAGE CROSSINGS (TLB MISS):         0 
cpu0_DTLB AVERAGE MISS LATENCY: 29.0559 cycles
cpu0_STLB TOTAL       ACCESS:    2422560  HIT:    2057748  MISS:     364812  iACCESS:     477629  iHIT:     418030  iMISS:      59599  dACCESS:    1944931  dHIT:    1639718  dMISS:     305213  itACCESS:          0  itHIT:          0  itMISS:          0  dtACCESS:          0  dtHIT:          0  dtMISS:          0
cpu0_STLB LOAD         ACCESS:    2422560  HIT:    2057748  MISS:     364812  iACCESS:     477629  iHIT:     418030  iMISS:      59599  dACCESS:    1944931  dHIT:    1639718  dMISS:     305213  itACCESS:          0  itHIT:          0  itMISS:          0  dtACCESS:          0  dtHIT:          0  dtMISS:          0
cpu0_STLB RFO          ACCESS:          0  HIT:          0  MISS:          0  iACCESS:          0  iHIT:          0  iMISS:          0  dACCESS:          0  dHIT:          0  dMISS:          0  itACCESS:          0  itHIT:          0  itMISS:          0  dtACCESS:          0  dtHIT:          0  dtMISS:          0
cpu0_STLB PREFETCH     ACCESS:          0  HIT:          0  MISS:          0  iACCESS:          0  iHIT:          0  iMISS:          0  dACCESS:          0  dHIT:          0  dMISS:          0  itACCESS:          0  itHIT:          0  itMISS:          0  dtACCESS:          0  dtHIT:          0  dtMISS:          0
cpu0_STLB WRITE        ACCESS:          0  HIT:          0  MISS:          0  iACCESS:          0  iHIT:          0  iMISS:          0  dACCESS:          0  dHIT:          0  dMISS:          0  itACCESS:          0  itHIT:          0  itMISS:          0  dtACCESS:          0  dtHIT:          0  dtMISS:          0
cpu0_STLB TRANSLATION  ACCESS:          0  HIT:          0  MISS:          0  iACCESS:          0  iHIT:          0  iMISS:          0  dACCESS:          0  dHIT:          0  dMISS:          0  itACCESS:          0  itHIT:          0  itMISS:          0  dtACCESS:          0  dtHIT:          0  dtMISS:          0
cpu0_STLB PREFETCH  REQUESTED:          0  ISSUED:          0  CROSSED:          0  USEFUL:          0  USELESS:          0
cpu0_STLB AVERAGE iMISS LATENCY: 31.6408 cycles
cpu0_STLB AVERAGE dMISS LATENCY: 226.952 cycles
cpu0_STLB AVERAGE itMISS LATENCY: 0 cycles
cpu0_STLB AVERAGE dtMISS LATENCY: 0 cycles
cpu0_STLB PAGE CROSSINGS (TLB HIT):         0 
cpu0_STLB PAGE CROSSINGS (TLB MISS):         0 
cpu0_STLB AVERAGE MISS LATENCY: 258.592 cycles
cpu0_L1D TOTAL       ACCESS:   45051972  HIT:   39255975  MISS:    5795997  iACCESS:          0  iHIT:          0  iMISS:          0  dACCESS:   44487307  dHIT:   39228859  dMISS:    5258448  itACCESS:      70121  itHIT:       5474  itMISS:      64647  dtACCESS:     494544  dtHIT:      21642  dtMISS:     472902
cpu0_L1D LOAD         ACCESS:   20281657  HIT:   17911975  MISS:    2369682  iACCESS:          0  iHIT:          0  iMISS:          0  dACCESS:   20281657  dHIT:   17911975  dMISS:    2369682  itACCESS:          0  itHIT:          0  itMISS:          0  dtACCESS:          0  dtHIT:          0  dtMISS:          0
cpu0_L1D RFO          ACCESS:          0  HIT:          0  MISS:          0  iACCESS:          0  iHIT:          0  iMISS:          0  dACCESS:          0  dHIT:          0  dMISS:          0  itACCESS:          0  itHIT:          0  itMISS:          0  dtACCESS:          0  dtHIT:          0  dtMISS:          0
cpu0_L1D PREFETCH     ACCESS:   14031764  HIT:   11702230  MISS:    2329534  iACCESS:          0  iHIT:          0  iMISS:          0  dACCESS:   14031764  dHIT:   11702230  dMISS:    2329534  itACCESS:          0  itHIT:          0  itMISS:          0  dtACCESS:          0  dtHIT:          0  dtMISS:          0
cpu0_L1D WRITE        ACCESS:   10173886  HIT:    9614654  MISS:     559232  iACCESS:          0  iHIT:          0  iMISS:          0  dACCESS:   10173886  dHIT:    9614654  dMISS:     559232  itACCESS:          0  itHIT:          0  itMISS:          0  dtACCESS:          0  dtHIT:          0  dtMISS:          0
cpu0_L1D TRANSLATION  ACCESS:     564665  HIT:      27116  MISS:     537549  iACCESS:          0  iHIT:          0  iMISS:          0  dACCESS:          0  dHIT:          0  dMISS:          0  itACCESS:      70121  itHIT:       5474  itMISS:      64647  dtACCESS:     494544  dtHIT:      21642  dtMISS:     472902
cpu0_L1D PREFETCH  REQUESTED:   20281657  ISSUED:   18431030  CROSSED:          0  USEFUL:     372898  USELESS:     914842
cpu0_L1D AVERAGE iMISS LATENCY: 0 cycles
cpu0_L1D AVERAGE dMISS LATENCY: 49.2106 cycles
cpu0_L1D AVERAGE itMISS LATENCY: 1.88407 cycles
cpu0_L1D AVERAGE dtMISS LATENCY: 13.3921 cycles
cpu0_L1D PAGE CROSSINGS (TLB HIT):         0 
cpu0_L1D PAGE CROSSINGS (TLB MISS):         0 
cpu0_L1D AVERAGE MISS LATENCY: 64.4867 cycles
cpu0_L2C TOTAL       ACCESS:    8725482  HIT:    4225075  MISS:    4500407  iACCESS:    3850304  iHIT:    2339482  iMISS:    1510822  dACCESS:    4371851  dHIT:    1823507  dMISS:    2548344  itACCESS:      64247  itHIT:       9327  itMISS:      54920  dtACCESS:     439080  dtHIT:      52759  dtMISS:     386321
cpu0_L2C LOAD         ACCESS:    2070797  HIT:    1018105  MISS:    1052692  iACCESS:     862020  iHIT:     550515  iMISS:     311505  dACCESS:    1208777  dHIT:     467590  dMISS:     741187  itACCESS:          0  itHIT:          0  itMISS:          0  dtACCESS:          0  dtHIT:          0  dtMISS:          0
cpu0_L2C RFO          ACCESS:     214313  HIT:      79912  MISS:     134401  iACCESS:          0  iHIT:          0  iMISS:          0  dACCESS:     214313  dHIT:      79912  dMISS:     134401  itACCESS:          0  itHIT:          0  itMISS:          0  dtACCESS:          0  dtHIT:          0  dtMISS:          0
cpu0_L2C PREFETCH     ACCESS:    5591567  HIT:    2723723  MISS:    2867844  iACCESS:    2988284  iHIT:    1788967  iMISS:    1199317  dACCESS:    2603283  dHIT:     934756  dMISS:    1668527  itACCESS:          0  itHIT:          0  itMISS:          0  dtACCESS:          0  dtHIT:          0  dtMISS:          0
cpu0_L2C WRITE        ACCESS:     345478  HIT:     341249  MISS:       4229  iACCESS:          0  iHIT:          0  iMISS:          0  dACCESS:     345478  dHIT:     341249  dMISS:       4229  itACCESS:          0  itHIT:          0  itMISS:          0  dtACCESS:          0  dtHIT:          0  dtMISS:          0
cpu0_L2C TRANSLATION  ACCESS:     503327  HIT:      62086  MISS:     441241  iACCESS:          0  iHIT:          0  iMISS:          0  dACCESS:          0  dHIT:          0  dMISS:          0  itACCESS:      64247  itHIT:       9327  itMISS:      54920  dtACCESS:     439080  dtHIT:      52759  dtMISS:     386321
cpu0_L2C PREFETCH  REQUESTED:    1560873  ISSUED:    1560865  CROSSED:          0  USEFUL:     366187  USELESS:     333937
cpu0_L2C AVERAGE iMISS LATENCY: 41.2066 cycles
cpu0_L2C AVERAGE dMISS LATENCY: 79.4186 cycles
cpu0_L2C AVERAGE itMISS LATENCY: 2.2853 cycles
cpu0_L2C AVERAGE dtMISS LATENCY: 16.278 cycles
cpu0_L2C PAGE CROSSINGS (TLB HIT):         0 
cpu0_L2C PAGE CROSSINGS (TLB MISS):         0 
cpu0_L2C AVERAGE MISS LATENCY: 139.189 cycles
LLC TOTAL       ACCESS:    4486098  HIT:    1331946  MISS:    3154152  iACCESS:    1417259  iHIT:     427859  iMISS:     989400  dACCESS:    2627598  dHIT:     853795  dMISS:    1773803  itACCESS:      54920  itHIT:       3372  itMISS:      51548  dtACCESS:     386321  dtHIT:      46920  dtMISS:     339401
LLC LOAD         ACCESS:    1045637  HIT:     325870  MISS:     719767  iACCESS:     310315  iHIT:     100254  iMISS:     210061  dACCESS:     735322  dHIT:     225616  dMISS:     509706  itACCESS:          0  itHIT:          0  itMISS:          0  dtACCESS:          0  dtHIT:          0  dtMISS:          0
LLC RFO          ACCESS:     134394  HIT:      40594  MISS:      93800  iACCESS:          0  iHIT:          0  iMISS:          0  dACCESS:     134394  dHIT:      40594  dMISS:      93800  itACCESS:          0  itHIT:          0  itMISS:          0  dtACCESS:          0  dtHIT:          0  dtMISS:          0
LLC PREFETCH     ACCESS:    2648997  HIT:     710361  MISS:    1938636  iACCESS:    1106944  iHIT:     327605  iMISS:     779339  dACCESS:    1542053  dHIT:     382756  dMISS:    1159297  itACCESS:          0  itHIT:          0  itMISS:          0  dtACCESS:          0  dtHIT:          0  dtMISS:          0
LLC WRITE        ACCESS:     215829  HIT:     204829  MISS:      11000  iACCESS:          0  iHIT:          0  iMISS:          0  dACCESS:     215829  dHIT:     204829  dMISS:      11000  itACCESS:          0  itHIT:          0  itMISS:          0  dtACCESS:          0  dtHIT:          0  dtMISS:          0
LLC TRANSLATION  ACCESS:     441241  HIT:      50292  MISS:     390949  iACCESS:          0  iHIT:          0  iMISS:          0  dACCESS:          0  dHIT:          0  dMISS:          0  itACCESS:      54920  itHIT:       3372  itMISS:      51548  dtACCESS:     386321  dtHIT:      46920  dtMISS:     339401
LLC PREFETCH  REQUESTED:          0  ISSUED:          0  CROSSED:          0  USEFUL:          0  USELESS:          0
LLC AVERAGE iMISS LATENCY: 49.944 cycles
LLC AVERAGE dMISS LATENCY: 99.1322 cycles
LLC AVERAGE itMISS LATENCY: 2.91514 cycles
LLC AVERAGE dtMISS LATENCY: 20.8053 cycles
LLC PAGE CROSSINGS (TLB HIT):         0 
LLC PAGE CROSSINGS (TLB MISS):         0 
LLC AVERAGE MISS LATENCY: 172.797 cycles

PageTableWalker TOTAL       ACCESS:     177403  
PageTableWalker AVERAGE LATENCY: 6.85253 cycles
PageTableWalker TOTAL LATENCY: 1215658 cycles

DRAM Statistics
Channel 0
 RQ ROW_BUFFER_HIT:     661513
  ROW_BUFFER_MISS:    2462605
 AVG DBUS CONGESTED CYCLE:    3.65057
 WQ ROW_BUFFER_HIT:      66824
  ROW_BUFFER_MISS:      56405  FULL:          0

