last_page:0x200000000000000
VMEM_RES_CAP:0x100000
PAGE_SIZE:4096
LOG2_PAGE_SIZE:12
LOG2_PAGE_TABLE_SIZE:9
page_table_levels:5
WARNING: physical memory size is smaller than virtual memory size
FDiP enabled with aggresivity 16

*** ChampSim Multicore Out-of-Order Simulator ***

Warmup Instructions: 50000000
Simulation Instructions: 100000000
Number of CPUs: 1
Small page size: 4096
Large page size: 2097152

CPU 0 Bimodal branch predictor
Basic BTB sets: 1024 ways: 8 indirect buffer size: 4096 RAS size: 64
Instruction page size distrubution: 0
Loading instruction page size distribution from /home/bsc/bsc018186/scratch/itp_asplos25_AE/dump/smt_srv537_ap_srv442_ap_1024i.pdst
Data page size distrubution: 0
Loading data page size distribution from /home/bsc/bsc018186/scratch/itp_asplos25_AE/dump/smt_srv537_ap_srv442_ap_1024i.pdst
cpu0_L2C IP-based stride prefetcher
cpu0_L2C is using PTP replacement policy:
	TLB_STRESS_THRESHOLD:0
	PTE_EVICTION_RATIO:0
cpu0_L1D next line prefetcher
cpu0_L1I next line prefetcher
Off-chip DRAM Size: 4 GiB Channels: 1 Width: 64-bit Data Rate: 3200 MT/s
Heartbeat CPU 0 instructions: 10000003 cycles: 2500640 heartbeat IPC: 3.99898 cumulative IPC: 3.99898 (Simulation time: 0 hr 0 min 45 sec) 
Heartbeat CPU 0 instructions: 20000002 cycles: 5000917 heartbeat IPC: 3.99956 cumulative IPC: 3.99927 (Simulation time: 0 hr 1 min 32 sec) 
Heartbeat CPU 0 instructions: 30000003 cycles: 7501235 heartbeat IPC: 3.9995 cumulative IPC: 3.99935 (Simulation time: 0 hr 2 min 19 sec) 
Heartbeat CPU 0 instructions: 40000003 cycles: 10001459 heartbeat IPC: 3.99965 cumulative IPC: 3.99942 (Simulation time: 0 hr 3 min 7 sec) 
Heartbeat CPU 0 instructions: 50000000 cycles: 12501864 heartbeat IPC: 3.99936 cumulative IPC: 3.99941 (Simulation time: 0 hr 3 min 54 sec) 
Warmup finished CPU 0 instructions: 50000000 cycles: 12501865 cumulative IPC: 3.99941 (Simulation time: 0 hr 3 min 54 sec) 

Warmup complete CPU 0 instructions: 50000000 cycles: 12501865 (Simulation time: 0 hr 3 min 54 sec) 

Heartbeat CPU 0 instructions: 60000000 cycles: 41069104 heartbeat IPC: 0.350052 cumulative IPC: 0.350052 (Simulation time: 0 hr 5 min 32 sec) 
Heartbeat CPU 0 instructions: 70000004 cycles: 69854961 heartbeat IPC: 0.347393 cumulative IPC: 0.348718 (Simulation time: 0 hr 7 min 9 sec) 
Heartbeat CPU 0 instructions: 80000003 cycles: 97483493 heartbeat IPC: 0.361945 cumulative IPC: 0.353018 (Simulation time: 0 hr 8 min 41 sec) 
Heartbeat CPU 0 instructions: 90000000 cycles: 125888253 heartbeat IPC: 0.352054 cumulative IPC: 0.352777 (Simulation time: 0 hr 10 min 17 sec) 
Heartbeat CPU 0 instructions: 100000003 cycles: 154787302 heartbeat IPC: 0.346033 cumulative IPC: 0.351407 (Simulation time: 0 hr 11 min 54 sec) 
Heartbeat CPU 0 instructions: 110000003 cycles: 184200437 heartbeat IPC: 0.339985 cumulative IPC: 0.34945 (Simulation time: 0 hr 13 min 32 sec) 
Heartbeat CPU 0 instructions: 120000002 cycles: 213353864 heartbeat IPC: 0.343013 cumulative IPC: 0.348516 (Simulation time: 0 hr 15 min 10 sec) 
Heartbeat CPU 0 instructions: 130000001 cycles: 242018924 heartbeat IPC: 0.348857 cumulative IPC: 0.348558 (Simulation time: 0 hr 16 min 47 sec) 
Heartbeat CPU 0 instructions: 140000003 cycles: 269982752 heartbeat IPC: 0.357605 cumulative IPC: 0.349541 (Simulation time: 0 hr 18 min 12 sec) 
Heartbeat CPU 0 instructions: 150000002 cycles: 299206704 heartbeat IPC: 0.342186 cumulative IPC: 0.348791 (Simulation time: 0 hr 19 min 37 sec) 
Simulation finished CPU 0 instructions: 100000002 cycles: 286704840 cumulative IPC: 0.348791 (Simulation time: 0 hr 19 min 37 sec) 

Simulation complete CPU 0 instructions: 100000002 cycles: 286704840 (Simulation time: 0 hr 19 min 37 sec) 


ChampSim completed all CPUs

Saving instructions large page distribution to /home/bsc/bsc018186/scratch/itp_asplos25_AE/dump/smt_srv537_ap_srv442_ap_1024i.pdst...
Saving data large page distribution to /home/bsc/bsc018186/scratch/itp_asplos25_AE/dump/smt_srv537_ap_srv442_ap_1024i.pdst...
=== Simulation ===
CPU 0 runs /gpfs/projects/bsc18/MN4/bsc18/romol/ChampSim/traces/qualcomm_srv/smt_srv537_ap_srv442_ap_1024i.champsimtrace.xz

Region of Interest Statistics

CPU 0 cumulative IPC: 0.348791 instructions: 100000002 cycles: 286704840
CPU 0 Branch Prediction Accuracy: 76.4472% MPKI: 42.5537 Average ROB Occupancy at Mispredict: 11.2488
Branch type MPKI
BRANCH_DIRECT_JUMP: 1.30472
BRANCH_INDIRECT: 22.7349
BRANCH_CONDITIONAL: 11.6924
BRANCH_DIRECT_CALL: 2.42252
BRANCH_INDIRECT_CALL: 1.00609
BRANCH_RETURN: 3.39313

Instructions large pages: 0
Instructions small pages: 10371
Large page distribution for instructions: 0%

Data large pages: 0
Data small pages: 9181
Large page distribution for data: 0%

cpu0_L1I TOTAL       ACCESS:   39008861  HIT:   30090429  MISS:    8918432  iACCESS:   39008861  iHIT:   30090429  iMISS:    8918432  dACCESS:          0  dHIT:          0  dMISS:          0  itACCESS:          0  itHIT:          0  itMISS:          0  dtACCESS:          0  dtHIT:          0  dtMISS:          0
cpu0_L1I LOAD         ACCESS:   11716629  HIT:    9257240  MISS:    2459389  iACCESS:   11716629  iHIT:    9257240  iMISS:    2459389  dACCESS:          0  dHIT:          0  dMISS:          0  itACCESS:          0  itHIT:          0  itMISS:          0  dtACCESS:          0  dtHIT:          0  dtMISS:          0
cpu0_L1I RFO          ACCESS:          0  HIT:          0  MISS:          0  iACCESS:          0  iHIT:          0  iMISS:          0  dACCESS:          0  dHIT:          0  dMISS:          0  itACCESS:          0  itHIT:          0  itMISS:          0  dtACCESS:          0  dtHIT:          0  dtMISS:          0
cpu0_L1I PREFETCH     ACCESS:   27292232  HIT:   20833189  MISS:    6459043  iACCESS:   27292232  iHIT:   20833189  iMISS:    6459043  dACCESS:          0  dHIT:          0  dMISS:          0  itACCESS:          0  itHIT:          0  itMISS:          0  dtACCESS:          0  dtHIT:          0  dtMISS:          0
cpu0_L1I WRITE        ACCESS:          0  HIT:          0  MISS:          0  iACCESS:          0  iHIT:          0  iMISS:          0  dACCESS:          0  dHIT:          0  dMISS:          0  itACCESS:          0  itHIT:          0  itMISS:          0  dtACCESS:          0  dtHIT:          0  dtMISS:          0
cpu0_L1I TRANSLATION  ACCESS:          0  HIT:          0  MISS:          0  iACCESS:          0  iHIT:          0  iMISS:          0  dACCESS:          0  dHIT:          0  dMISS:          0  itACCESS:          0  itHIT:          0  itMISS:          0  dtACCESS:          0  dtHIT:          0  dtMISS:          0
cpu0_L1I PREFETCH  REQUESTED:   30160990  ISSUED:   30160820  CROSSED:          0  USEFUL:    2229333  USELESS:     779857
cpu0_L1I AVERAGE iMISS LATENCY: 21.5607 cycles
cpu0_L1I AVERAGE dMISS LATENCY: 0 cycles
cpu0_L1I AVERAGE itMISS LATENCY: 0 cycles
cpu0_L1I AVERAGE dtMISS LATENCY: 0 cycles
cpu0_L1I PAGE CROSSINGS (TLB HIT):         0 
cpu0_L1I PAGE CROSSINGS (TLB MISS):         0 
cpu0_L1I AVERAGE MISS LATENCY: 21.5607 cycles
cpu0_ITLB TOTAL       ACCESS:   32937816  HIT:   30622753  MISS:    2315063  iACCESS:   32937816  iHIT:   30622753  iMISS:    2315063  dACCESS:          0  dHIT:          0  dMISS:          0  itACCESS:          0  itHIT:          0  itMISS:          0  dtACCESS:          0  dtHIT:          0  dtMISS:          0
cpu0_ITLB LOAD         ACCESS:   32937816  HIT:   30622753  MISS:    2315063  iACCESS:   32937816  iHIT:   30622753  iMISS:    2315063  dACCESS:          0  dHIT:          0  dMISS:          0  itACCESS:          0  itHIT:          0  itMISS:          0  dtACCESS:          0  dtHIT:          0  dtMISS:          0
cpu0_ITLB RFO          ACCESS:          0  HIT:          0  MISS:          0  iACCESS:          0  iHIT:          0  iMISS:          0  dACCESS:          0  dHIT:          0  dMISS:          0  itACCESS:          0  itHIT:          0  itMISS:          0  dtACCESS:          0  dtHIT:          0  dtMISS:          0
cpu0_ITLB PREFETCH     ACCESS:          0  HIT:          0  MISS:          0  iACCESS:          0  iHIT:          0  iMISS:          0  dACCESS:          0  dHIT:          0  dMISS:          0  itACCESS:          0  itHIT:          0  itMISS:          0  dtACCESS:          0  dtHIT:          0  dtMISS:          0
cpu0_ITLB WRITE        ACCESS:          0  HIT:          0  MISS:          0  iACCESS:          0  iHIT:          0  iMISS:          0  dACCESS:          0  dHIT:          0  dMISS:          0  itACCESS:          0  itHIT:          0  itMISS:          0  dtACCESS:          0  dtHIT:          0  dtMISS:          0
cpu0_ITLB TRANSLATION  ACCESS:          0  HIT:          0  MISS:          0  iACCESS:          0  iHIT:          0  iMISS:          0  dACCESS:          0  dHIT:          0  dMISS:          0  itACCESS:          0  itHIT:          0  itMISS:          0  dtACCESS:          0  dtHIT:          0  dtMISS:          0
cpu0_ITLB PREFETCH  REQUESTED:          0  ISSUED:          0  CROSSED:          0  USEFUL:     392283  USELESS:      84210
cpu0_ITLB AVERAGE iMISS LATENCY: 9.35021 cycles
cpu0_ITLB AVERAGE dMISS LATENCY: 0 cycles
cpu0_ITLB AVERAGE itMISS LATENCY: 0 cycles
cpu0_ITLB AVERAGE dtMISS LATENCY: 0 cycles
cpu0_ITLB PAGE CROSSINGS (TLB HIT):         0 
cpu0_ITLB PAGE CROSSINGS (TLB MISS):         0 
cpu0_ITLB AVERAGE MISS LATENCY: 9.35021 cycles
cpu0_DTLB TOTAL       ACCESS:   28813583  HIT:   25381950  MISS:    3431633  iACCESS:          0  iHIT:          0  iMISS:          0  dACCESS:   28813583  dHIT:   25381950  dMISS:    3431633  itACCESS:          0  itHIT:          0  itMISS:          0  dtACCESS:          0  dtHIT:          0  dtMISS:          0
cpu0_DTLB LOAD         ACCESS:   28813583  HIT:   25381950  MISS:    3431633  iACCESS:          0  iHIT:          0  iMISS:          0  dACCESS:   28813583  dHIT:   25381950  dMISS:    3431633  itACCESS:          0  itHIT:          0  itMISS:          0  dtACCESS:          0  dtHIT:          0  dtMISS:          0
cpu0_DTLB RFO          ACCESS:          0  HIT:          0  MISS:          0  iACCESS:          0  iHIT:          0  iMISS:          0  dACCESS:          0  dHIT:          0  dMISS:          0  itACCESS:          0  itHIT:          0  itMISS:          0  dtACCESS:          0  dtHIT:          0  dtMISS:          0
cpu0_DTLB PREFETCH     ACCESS:          0  HIT:          0  MISS:          0  iACCESS:          0  iHIT:          0  iMISS:          0  dACCESS:          0  dHIT:          0  dMISS:          0  itACCESS:          0  itHIT:          0  itMISS:          0  dtACCESS:          0  dtHIT:          0  dtMISS:          0
cpu0_DTLB WRITE        ACCESS:          0  HIT:          0  MISS:          0  iACCESS:          0  iHIT:          0  iMISS:          0  dACCESS:          0  dHIT:          0  dMISS:          0  itACCESS:          0  itHIT:          0  itMISS:          0  dtACCESS:          0  dtHIT:          0  dtMISS:          0
cpu0_DTLB TRANSLATION  ACCESS:          0  HIT:          0  MISS:          0  iACCESS:          0  iHIT:          0  iMISS:          0  dACCESS:          0  dHIT:          0  dMISS:          0  itACCESS:          0  itHIT:          0  itMISS:          0  dtACCESS:          0  dtHIT:          0  dtMISS:          0
cpu0_DTLB PREFETCH  REQUESTED:          0  ISSUED:          0  CROSSED:          0  USEFUL:          0  USELESS:          0
cpu0_DTLB AVERAGE iMISS LATENCY: 0 cycles
cpu0_DTLB AVERAGE dMISS LATENCY: 25.3985 cycles
cpu0_DTLB AVERAGE itMISS LATENCY: 0 cycles
cpu0_DTLB AVERAGE dtMISS LATENCY: 0 cycles
cpu0_DTLB PAGE CROSSINGS (TLB HIT):         0 
cpu0_DTLB PAGE CROSSINGS (TLB MISS):         0 
cpu0_DTLB AVERAGE MISS LATENCY: 25.3985 cycles
cpu0_STLB TOTAL       ACCESS:    2428188  HIT:    2065331  MISS:     362857  iACCESS:     476490  iHIT:     369836  iMISS:     106654  dACCESS:    1951698  dHIT:    1695495  dMISS:     256203  itACCESS:          0  itHIT:          0  itMISS:          0  dtACCESS:          0  dtHIT:          0  dtMISS:          0
cpu0_STLB LOAD         ACCESS:    2428188  HIT:    2065331  MISS:     362857  iACCESS:     476490  iHIT:     369836  iMISS:     106654  dACCESS:    1951698  dHIT:    1695495  dMISS:     256203  itACCESS:          0  itHIT:          0  itMISS:          0  dtACCESS:          0  dtHIT:          0  dtMISS:          0
cpu0_STLB RFO          ACCESS:          0  HIT:          0  MISS:          0  iACCESS:          0  iHIT:          0  iMISS:          0  dACCESS:          0  dHIT:          0  dMISS:          0  itACCESS:          0  itHIT:          0  itMISS:          0  dtACCESS:          0  dtHIT:          0  dtMISS:          0
cpu0_STLB PREFETCH     ACCESS:          0  HIT:          0  MISS:          0  iACCESS:          0  iHIT:          0  iMISS:          0  dACCESS:          0  dHIT:          0  dMISS:          0  itACCESS:          0  itHIT:          0  itMISS:          0  dtACCESS:          0  dtHIT:          0  dtMISS:          0
cpu0_STLB WRITE        ACCESS:          0  HIT:          0  MISS:          0  iACCESS:          0  iHIT:          0  iMISS:          0  dACCESS:          0  dHIT:          0  dMISS:          0  itACCESS:          0  itHIT:          0  itMISS:          0  dtACCESS:          0  dtHIT:          0  dtMISS:          0
cpu0_STLB TRANSLATION  ACCESS:          0  HIT:          0  MISS:          0  iACCESS:          0  iHIT:          0  iMISS:          0  dACCESS:          0  dHIT:          0  dMISS:          0  itACCESS:          0  itHIT:          0  itMISS:          0  dtACCESS:          0  dtHIT:          0  dtMISS:          0
cpu0_STLB PREFETCH  REQUESTED:          0  ISSUED:          0  CROSSED:          0  USEFUL:          0  USELESS:          0
cpu0_STLB AVERAGE iMISS LATENCY: 49.1795 cycles
cpu0_STLB AVERAGE dMISS LATENCY: 196.947 cycles
cpu0_STLB AVERAGE itMISS LATENCY: 0 cycles
cpu0_STLB AVERAGE dtMISS LATENCY: 0 cycles
cpu0_STLB PAGE CROSSINGS (TLB HIT):         0 
cpu0_STLB PAGE CROSSINGS (TLB MISS):         0 
cpu0_STLB AVERAGE MISS LATENCY: 246.126 cycles
cpu0_L1D TOTAL       ACCESS:   44985368  HIT:   39111577  MISS:    5873791  iACCESS:          0  iHIT:          0  iMISS:          0  dACCESS:   44444822  dHIT:   39080829  dMISS:    5363993  itACCESS:     119479  itHIT:      13206  itMISS:     106273  dtACCESS:     421067  dtHIT:      17542  dtMISS:     403525
cpu0_L1D LOAD         ACCESS:   20272338  HIT:   17858591  MISS:    2413747  iACCESS:          0  iHIT:          0  iMISS:          0  dACCESS:   20272338  dHIT:   17858591  dMISS:    2413747  itACCESS:          0  itHIT:          0  itMISS:          0  dtACCESS:          0  dtHIT:          0  dtMISS:          0
cpu0_L1D RFO          ACCESS:          0  HIT:          0  MISS:          0  iACCESS:          0  iHIT:          0  iMISS:          0  dACCESS:          0  dHIT:          0  dMISS:          0  itACCESS:          0  itHIT:          0  itMISS:          0  dtACCESS:          0  dtHIT:          0  dtMISS:          0
cpu0_L1D PREFETCH     ACCESS:   13994963  HIT:   11616668  MISS:    2378295  iACCESS:          0  iHIT:          0  iMISS:          0  dACCESS:   13994963  dHIT:   11616668  dMISS:    2378295  itACCESS:          0  itHIT:          0  itMISS:          0  dtACCESS:          0  dtHIT:          0  dtMISS:          0
cpu0_L1D WRITE        ACCESS:   10177521  HIT:    9605570  MISS:     571951  iACCESS:          0  iHIT:          0  iMISS:          0  dACCESS:   10177521  dHIT:    9605570  dMISS:     571951  itACCESS:          0  itHIT:          0  itMISS:          0  dtACCESS:          0  dtHIT:          0  dtMISS:          0
cpu0_L1D TRANSLATION  ACCESS:     540546  HIT:      30748  MISS:     509798  iACCESS:          0  iHIT:          0  iMISS:          0  dACCESS:          0  dHIT:          0  dMISS:          0  itACCESS:     119479  itHIT:      13206  itMISS:     106273  dtACCESS:     421067  dtHIT:      17542  dtMISS:     403525
cpu0_L1D PREFETCH  REQUESTED:   20272338  ISSUED:   18397778  CROSSED:          0  USEFUL:     371709  USELESS:     920531
cpu0_L1D AVERAGE iMISS LATENCY: 0 cycles
cpu0_L1D AVERAGE dMISS LATENCY: 48.7597 cycles
cpu0_L1D AVERAGE itMISS LATENCY: 2.86448 cycles
cpu0_L1D AVERAGE dtMISS LATENCY: 11.3721 cycles
cpu0_L1D PAGE CROSSINGS (TLB HIT):         0 
cpu0_L1D PAGE CROSSINGS (TLB MISS):         0 
cpu0_L1D AVERAGE MISS LATENCY: 62.9962 cycles
cpu0_L2C TOTAL       ACCESS:    8664956  HIT:    4169318  MISS:    4495638  iACCESS:    3851919  iHIT:    2324422  iMISS:    1527497  dACCESS:    4339847  dHIT:    1784112  dMISS:    2555735  itACCESS:     106010  itHIT:      18193  itMISS:      87817  dtACCESS:     367180  dtHIT:      42591  dtMISS:     324589
cpu0_L2C LOAD         ACCESS:    2100277  HIT:    1010893  MISS:    1089384  iACCESS:     880042  iHIT:     555067  iMISS:     324975  dACCESS:    1220235  dHIT:     455826  dMISS:     764409  itACCESS:          0  itHIT:          0  itMISS:          0  dtACCESS:          0  dtHIT:          0  dtMISS:          0
cpu0_L2C RFO          ACCESS:     216518  HIT:      79107  MISS:     137411  iACCESS:          0  iHIT:          0  iMISS:          0  dACCESS:     216518  dHIT:      79107  dMISS:     137411  itACCESS:          0  itHIT:          0  itMISS:          0  dtACCESS:          0  dtHIT:          0  dtMISS:          0
cpu0_L2C PREFETCH     ACCESS:    5526392  HIT:    2689000  MISS:    2837392  iACCESS:    2971877  iHIT:    1769355  iMISS:    1202522  dACCESS:    2554515  dHIT:     919645  dMISS:    1634870  itACCESS:          0  itHIT:          0  itMISS:          0  dtACCESS:          0  dtHIT:          0  dtMISS:          0
cpu0_L2C WRITE        ACCESS:     348579  HIT:     329534  MISS:      19045  iACCESS:          0  iHIT:          0  iMISS:          0  dACCESS:     348579  dHIT:     329534  dMISS:      19045  itACCESS:          0  itHIT:          0  itMISS:          0  dtACCESS:          0  dtHIT:          0  dtMISS:          0
cpu0_L2C TRANSLATION  ACCESS:     473190  HIT:      60784  MISS:     412406  iACCESS:          0  iHIT:          0  iMISS:          0  dACCESS:          0  dHIT:          0  dMISS:          0  itACCESS:     106010  itHIT:      18193  itMISS:      87817  dtACCESS:     367180  dtHIT:      42591  dtMISS:     324589
cpu0_L2C PREFETCH  REQUESTED:    1526093  ISSUED:    1526089  CROSSED:          0  USEFUL:     359489  USELESS:     309975
cpu0_L2C AVERAGE iMISS LATENCY: 35.368 cycles
cpu0_L2C AVERAGE dMISS LATENCY: 76.3948 cycles
cpu0_L2C AVERAGE itMISS LATENCY: 3.51014 cycles
cpu0_L2C AVERAGE dtMISS LATENCY: 14.0461 cycles
cpu0_L2C PAGE CROSSINGS (TLB HIT):         0 
cpu0_L2C PAGE CROSSINGS (TLB MISS):         0 
cpu0_L2C AVERAGE MISS LATENCY: 129.319 cycles
LLC TOTAL       ACCESS:    4504865  HIT:    1634913  MISS:    2869952  iACCESS:    1447862  iHIT:     616146  iMISS:     831716  dACCESS:    2644597  dHIT:     976617  dMISS:    1667980  itACCESS:      87817  itHIT:       8892  itMISS:      78925  dtACCESS:     324589  dtHIT:      33258  dtMISS:     291331
LLC LOAD         ACCESS:    1081425  HIT:     395166  MISS:     686259  iACCESS:     323710  iHIT:     146387  iMISS:     177323  dACCESS:     757715  dHIT:     248779  dMISS:     508936  itACCESS:          0  itHIT:          0  itMISS:          0  dtACCESS:          0  dtHIT:          0  dtMISS:          0
LLC RFO          ACCESS:     137405  HIT:      46231  MISS:      91174  iACCESS:          0  iHIT:          0  iMISS:          0  dACCESS:     137405  dHIT:      46231  dMISS:      91174  itACCESS:          0  itHIT:          0  itMISS:          0  dtACCESS:          0  dtHIT:          0  dtMISS:          0
LLC PREFETCH     ACCESS:    2653985  HIT:     941097  MISS:    1712888  iACCESS:    1124152  iHIT:     469759  iMISS:     654393  dACCESS:    1529833  dHIT:     471338  dMISS:    1058495  itACCESS:          0  itHIT:          0  itMISS:          0  dtACCESS:          0  dtHIT:          0  dtMISS:          0
LLC WRITE        ACCESS:     219644  HIT:     210269  MISS:       9375  iACCESS:          0  iHIT:          0  iMISS:          0  dACCESS:     219644  dHIT:     210269  dMISS:       9375  itACCESS:          0  itHIT:          0  itMISS:          0  dtACCESS:          0  dtHIT:          0  dtMISS:          0
LLC TRANSLATION  ACCESS:     412406  HIT:      42150  MISS:     370256  iACCESS:          0  iHIT:          0  iMISS:          0  dACCESS:          0  dHIT:          0  dMISS:          0  itACCESS:      87817  itHIT:       8892  itMISS:      78925  dtACCESS:     324589  dtHIT:      33258  dtMISS:     291331
LLC PREFETCH  REQUESTED:          0  ISSUED:          0  CROSSED:          0  USEFUL:          0  USELESS:          0
LLC AVERAGE iMISS LATENCY: 45.5049 cycles
LLC AVERAGE dMISS LATENCY: 104.02 cycles
LLC AVERAGE itMISS LATENCY: 4.89219 cycles
LLC AVERAGE dtMISS LATENCY: 19.7658 cycles
LLC PAGE CROSSINGS (TLB HIT):         0 
LLC PAGE CROSSINGS (TLB MISS):         0 
LLC AVERAGE MISS LATENCY: 174.183 cycles

PageTableWalker TOTAL       ACCESS:     174473  
PageTableWalker AVERAGE LATENCY: 6.37027 cycles
PageTableWalker TOTAL LATENCY: 1111439 cycles

DRAM Statistics
Channel 0
 RQ ROW_BUFFER_HIT:     593229
  ROW_BUFFER_MISS:    2247665
 AVG DBUS CONGESTED CYCLE:    3.64648
 WQ ROW_BUFFER_HIT:      65879
  ROW_BUFFER_MISS:      55423  FULL:          0

