last_page:0x200000000000000
VMEM_RES_CAP:0x100000
PAGE_SIZE:4096
LOG2_PAGE_SIZE:12
LOG2_PAGE_TABLE_SIZE:9
page_table_levels:5
WARNING: physical memory size is smaller than virtual memory size
FDiP enabled with aggresivity 16

*** ChampSim Multicore Out-of-Order Simulator ***

Warmup Instructions: 50000000
Simulation Instructions: 100000000
Number of CPUs: 1
Small page size: 4096
Large page size: 2097152

CPU 0 Bimodal branch predictor
Basic BTB sets: 1024 ways: 8 indirect buffer size: 4096 RAS size: 64
Instruction page size distrubution: 0
Loading instruction page size distribution from /home/bsc/bsc018186/scratch/itp_asplos25_AE/dump/smt_srv540_ap_srv697_ap_1024i.pdst
Data page size distrubution: 0
Loading data page size distribution from /home/bsc/bsc018186/scratch/itp_asplos25_AE/dump/smt_srv540_ap_srv697_ap_1024i.pdst
cpu0_L2C IP-based stride prefetcher
cpu0_L2C is using PTP replacement policy:
	TLB_STRESS_THRESHOLD:0
	PTE_EVICTION_RATIO:0
cpu0_L1D next line prefetcher
CHiRPing...
cpu0_L1I next line prefetcher
Off-chip DRAM Size: 4 GiB Channels: 1 Width: 64-bit Data Rate: 3200 MT/s
Heartbeat CPU 0 instructions: 10000001 cycles: 2500360 heartbeat IPC: 3.99943 cumulative IPC: 3.99943 (Simulation time: 0 hr 0 min 39 sec) 
Heartbeat CPU 0 instructions: 20000003 cycles: 5000533 heartbeat IPC: 3.99973 cumulative IPC: 3.99958 (Simulation time: 0 hr 1 min 19 sec) 
Heartbeat CPU 0 instructions: 30000003 cycles: 7500664 heartbeat IPC: 3.9998 cumulative IPC: 3.99965 (Simulation time: 0 hr 2 min 1 sec) 
Heartbeat CPU 0 instructions: 40000003 cycles: 10000813 heartbeat IPC: 3.99977 cumulative IPC: 3.99968 (Simulation time: 0 hr 2 min 42 sec) 
Heartbeat CPU 0 instructions: 50000001 cycles: 12500940 heartbeat IPC: 3.9998 cumulative IPC: 3.9997 (Simulation time: 0 hr 3 min 25 sec) 
Warmup finished CPU 0 instructions: 50000001 cycles: 12500941 cumulative IPC: 3.9997 (Simulation time: 0 hr 3 min 25 sec) 

Warmup complete CPU 0 instructions: 50000001 cycles: 12500941 (Simulation time: 0 hr 3 min 25 sec) 

Heartbeat CPU 0 instructions: 60000003 cycles: 41332865 heartbeat IPC: 0.346838 cumulative IPC: 0.346838 (Simulation time: 0 hr 4 min 54 sec) 
Heartbeat CPU 0 instructions: 70000001 cycles: 68568383 heartbeat IPC: 0.367168 cumulative IPC: 0.356714 (Simulation time: 0 hr 6 min 22 sec) 
Heartbeat CPU 0 instructions: 80000002 cycles: 97125960 heartbeat IPC: 0.35017 cumulative IPC: 0.354506 (Simulation time: 0 hr 7 min 53 sec) 
Heartbeat CPU 0 instructions: 90000000 cycles: 126396626 heartbeat IPC: 0.341639 cumulative IPC: 0.351199 (Simulation time: 0 hr 9 min 23 sec) 
Heartbeat CPU 0 instructions: 100000001 cycles: 155930343 heartbeat IPC: 0.338597 cumulative IPC: 0.348604 (Simulation time: 0 hr 10 min 53 sec) 
Heartbeat CPU 0 instructions: 110000002 cycles: 183652996 heartbeat IPC: 0.360716 cumulative IPC: 0.350566 (Simulation time: 0 hr 12 min 20 sec) 
Heartbeat CPU 0 instructions: 120000000 cycles: 212310224 heartbeat IPC: 0.348953 cumulative IPC: 0.350335 (Simulation time: 0 hr 13 min 44 sec) 
Heartbeat CPU 0 instructions: 130000004 cycles: 240783617 heartbeat IPC: 0.351206 cumulative IPC: 0.350443 (Simulation time: 0 hr 15 min 7 sec) 
Heartbeat CPU 0 instructions: 140000000 cycles: 268424189 heartbeat IPC: 0.361787 cumulative IPC: 0.351668 (Simulation time: 0 hr 16 min 29 sec) 
Heartbeat CPU 0 instructions: 150000001 cycles: 296305775 heartbeat IPC: 0.35866 cumulative IPC: 0.352355 (Simulation time: 0 hr 17 min 50 sec) 
Simulation finished CPU 0 instructions: 100000000 cycles: 283804835 cumulative IPC: 0.352355 (Simulation time: 0 hr 17 min 50 sec) 

Simulation complete CPU 0 instructions: 100000000 cycles: 283804835 (Simulation time: 0 hr 17 min 50 sec) 


ChampSim completed all CPUs

Saving instructions large page distribution to /home/bsc/bsc018186/scratch/itp_asplos25_AE/dump/smt_srv540_ap_srv697_ap_1024i.pdst...
Saving data large page distribution to /home/bsc/bsc018186/scratch/itp_asplos25_AE/dump/smt_srv540_ap_srv697_ap_1024i.pdst...
=== Simulation ===
CPU 0 runs /gpfs/projects/bsc18/MN4/bsc18/romol/ChampSim/traces/qualcomm_srv/smt_srv540_ap_srv697_ap_1024i.champsimtrace.xz

Region of Interest Statistics

CPU 0 cumulative IPC: 0.352355 instructions: 100000000 cycles: 283804835
CPU 0 Branch Prediction Accuracy: 76.0837% MPKI: 43.0053 Average ROB Occupancy at Mispredict: 11.4334
Branch type MPKI
BRANCH_DIRECT_JUMP: 1.28819
BRANCH_INDIRECT: 22.3946
BRANCH_CONDITIONAL: 12.4928
BRANCH_DIRECT_CALL: 2.47658
BRANCH_INDIRECT_CALL: 0.927061
BRANCH_RETURN: 3.42609

Instructions large pages: 0
Instructions small pages: 12891
Large page distribution for instructions: 0%

Data large pages: 0
Data small pages: 11667
Large page distribution for data: 0%

cpu0_L1I TOTAL       ACCESS:   38901122  HIT:   30290825  MISS:    8610297  iACCESS:   38901122  iHIT:   30290825  iMISS:    8610297  dACCESS:          0  dHIT:          0  dMISS:          0  itACCESS:          0  itHIT:          0  itMISS:          0  dtACCESS:          0  dtHIT:          0  dtMISS:          0
cpu0_L1I LOAD         ACCESS:   11683367  HIT:    9332614  MISS:    2350753  iACCESS:   11683367  iHIT:    9332614  iMISS:    2350753  dACCESS:          0  dHIT:          0  dMISS:          0  itACCESS:          0  itHIT:          0  itMISS:          0  dtACCESS:          0  dtHIT:          0  dtMISS:          0
cpu0_L1I RFO          ACCESS:          0  HIT:          0  MISS:          0  iACCESS:          0  iHIT:          0  iMISS:          0  dACCESS:          0  dHIT:          0  dMISS:          0  itACCESS:          0  itHIT:          0  itMISS:          0  dtACCESS:          0  dtHIT:          0  dtMISS:          0
cpu0_L1I PREFETCH     ACCESS:   27217755  HIT:   20958211  MISS:    6259544  iACCESS:   27217755  iHIT:   20958211  iMISS:    6259544  dACCESS:          0  dHIT:          0  dMISS:          0  itACCESS:          0  itHIT:          0  itMISS:          0  dtACCESS:          0  dtHIT:          0  dtMISS:          0
cpu0_L1I WRITE        ACCESS:          0  HIT:          0  MISS:          0  iACCESS:          0  iHIT:          0  iMISS:          0  dACCESS:          0  dHIT:          0  dMISS:          0  itACCESS:          0  itHIT:          0  itMISS:          0  dtACCESS:          0  dtHIT:          0  dtMISS:          0
cpu0_L1I TRANSLATION  ACCESS:          0  HIT:          0  MISS:          0  iACCESS:          0  iHIT:          0  iMISS:          0  dACCESS:          0  dHIT:          0  dMISS:          0  itACCESS:          0  itHIT:          0  itMISS:          0  dtACCESS:          0  dtHIT:          0  dtMISS:          0
cpu0_L1I PREFETCH  REQUESTED:   30075295  ISSUED:   30075135  CROSSED:          0  USEFUL:    2179723  USELESS:     745241
cpu0_L1I AVERAGE iMISS LATENCY: 22.9515 cycles
cpu0_L1I AVERAGE dMISS LATENCY: 0 cycles
cpu0_L1I AVERAGE itMISS LATENCY: 0 cycles
cpu0_L1I AVERAGE dtMISS LATENCY: 0 cycles
cpu0_L1I PAGE CROSSINGS (TLB HIT):         0 
cpu0_L1I PAGE CROSSINGS (TLB MISS):         0 
cpu0_L1I AVERAGE MISS LATENCY: 22.9515 cycles
cpu0_ITLB TOTAL       ACCESS:   32832194  HIT:   30654275  MISS:    2177919  iACCESS:   32832194  iHIT:   30654275  iMISS:    2177919  dACCESS:          0  dHIT:          0  dMISS:          0  itACCESS:          0  itHIT:          0  itMISS:          0  dtACCESS:          0  dtHIT:          0  dtMISS:          0
cpu0_ITLB LOAD         ACCESS:   32832194  HIT:   30654275  MISS:    2177919  iACCESS:   32832194  iHIT:   30654275  iMISS:    2177919  dACCESS:          0  dHIT:          0  dMISS:          0  itACCESS:          0  itHIT:          0  itMISS:          0  dtACCESS:          0  dtHIT:          0  dtMISS:          0
cpu0_ITLB RFO          ACCESS:          0  HIT:          0  MISS:          0  iACCESS:          0  iHIT:          0  iMISS:          0  dACCESS:          0  dHIT:          0  dMISS:          0  itACCESS:          0  itHIT:          0  itMISS:          0  dtACCESS:          0  dtHIT:          0  dtMISS:          0
cpu0_ITLB PREFETCH     ACCESS:          0  HIT:          0  MISS:          0  iACCESS:          0  iHIT:          0  iMISS:          0  dACCESS:          0  dHIT:          0  dMISS:          0  itACCESS:          0  itHIT:          0  itMISS:          0  dtACCESS:          0  dtHIT:          0  dtMISS:          0
cpu0_ITLB WRITE        ACCESS:          0  HIT:          0  MISS:          0  iACCESS:          0  iHIT:          0  iMISS:          0  dACCESS:          0  dHIT:          0  dMISS:          0  itACCESS:          0  itHIT:          0  itMISS:          0  dtACCESS:          0  dtHIT:          0  dtMISS:          0
cpu0_ITLB TRANSLATION  ACCESS:          0  HIT:          0  MISS:          0  iACCESS:          0  iHIT:          0  iMISS:          0  dACCESS:          0  dHIT:          0  dMISS:          0  itACCESS:          0  itHIT:          0  itMISS:          0  dtACCESS:          0  dtHIT:          0  dtMISS:          0
cpu0_ITLB PREFETCH  REQUESTED:          0  ISSUED:          0  CROSSED:          0  USEFUL:     378914  USELESS:      76289
cpu0_ITLB AVERAGE iMISS LATENCY: 9.81732 cycles
cpu0_ITLB AVERAGE dMISS LATENCY: 0 cycles
cpu0_ITLB AVERAGE itMISS LATENCY: 0 cycles
cpu0_ITLB AVERAGE dtMISS LATENCY: 0 cycles
cpu0_ITLB PAGE CROSSINGS (TLB HIT):         0 
cpu0_ITLB PAGE CROSSINGS (TLB MISS):         0 
cpu0_ITLB AVERAGE MISS LATENCY: 9.81732 cycles
cpu0_DTLB TOTAL       ACCESS:   28730261  HIT:   25008845  MISS:    3721416  iACCESS:          0  iHIT:          0  iMISS:          0  dACCESS:   28730261  dHIT:   25008845  dMISS:    3721416  itACCESS:          0  itHIT:          0  itMISS:          0  dtACCESS:          0  dtHIT:          0  dtMISS:          0
cpu0_DTLB LOAD         ACCESS:   28730261  HIT:   25008845  MISS:    3721416  iACCESS:          0  iHIT:          0  iMISS:          0  dACCESS:   28730261  dHIT:   25008845  dMISS:    3721416  itACCESS:          0  itHIT:          0  itMISS:          0  dtACCESS:          0  dtHIT:          0  dtMISS:          0
cpu0_DTLB RFO          ACCESS:          0  HIT:          0  MISS:          0  iACCESS:          0  iHIT:          0  iMISS:          0  dACCESS:          0  dHIT:          0  dMISS:          0  itACCESS:          0  itHIT:          0  itMISS:          0  dtACCESS:          0  dtHIT:          0  dtMISS:          0
cpu0_DTLB PREFETCH     ACCESS:          0  HIT:          0  MISS:          0  iACCESS:          0  iHIT:          0  iMISS:          0  dACCESS:          0  dHIT:          0  dMISS:          0  itACCESS:          0  itHIT:          0  itMISS:          0  dtACCESS:          0  dtHIT:          0  dtMISS:          0
cpu0_DTLB WRITE        ACCESS:          0  HIT:          0  MISS:          0  iACCESS:          0  iHIT:          0  iMISS:          0  dACCESS:          0  dHIT:          0  dMISS:          0  itACCESS:          0  itHIT:          0  itMISS:          0  dtACCESS:          0  dtHIT:          0  dtMISS:          0
cpu0_DTLB TRANSLATION  ACCESS:          0  HIT:          0  MISS:          0  iACCESS:          0  iHIT:          0  iMISS:          0  dACCESS:          0  dHIT:          0  dMISS:          0  itACCESS:          0  itHIT:          0  itMISS:          0  dtACCESS:          0  dtHIT:          0  dtMISS:          0
cpu0_DTLB PREFETCH  REQUESTED:          0  ISSUED:          0  CROSSED:          0  USEFUL:          0  USELESS:          0
cpu0_DTLB AVERAGE iMISS LATENCY: 0 cycles
cpu0_DTLB AVERAGE dMISS LATENCY: 23.1484 cycles
cpu0_DTLB AVERAGE itMISS LATENCY: 0 cycles
cpu0_DTLB AVERAGE dtMISS LATENCY: 0 cycles
cpu0_DTLB PAGE CROSSINGS (TLB HIT):         0 
cpu0_DTLB PAGE CROSSINGS (TLB MISS):         0 
cpu0_DTLB AVERAGE MISS LATENCY: 23.1484 cycles
cpu0_STLB TOTAL       ACCESS:    2598213  HIT:    2240696  MISS:     357517  iACCESS:     455203  iHIT:     349230  iMISS:     105973  dACCESS:    2143010  dHIT:    1891466  dMISS:     251544  itACCESS:          0  itHIT:          0  itMISS:          0  dtACCESS:          0  dtHIT:          0  dtMISS:          0
cpu0_STLB LOAD         ACCESS:    2598213  HIT:    2240696  MISS:     357517  iACCESS:     455203  iHIT:     349230  iMISS:     105973  dACCESS:    2143010  dHIT:    1891466  dMISS:     251544  itACCESS:          0  itHIT:          0  itMISS:          0  dtACCESS:          0  dtHIT:          0  dtMISS:          0
cpu0_STLB RFO          ACCESS:          0  HIT:          0  MISS:          0  iACCESS:          0  iHIT:          0  iMISS:          0  dACCESS:          0  dHIT:          0  dMISS:          0  itACCESS:          0  itHIT:          0  itMISS:          0  dtACCESS:          0  dtHIT:          0  dtMISS:          0
cpu0_STLB PREFETCH     ACCESS:          0  HIT:          0  MISS:          0  iACCESS:          0  iHIT:          0  iMISS:          0  dACCESS:          0  dHIT:          0  dMISS:          0  itACCESS:          0  itHIT:          0  itMISS:          0  dtACCESS:          0  dtHIT:          0  dtMISS:          0
cpu0_STLB WRITE        ACCESS:          0  HIT:          0  MISS:          0  iACCESS:          0  iHIT:          0  iMISS:          0  dACCESS:          0  dHIT:          0  dMISS:          0  itACCESS:          0  itHIT:          0  itMISS:          0  dtACCESS:          0  dtHIT:          0  dtMISS:          0
cpu0_STLB TRANSLATION  ACCESS:          0  HIT:          0  MISS:          0  iACCESS:          0  iHIT:          0  iMISS:          0  dACCESS:          0  dHIT:          0  dMISS:          0  itACCESS:          0  itHIT:          0  itMISS:          0  dtACCESS:          0  dtHIT:          0  dtMISS:          0
cpu0_STLB PREFETCH  REQUESTED:          0  ISSUED:          0  CROSSED:          0  USEFUL:          0  USELESS:          0
cpu0_STLB AVERAGE iMISS LATENCY: 49.6383 cycles
cpu0_STLB AVERAGE dMISS LATENCY: 192.737 cycles
cpu0_STLB AVERAGE itMISS LATENCY: 0 cycles
cpu0_STLB AVERAGE dtMISS LATENCY: 0 cycles
cpu0_STLB PAGE CROSSINGS (TLB HIT):         0 
cpu0_STLB PAGE CROSSINGS (TLB MISS):         0 
cpu0_STLB AVERAGE MISS LATENCY: 242.375 cycles
cpu0_L1D TOTAL       ACCESS:   44102766  HIT:   38931896  MISS:    5170870  iACCESS:          0  iHIT:          0  iMISS:          0  dACCESS:   43578636  dHIT:   38897712  dMISS:    4680924  itACCESS:     119090  itHIT:      14028  itMISS:     105062  dtACCESS:     405040  dtHIT:      20156  dtMISS:     384884
cpu0_L1D LOAD         ACCESS:   19898417  HIT:   17822872  MISS:    2075545  iACCESS:          0  iHIT:          0  iMISS:          0  dACCESS:   19898417  dHIT:   17822872  dMISS:    2075545  itACCESS:          0  itHIT:          0  itMISS:          0  dtACCESS:          0  dtHIT:          0  dtMISS:          0
cpu0_L1D RFO          ACCESS:          0  HIT:          0  MISS:          0  iACCESS:          0  iHIT:          0  iMISS:          0  dACCESS:          0  dHIT:          0  dMISS:          0  itACCESS:          0  itHIT:          0  itMISS:          0  dtACCESS:          0  dtHIT:          0  dtMISS:          0
cpu0_L1D PREFETCH     ACCESS:   13549603  HIT:   11487834  MISS:    2061769  iACCESS:          0  iHIT:          0  iMISS:          0  dACCESS:   13549603  dHIT:   11487834  dMISS:    2061769  itACCESS:          0  itHIT:          0  itMISS:          0  dtACCESS:          0  dtHIT:          0  dtMISS:          0
cpu0_L1D WRITE        ACCESS:   10130616  HIT:    9587006  MISS:     543610  iACCESS:          0  iHIT:          0  iMISS:          0  dACCESS:   10130616  dHIT:    9587006  dMISS:     543610  itACCESS:          0  itHIT:          0  itMISS:          0  dtACCESS:          0  dtHIT:          0  dtMISS:          0
cpu0_L1D TRANSLATION  ACCESS:     524130  HIT:      34184  MISS:     489946  iACCESS:          0  iHIT:          0  iMISS:          0  dACCESS:          0  dHIT:          0  dMISS:          0  itACCESS:     119090  itHIT:      14028  itMISS:     105062  dtACCESS:     405040  dtHIT:      20156  dtMISS:     384884
cpu0_L1D PREFETCH  REQUESTED:   19898417  ISSUED:   18240107  CROSSED:          0  USEFUL:     356452  USELESS:     918765
cpu0_L1D AVERAGE iMISS LATENCY: 0 cycles
cpu0_L1D AVERAGE dMISS LATENCY: 51.0699 cycles
cpu0_L1D AVERAGE itMISS LATENCY: 3.24543 cycles
cpu0_L1D AVERAGE dtMISS LATENCY: 12.313 cycles
cpu0_L1D PAGE CROSSINGS (TLB HIT):         0 
cpu0_L1D PAGE CROSSINGS (TLB MISS):         0 
cpu0_L1D AVERAGE MISS LATENCY: 66.6283 cycles
cpu0_L2C TOTAL       ACCESS:    8457049  HIT:    4085339  MISS:    4371710  iACCESS:    3720687  iHIT:    2237684  iMISS:    1483003  dACCESS:    4271943  dHIT:    1784158  dMISS:    2487785  itACCESS:     104554  itHIT:      18874  itMISS:      85680  dtACCESS:     359865  dtHIT:      44623  dtMISS:     315242
cpu0_L2C LOAD         ACCESS:    2014930  HIT:     978897  MISS:    1036033  iACCESS:     834997  iHIT:     522628  iMISS:     312369  dACCESS:    1179933  dHIT:     456269  dMISS:     723664  itACCESS:          0  itHIT:          0  itMISS:          0  dtACCESS:          0  dtHIT:          0  dtMISS:          0
cpu0_L2C RFO          ACCESS:     212391  HIT:      80351  MISS:     132040  iACCESS:          0  iHIT:          0  iMISS:          0  dACCESS:     212391  dHIT:      80351  dMISS:     132040  itACCESS:          0  itHIT:          0  itMISS:          0  dtACCESS:          0  dtHIT:          0  dtMISS:          0
cpu0_L2C PREFETCH     ACCESS:    5419719  HIT:    2634243  MISS:    2785476  iACCESS:    2885690  iHIT:    1715056  iMISS:    1170634  dACCESS:    2534029  dHIT:     919187  dMISS:    1614842  itACCESS:          0  itHIT:          0  itMISS:          0  dtACCESS:          0  dtHIT:          0  dtMISS:          0
cpu0_L2C WRITE        ACCESS:     345590  HIT:     328351  MISS:      17239  iACCESS:          0  iHIT:          0  iMISS:          0  dACCESS:     345590  dHIT:     328351  dMISS:      17239  itACCESS:          0  itHIT:          0  itMISS:          0  dtACCESS:          0  dtHIT:          0  dtMISS:          0
cpu0_L2C TRANSLATION  ACCESS:     464419  HIT:      63497  MISS:     400922  iACCESS:          0  iHIT:          0  iMISS:          0  dACCESS:          0  dHIT:          0  dMISS:          0  itACCESS:     104554  itHIT:      18874  itMISS:      85680  dtACCESS:     359865  dtHIT:      44623  dtMISS:     315242
cpu0_L2C PREFETCH  REQUESTED:    1506272  ISSUED:    1506268  CROSSED:          0  USEFUL:     357286  USELESS:     319140
cpu0_L2C AVERAGE iMISS LATENCY: 37.9744 cycles
cpu0_L2C AVERAGE dMISS LATENCY: 75.0354 cycles
cpu0_L2C AVERAGE itMISS LATENCY: 3.60322 cycles
cpu0_L2C AVERAGE dtMISS LATENCY: 13.7461 cycles
cpu0_L2C PAGE CROSSINGS (TLB HIT):         0 
cpu0_L2C PAGE CROSSINGS (TLB MISS):         0 
cpu0_L2C AVERAGE MISS LATENCY: 130.36 cycles
LLC TOTAL       ACCESS:    4363634  HIT:    1508615  MISS:    2855019  iACCESS:    1393197  iHIT:     515133  iMISS:     878064  dACCESS:    2569515  dHIT:     951279  dMISS:    1618236  itACCESS:      85680  itHIT:       7282  itMISS:      78398  dtACCESS:     315242  dtHIT:      34921  dtMISS:     280321
LLC LOAD         ACCESS:    1031291  HIT:     379808  MISS:     651483  iACCESS:     311143  iHIT:     124140  iMISS:     187003  dACCESS:     720148  dHIT:     255668  dMISS:     464480  itACCESS:          0  itHIT:          0  itMISS:          0  dtACCESS:          0  dtHIT:          0  dtMISS:          0
LLC RFO          ACCESS:     132030  HIT:      46568  MISS:      85462  iACCESS:          0  iHIT:          0  iMISS:          0  dACCESS:     132030  dHIT:      46568  dMISS:      85462  itACCESS:          0  itHIT:          0  itMISS:          0  dtACCESS:          0  dtHIT:          0  dtMISS:          0
LLC PREFETCH     ACCESS:    2584168  HIT:     835028  MISS:    1749140  iACCESS:    1082054  iHIT:     390993  iMISS:     691061  dACCESS:    1502114  dHIT:     444035  dMISS:    1058079  itACCESS:          0  itHIT:          0  itMISS:          0  dtACCESS:          0  dtHIT:          0  dtMISS:          0
LLC WRITE        ACCESS:     215223  HIT:     205008  MISS:      10215  iACCESS:          0  iHIT:          0  iMISS:          0  dACCESS:     215223  dHIT:     205008  dMISS:      10215  itACCESS:          0  itHIT:          0  itMISS:          0  dtACCESS:          0  dtHIT:          0  dtMISS:          0
LLC TRANSLATION  ACCESS:     400922  HIT:      42203  MISS:     358719  iACCESS:          0  iHIT:          0  iMISS:          0  dACCESS:          0  dHIT:          0  dMISS:          0  itACCESS:      85680  itHIT:       7282  itMISS:      78398  dtACCESS:     315242  dtHIT:      34921  dtMISS:     280321
LLC PREFETCH  REQUESTED:          0  ISSUED:          0  CROSSED:          0  USEFUL:          0  USELESS:          0
LLC AVERAGE iMISS LATENCY: 48.554 cycles
LLC AVERAGE dMISS LATENCY: 99.4562 cycles
LLC AVERAGE itMISS LATENCY: 4.92251 cycles
LLC AVERAGE dtMISS LATENCY: 18.866 cycles
LLC PAGE CROSSINGS (TLB HIT):         0 
LLC PAGE CROSSINGS (TLB MISS):         0 
LLC AVERAGE MISS LATENCY: 171.799 cycles

PageTableWalker TOTAL       ACCESS:     183087  
PageTableWalker AVERAGE LATENCY: 6.30136 cycles
PageTableWalker TOTAL LATENCY: 1153697 cycles

DRAM Statistics
Channel 0
 RQ ROW_BUFFER_HIT:     608710
  ROW_BUFFER_MISS:    2225241
 AVG DBUS CONGESTED CYCLE:    3.64831
 WQ ROW_BUFFER_HIT:      62227
  ROW_BUFFER_MISS:      53502  FULL:          0

