last_page:0x200000000000000
VMEM_RES_CAP:0x100000
PAGE_SIZE:4096
LOG2_PAGE_SIZE:12
LOG2_PAGE_TABLE_SIZE:9
page_table_levels:5
WARNING: physical memory size is smaller than virtual memory size
FDiP enabled with aggresivity 16

*** ChampSim Multicore Out-of-Order Simulator ***

Warmup Instructions: 50000000
Simulation Instructions: 100000000
Number of CPUs: 1
Small page size: 4096
Large page size: 2097152

CPU 0 Bimodal branch predictor
Basic BTB sets: 1024 ways: 8 indirect buffer size: 4096 RAS size: 64
Instruction page size distrubution: 0
Loading instruction page size distribution from /home/bsc/bsc018186/scratch/itp_asplos25_AE/dump/smt_srv537_ap_srv73_ap_1024i.pdst
Data page size distrubution: 0
Loading data page size distribution from /home/bsc/bsc018186/scratch/itp_asplos25_AE/dump/smt_srv537_ap_srv73_ap_1024i.pdst
cpu0_L2C IP-based stride prefetcher
cpu0_L2C is using xPTP/LRU
	TLB_LOWER_STRESS_THRESHOLD:1
	TLB_UPPER_STRESS_THRESHOLD:4
	MIN_EVICTION_POSITION:4
cpu0_L1D next line prefetcher
cpu0_STLB using iTP with max lru@8
cpu0_STLB using iTP with instr@0 and data@2
Init sat counter with 3 bits (max:50).
cpu0_L1I next line prefetcher
Off-chip DRAM Size: 4 GiB Channels: 1 Width: 64-bit Data Rate: 3200 MT/s
Heartbeat CPU 0 instructions: 10000001 cycles: 2500537 heartbeat IPC: 3.99915 cumulative IPC: 3.99915 (Simulation time: 0 hr 0 min 38 sec) 
Heartbeat CPU 0 instructions: 20000001 cycles: 5000866 heartbeat IPC: 3.99948 cumulative IPC: 3.99931 (Simulation time: 0 hr 1 min 19 sec) 
Heartbeat CPU 0 instructions: 30000002 cycles: 7501030 heartbeat IPC: 3.99974 cumulative IPC: 3.99946 (Simulation time: 0 hr 1 min 59 sec) 
Heartbeat CPU 0 instructions: 40000001 cycles: 10001203 heartbeat IPC: 3.99973 cumulative IPC: 3.99952 (Simulation time: 0 hr 2 min 40 sec) 
Heartbeat CPU 0 instructions: 50000000 cycles: 12502195 heartbeat IPC: 3.99842 cumulative IPC: 3.9993 (Simulation time: 0 hr 3 min 22 sec) 
Warmup finished CPU 0 instructions: 50000000 cycles: 12502196 cumulative IPC: 3.9993 (Simulation time: 0 hr 3 min 22 sec) 

Warmup complete CPU 0 instructions: 50000000 cycles: 12502196 (Simulation time: 0 hr 3 min 22 sec) 

Heartbeat CPU 0 instructions: 60000001 cycles: 35361534 heartbeat IPC: 0.437459 cumulative IPC: 0.437459 (Simulation time: 0 hr 4 min 35 sec) 
Heartbeat CPU 0 instructions: 70000000 cycles: 55908805 heartbeat IPC: 0.486683 cumulative IPC: 0.46076 (Simulation time: 0 hr 5 min 45 sec) 
Heartbeat CPU 0 instructions: 80000003 cycles: 76757264 heartbeat IPC: 0.479652 cumulative IPC: 0.46689 (Simulation time: 0 hr 6 min 54 sec) 
Heartbeat CPU 0 instructions: 90000000 cycles: 103946132 heartbeat IPC: 0.367798 cumulative IPC: 0.437427 (Simulation time: 0 hr 8 min 13 sec) 
Heartbeat CPU 0 instructions: 100000003 cycles: 132287247 heartbeat IPC: 0.352845 cumulative IPC: 0.417415 (Simulation time: 0 hr 9 min 35 sec) 
Heartbeat CPU 0 instructions: 110000002 cycles: 161041932 heartbeat IPC: 0.34777 cumulative IPC: 0.403933 (Simulation time: 0 hr 10 min 57 sec) 
Heartbeat CPU 0 instructions: 120000001 cycles: 187507653 heartbeat IPC: 0.377848 cumulative IPC: 0.399988 (Simulation time: 0 hr 12 min 16 sec) 
Heartbeat CPU 0 instructions: 130000000 cycles: 202940962 heartbeat IPC: 0.64795 cumulative IPC: 0.420083 (Simulation time: 0 hr 13 min 24 sec) 
Heartbeat CPU 0 instructions: 140000003 cycles: 222016073 heartbeat IPC: 0.524244 cumulative IPC: 0.429566 (Simulation time: 0 hr 14 min 36 sec) 
Heartbeat CPU 0 instructions: 150000002 cycles: 249678845 heartbeat IPC: 0.361497 cumulative IPC: 0.421627 (Simulation time: 0 hr 15 min 56 sec) 
Simulation finished CPU 0 instructions: 100000002 cycles: 237176650 cumulative IPC: 0.421627 (Simulation time: 0 hr 15 min 56 sec) 

Simulation complete CPU 0 instructions: 100000002 cycles: 237176650 (Simulation time: 0 hr 15 min 56 sec) 


ChampSim completed all CPUs

Saving instructions large page distribution to /home/bsc/bsc018186/scratch/itp_asplos25_AE/dump/smt_srv537_ap_srv73_ap_1024i.pdst...
Saving data large page distribution to /home/bsc/bsc018186/scratch/itp_asplos25_AE/dump/smt_srv537_ap_srv73_ap_1024i.pdst...
=== Simulation ===
CPU 0 runs /gpfs/projects/bsc18/MN4/bsc18/romol/ChampSim/traces/qualcomm_srv/smt_srv537_ap_srv73_ap_1024i.champsimtrace.xz

Region of Interest Statistics

CPU 0 cumulative IPC: 0.421627 instructions: 100000002 cycles: 237176650
CPU 0 Branch Prediction Accuracy: 78.0605% MPKI: 42.6412 Average ROB Occupancy at Mispredict: 11.1526
Branch type MPKI
BRANCH_DIRECT_JUMP: 1.087
BRANCH_INDIRECT: 22.7445
BRANCH_CONDITIONAL: 12.2037
BRANCH_DIRECT_CALL: 2.01296
BRANCH_INDIRECT_CALL: 1.68504
BRANCH_RETURN: 2.90804

Instructions large pages: 0
Instructions small pages: 11665
Large page distribution for instructions: 0%

Data large pages: 0
Data small pages: 9807
Large page distribution for data: 0%

cpu0_L1I TOTAL       ACCESS:   38386959  HIT:   31052306  MISS:    7334653  iACCESS:   38386959  iHIT:   31052306  iMISS:    7334653  dACCESS:          0  dHIT:          0  dMISS:          0  itACCESS:          0  itHIT:          0  itMISS:          0  dtACCESS:          0  dtHIT:          0  dtMISS:          0
cpu0_L1I LOAD         ACCESS:   10642506  HIT:    8631567  MISS:    2010939  iACCESS:   10642506  iHIT:    8631567  iMISS:    2010939  dACCESS:          0  dHIT:          0  dMISS:          0  itACCESS:          0  itHIT:          0  itMISS:          0  dtACCESS:          0  dtHIT:          0  dtMISS:          0
cpu0_L1I RFO          ACCESS:          0  HIT:          0  MISS:          0  iACCESS:          0  iHIT:          0  iMISS:          0  dACCESS:          0  dHIT:          0  dMISS:          0  itACCESS:          0  itHIT:          0  itMISS:          0  dtACCESS:          0  dtHIT:          0  dtMISS:          0
cpu0_L1I PREFETCH     ACCESS:   27744453  HIT:   22420739  MISS:    5323714  iACCESS:   27744453  iHIT:   22420739  iMISS:    5323714  dACCESS:          0  dHIT:          0  dMISS:          0  itACCESS:          0  itHIT:          0  itMISS:          0  dtACCESS:          0  dtHIT:          0  dtMISS:          0
cpu0_L1I WRITE        ACCESS:          0  HIT:          0  MISS:          0  iACCESS:          0  iHIT:          0  iMISS:          0  dACCESS:          0  dHIT:          0  dMISS:          0  itACCESS:          0  itHIT:          0  itMISS:          0  dtACCESS:          0  dtHIT:          0  dtMISS:          0
cpu0_L1I TRANSLATION  ACCESS:          0  HIT:          0  MISS:          0  iACCESS:          0  iHIT:          0  iMISS:          0  dACCESS:          0  dHIT:          0  dMISS:          0  itACCESS:          0  itHIT:          0  itMISS:          0  dtACCESS:          0  dtHIT:          0  dtMISS:          0
cpu0_L1I PREFETCH  REQUESTED:   30107857  ISSUED:   30107416  CROSSED:          0  USEFUL:    1802246  USELESS:     645639
cpu0_L1I AVERAGE iMISS LATENCY: 22.1824 cycles
cpu0_L1I AVERAGE dMISS LATENCY: 0 cycles
cpu0_L1I AVERAGE itMISS LATENCY: 0 cycles
cpu0_L1I AVERAGE dtMISS LATENCY: 0 cycles
cpu0_L1I PAGE CROSSINGS (TLB HIT):         0 
cpu0_L1I PAGE CROSSINGS (TLB MISS):         0 
cpu0_L1I AVERAGE MISS LATENCY: 22.1824 cycles
cpu0_ITLB TOTAL       ACCESS:   32382163  HIT:   30539321  MISS:    1842842  iACCESS:   32382163  iHIT:   30539321  iMISS:    1842842  dACCESS:          0  dHIT:          0  dMISS:          0  itACCESS:          0  itHIT:          0  itMISS:          0  dtACCESS:          0  dtHIT:          0  dtMISS:          0
cpu0_ITLB LOAD         ACCESS:   32382163  HIT:   30539321  MISS:    1842842  iACCESS:   32382163  iHIT:   30539321  iMISS:    1842842  dACCESS:          0  dHIT:          0  dMISS:          0  itACCESS:          0  itHIT:          0  itMISS:          0  dtACCESS:          0  dtHIT:          0  dtMISS:          0
cpu0_ITLB RFO          ACCESS:          0  HIT:          0  MISS:          0  iACCESS:          0  iHIT:          0  iMISS:          0  dACCESS:          0  dHIT:          0  dMISS:          0  itACCESS:          0  itHIT:          0  itMISS:          0  dtACCESS:          0  dtHIT:          0  dtMISS:          0
cpu0_ITLB PREFETCH     ACCESS:          0  HIT:          0  MISS:          0  iACCESS:          0  iHIT:          0  iMISS:          0  dACCESS:          0  dHIT:          0  dMISS:          0  itACCESS:          0  itHIT:          0  itMISS:          0  dtACCESS:          0  dtHIT:          0  dtMISS:          0
cpu0_ITLB WRITE        ACCESS:          0  HIT:          0  MISS:          0  iACCESS:          0  iHIT:          0  iMISS:          0  dACCESS:          0  dHIT:          0  dMISS:          0  itACCESS:          0  itHIT:          0  itMISS:          0  dtACCESS:          0  dtHIT:          0  dtMISS:          0
cpu0_ITLB TRANSLATION  ACCESS:          0  HIT:          0  MISS:          0  iACCESS:          0  iHIT:          0  iMISS:          0  dACCESS:          0  dHIT:          0  dMISS:          0  itACCESS:          0  itHIT:          0  itMISS:          0  dtACCESS:          0  dtHIT:          0  dtMISS:          0
cpu0_ITLB PREFETCH  REQUESTED:          0  ISSUED:          0  CROSSED:          0  USEFUL:     325109  USELESS:      67314
cpu0_ITLB AVERAGE iMISS LATENCY: 6.08345 cycles
cpu0_ITLB AVERAGE dMISS LATENCY: 0 cycles
cpu0_ITLB AVERAGE itMISS LATENCY: 0 cycles
cpu0_ITLB AVERAGE dtMISS LATENCY: 0 cycles
cpu0_ITLB PAGE CROSSINGS (TLB HIT):         0 
cpu0_ITLB PAGE CROSSINGS (TLB MISS):         0 
cpu0_ITLB AVERAGE MISS LATENCY: 6.08345 cycles
cpu0_DTLB TOTAL       ACCESS:   31249448  HIT:   25992275  MISS:    5257173  iACCESS:          0  iHIT:          0  iMISS:          0  dACCESS:   31249448  dHIT:   25992275  dMISS:    5257173  itACCESS:          0  itHIT:          0  itMISS:          0  dtACCESS:          0  dtHIT:          0  dtMISS:          0
cpu0_DTLB LOAD         ACCESS:   31249448  HIT:   25992275  MISS:    5257173  iACCESS:          0  iHIT:          0  iMISS:          0  dACCESS:   31249448  dHIT:   25992275  dMISS:    5257173  itACCESS:          0  itHIT:          0  itMISS:          0  dtACCESS:          0  dtHIT:          0  dtMISS:          0
cpu0_DTLB RFO          ACCESS:          0  HIT:          0  MISS:          0  iACCESS:          0  iHIT:          0  iMISS:          0  dACCESS:          0  dHIT:          0  dMISS:          0  itACCESS:          0  itHIT:          0  itMISS:          0  dtACCESS:          0  dtHIT:          0  dtMISS:          0
cpu0_DTLB PREFETCH     ACCESS:          0  HIT:          0  MISS:          0  iACCESS:          0  iHIT:          0  iMISS:          0  dACCESS:          0  dHIT:          0  dMISS:          0  itACCESS:          0  itHIT:          0  itMISS:          0  dtACCESS:          0  dtHIT:          0  dtMISS:          0
cpu0_DTLB WRITE        ACCESS:          0  HIT:          0  MISS:          0  iACCESS:          0  iHIT:          0  iMISS:          0  dACCESS:          0  dHIT:          0  dMISS:          0  itACCESS:          0  itHIT:          0  itMISS:          0  dtACCESS:          0  dtHIT:          0  dtMISS:          0
cpu0_DTLB TRANSLATION  ACCESS:          0  HIT:          0  MISS:          0  iACCESS:          0  iHIT:          0  iMISS:          0  dACCESS:          0  dHIT:          0  dMISS:          0  itACCESS:          0  itHIT:          0  itMISS:          0  dtACCESS:          0  dtHIT:          0  dtMISS:          0
cpu0_DTLB PREFETCH  REQUESTED:          0  ISSUED:          0  CROSSED:          0  USEFUL:          0  USELESS:          0
cpu0_DTLB AVERAGE iMISS LATENCY: 0 cycles
cpu0_DTLB AVERAGE dMISS LATENCY: 11.5849 cycles
cpu0_DTLB AVERAGE itMISS LATENCY: 0 cycles
cpu0_DTLB AVERAGE dtMISS LATENCY: 0 cycles
cpu0_DTLB PAGE CROSSINGS (TLB HIT):         0 
cpu0_DTLB PAGE CROSSINGS (TLB MISS):         0 
cpu0_DTLB AVERAGE MISS LATENCY: 11.5849 cycles
cpu0_STLB TOTAL       ACCESS:    3164672  HIT:    2891204  MISS:     273468  iACCESS:     392432  iHIT:     341868  iMISS:      50564  dACCESS:    2772240  dHIT:    2549336  dMISS:     222904  itACCESS:          0  itHIT:          0  itMISS:          0  dtACCESS:          0  dtHIT:          0  dtMISS:          0
cpu0_STLB LOAD         ACCESS:    3164672  HIT:    2891204  MISS:     273468  iACCESS:     392432  iHIT:     341868  iMISS:      50564  dACCESS:    2772240  dHIT:    2549336  dMISS:     222904  itACCESS:          0  itHIT:          0  itMISS:          0  dtACCESS:          0  dtHIT:          0  dtMISS:          0
cpu0_STLB RFO          ACCESS:          0  HIT:          0  MISS:          0  iACCESS:          0  iHIT:          0  iMISS:          0  dACCESS:          0  dHIT:          0  dMISS:          0  itACCESS:          0  itHIT:          0  itMISS:          0  dtACCESS:          0  dtHIT:          0  dtMISS:          0
cpu0_STLB PREFETCH     ACCESS:          0  HIT:          0  MISS:          0  iACCESS:          0  iHIT:          0  iMISS:          0  dACCESS:          0  dHIT:          0  dMISS:          0  itACCESS:          0  itHIT:          0  itMISS:          0  dtACCESS:          0  dtHIT:          0  dtMISS:          0
cpu0_STLB WRITE        ACCESS:          0  HIT:          0  MISS:          0  iACCESS:          0  iHIT:          0  iMISS:          0  dACCESS:          0  dHIT:          0  dMISS:          0  itACCESS:          0  itHIT:          0  itMISS:          0  dtACCESS:          0  dtHIT:          0  dtMISS:          0
cpu0_STLB TRANSLATION  ACCESS:          0  HIT:          0  MISS:          0  iACCESS:          0  iHIT:          0  iMISS:          0  dACCESS:          0  dHIT:          0  dMISS:          0  itACCESS:          0  itHIT:          0  itMISS:          0  dtACCESS:          0  dtHIT:          0  dtMISS:          0
cpu0_STLB PREFETCH  REQUESTED:          0  ISSUED:          0  CROSSED:          0  USEFUL:          0  USELESS:          0
cpu0_STLB AVERAGE iMISS LATENCY: 29.7005 cycles
cpu0_STLB AVERAGE dMISS LATENCY: 140.727 cycles
cpu0_STLB AVERAGE itMISS LATENCY: 0 cycles
cpu0_STLB AVERAGE dtMISS LATENCY: 0 cycles
cpu0_STLB PAGE CROSSINGS (TLB HIT):         0 
cpu0_STLB PAGE CROSSINGS (TLB MISS):         0 
cpu0_STLB AVERAGE MISS LATENCY: 170.428 cycles
cpu0_L1D TOTAL       ACCESS:   49612272  HIT:   40771480  MISS:    8840792  iACCESS:          0  iHIT:          0  iMISS:          0  dACCESS:   49153200  dHIT:   40751851  dMISS:    8401349  itACCESS:      63691  itHIT:       4633  itMISS:      59058  dtACCESS:     395381  dtHIT:      14996  dtMISS:     380385
cpu0_L1D LOAD         ACCESS:   23730259  HIT:   19255551  MISS:    4474708  iACCESS:          0  iHIT:          0  iMISS:          0  dACCESS:   23730259  dHIT:   19255551  dMISS:    4474708  itACCESS:          0  itHIT:          0  itMISS:          0  dtACCESS:          0  dtHIT:          0  dtMISS:          0
cpu0_L1D RFO          ACCESS:          0  HIT:          0  MISS:          0  iACCESS:          0  iHIT:          0  iMISS:          0  dACCESS:          0  dHIT:          0  dMISS:          0  itACCESS:          0  itHIT:          0  itMISS:          0  dtACCESS:          0  dtHIT:          0  dtMISS:          0
cpu0_L1D PREFETCH     ACCESS:   15554152  HIT:   12415744  MISS:    3138408  iACCESS:          0  iHIT:          0  iMISS:          0  dACCESS:   15554152  dHIT:   12415744  dMISS:    3138408  itACCESS:          0  itHIT:          0  itMISS:          0  dtACCESS:          0  dtHIT:          0  dtMISS:          0
cpu0_L1D WRITE        ACCESS:    9868789  HIT:    9080556  MISS:     788233  iACCESS:          0  iHIT:          0  iMISS:          0  dACCESS:    9868789  dHIT:    9080556  dMISS:     788233  itACCESS:          0  itHIT:          0  itMISS:          0  dtACCESS:          0  dtHIT:          0  dtMISS:          0
cpu0_L1D TRANSLATION  ACCESS:     459072  HIT:      19629  MISS:     439443  iACCESS:          0  iHIT:          0  iMISS:          0  dACCESS:          0  dHIT:          0  dMISS:          0  itACCESS:      63691  itHIT:       4633  itMISS:      59058  dtACCESS:     395381  dtHIT:      14996  dtMISS:     380385
cpu0_L1D PREFETCH  REQUESTED:   23730259  ISSUED:   19695623  CROSSED:          0  USEFUL:     354301  USELESS:    1024989
cpu0_L1D AVERAGE iMISS LATENCY: 0 cycles
cpu0_L1D AVERAGE dMISS LATENCY: 30.3778 cycles
cpu0_L1D AVERAGE itMISS LATENCY: 0.850588 cycles
cpu0_L1D AVERAGE dtMISS LATENCY: 3.90244 cycles
cpu0_L1D PAGE CROSSINGS (TLB HIT):         0 
cpu0_L1D PAGE CROSSINGS (TLB MISS):         0 
cpu0_L1D AVERAGE MISS LATENCY: 35.1309 cycles
cpu0_L2C TOTAL       ACCESS:    9113430  HIT:    2960801  MISS:    6152629  iACCESS:    3115634  iHIT:    1134130  iMISS:    1981504  dACCESS:    5626176  dHIT:    1677917  dMISS:    3948259  itACCESS:      54167  itHIT:      11049  itMISS:      43118  dtACCESS:     317453  dtHIT:     137705  dtMISS:     179748
cpu0_L2C LOAD         ACCESS:    3329276  HIT:    1187536  MISS:    2141740  iACCESS:     695392  iHIT:     230093  iMISS:     465299  dACCESS:    2633884  dHIT:     957443  dMISS:    1676441  itACCESS:          0  itHIT:          0  itMISS:          0  dtACCESS:          0  dtHIT:          0  dtMISS:          0
cpu0_L2C RFO          ACCESS:     238995  HIT:      48832  MISS:     190163  iACCESS:          0  iHIT:          0  iMISS:          0  dACCESS:     238995  dHIT:      48832  dMISS:     190163  itACCESS:          0  itHIT:          0  itMISS:          0  dtACCESS:          0  dtHIT:          0  dtMISS:          0
cpu0_L2C PREFETCH     ACCESS:    4835033  HIT:    1443820  MISS:    3391213  iACCESS:    2420242  iHIT:     904037  iMISS:    1516205  dACCESS:    2414791  dHIT:     539783  dMISS:    1875008  itACCESS:          0  itHIT:          0  itMISS:          0  dtACCESS:          0  dtHIT:          0  dtMISS:          0
cpu0_L2C WRITE        ACCESS:     338506  HIT:     131859  MISS:     206647  iACCESS:          0  iHIT:          0  iMISS:          0  dACCESS:     338506  dHIT:     131859  dMISS:     206647  itACCESS:          0  itHIT:          0  itMISS:          0  dtACCESS:          0  dtHIT:          0  dtMISS:          0
cpu0_L2C TRANSLATION  ACCESS:     371620  HIT:     148754  MISS:     222866  iACCESS:          0  iHIT:          0  iMISS:          0  dACCESS:          0  dHIT:          0  dMISS:          0  itACCESS:      54167  itHIT:      11049  itMISS:      43118  dtACCESS:     317453  dtHIT:     137705  dtMISS:     179748
cpu0_L2C PREFETCH  REQUESTED:    1220695  ISSUED:    1220690  CROSSED:          0  USEFUL:     296966  USELESS:     358714
cpu0_L2C AVERAGE iMISS LATENCY: 22.1241 cycles
cpu0_L2C AVERAGE dMISS LATENCY: 47.8367 cycles
cpu0_L2C AVERAGE itMISS LATENCY: 1.13571 cycles
cpu0_L2C AVERAGE dtMISS LATENCY: 5.11159 cycles
cpu0_L2C PAGE CROSSINGS (TLB HIT):         0 
cpu0_L2C PAGE CROSSINGS (TLB MISS):         0 
cpu0_L2C AVERAGE MISS LATENCY: 76.208 cycles
LLC TOTAL       ACCESS:    6046251  HIT:    3972715  MISS:    2073536  iACCESS:    1917013  iHIT:    1293546  iMISS:     623467  dACCESS:    3906372  dHIT:    2636905  dMISS:    1269467  itACCESS:      43118  itHIT:       8420  itMISS:      34698  dtACCESS:     179748  dtHIT:      33844  dtMISS:     145904
LLC LOAD         ACCESS:    2135369  HIT:    1632834  MISS:     502535  iACCESS:     464400  iHIT:     335239  iMISS:     129161  dACCESS:    1670969  dHIT:    1297595  dMISS:     373374  itACCESS:          0  itHIT:          0  itMISS:          0  dtACCESS:          0  dtHIT:          0  dtMISS:          0
LLC RFO          ACCESS:     190142  HIT:      99517  MISS:      90625  iACCESS:          0  iHIT:          0  iMISS:          0  dACCESS:     190142  dHIT:      99517  dMISS:      90625  itACCESS:          0  itHIT:          0  itMISS:          0  dtACCESS:          0  dtHIT:          0  dtMISS:          0
LLC PREFETCH     ACCESS:    3235113  HIT:    1938222  MISS:    1296891  iACCESS:    1452613  iHIT:     958307  iMISS:     494306  dACCESS:    1782500  dHIT:     979915  dMISS:     802585  itACCESS:          0  itHIT:          0  itMISS:          0  dtACCESS:          0  dtHIT:          0  dtMISS:          0
LLC WRITE        ACCESS:     262761  HIT:     259878  MISS:       2883  iACCESS:          0  iHIT:          0  iMISS:          0  dACCESS:     262761  dHIT:     259878  dMISS:       2883  itACCESS:          0  itHIT:          0  itMISS:          0  dtACCESS:          0  dtHIT:          0  dtMISS:          0
LLC TRANSLATION  ACCESS:     222866  HIT:      42264  MISS:     180602  iACCESS:          0  iHIT:          0  iMISS:          0  dACCESS:          0  dHIT:          0  dMISS:          0  itACCESS:      43118  itHIT:       8420  itMISS:      34698  dtACCESS:     179748  dtHIT:      33844  dtMISS:     145904
LLC PREFETCH  REQUESTED:          0  ISSUED:          0  CROSSED:          0  USEFUL:          0  USELESS:          0
LLC AVERAGE iMISS LATENCY: 47.6799 cycles
LLC AVERAGE dMISS LATENCY: 108.525 cycles
LLC AVERAGE itMISS LATENCY: 2.95951 cycles
LLC AVERAGE dtMISS LATENCY: 13.4568 cycles
LLC PAGE CROSSINGS (TLB HIT):         0 
LLC PAGE CROSSINGS (TLB MISS):         0 
LLC AVERAGE MISS LATENCY: 172.622 cycles

PageTableWalker TOTAL       ACCESS:     177245  
PageTableWalker AVERAGE LATENCY: 6.31283 cycles
PageTableWalker TOTAL LATENCY: 1118917 cycles

DRAM Statistics
Channel 0
 RQ ROW_BUFFER_HIT:     450252
  ROW_BUFFER_MISS:    1607309
 AVG DBUS CONGESTED CYCLE:    3.66173
 WQ ROW_BUFFER_HIT:      54610
  ROW_BUFFER_MISS:      60869  FULL:          0

