last_page:0x200000000000000
VMEM_RES_CAP:0x100000
PAGE_SIZE:4096
LOG2_PAGE_SIZE:12
LOG2_PAGE_TABLE_SIZE:9
page_table_levels:5
WARNING: physical memory size is smaller than virtual memory size
FDiP enabled with aggresivity 16

*** ChampSim Multicore Out-of-Order Simulator ***

Warmup Instructions: 50000000
Simulation Instructions: 100000000
Number of CPUs: 1
Small page size: 4096
Large page size: 2097152

CPU 0 Bimodal branch predictor
Basic BTB sets: 1024 ways: 8 indirect buffer size: 4096 RAS size: 64
Instruction page size distrubution: 0
Loading instruction page size distribution from /home/bsc/bsc018186/scratch/itp_asplos25_AE/dump/smt_srv540_ap_srv495_ap_1024i.pdst
Data page size distrubution: 0
Loading data page size distribution from /home/bsc/bsc018186/scratch/itp_asplos25_AE/dump/smt_srv540_ap_srv495_ap_1024i.pdst
cpu0_L2C IP-based stride prefetcher
cpu0_L1D next line prefetcher
CHiRPing...
cpu0_L1I next line prefetcher
Off-chip DRAM Size: 4 GiB Channels: 1 Width: 64-bit Data Rate: 3200 MT/s
Heartbeat CPU 0 instructions: 10000003 cycles: 2500360 heartbeat IPC: 3.99943 cumulative IPC: 3.99943 (Simulation time: 0 hr 0 min 45 sec) 
Heartbeat CPU 0 instructions: 20000002 cycles: 5000667 heartbeat IPC: 3.99951 cumulative IPC: 3.99947 (Simulation time: 0 hr 1 min 33 sec) 
Heartbeat CPU 0 instructions: 30000000 cycles: 7500948 heartbeat IPC: 3.99955 cumulative IPC: 3.9995 (Simulation time: 0 hr 2 min 21 sec) 
Heartbeat CPU 0 instructions: 40000003 cycles: 10001253 heartbeat IPC: 3.99952 cumulative IPC: 3.9995 (Simulation time: 0 hr 3 min 10 sec) 
Heartbeat CPU 0 instructions: 50000001 cycles: 12501377 heartbeat IPC: 3.99981 cumulative IPC: 3.99956 (Simulation time: 0 hr 3 min 57 sec) 
Warmup finished CPU 0 instructions: 50000001 cycles: 12501378 cumulative IPC: 3.99956 (Simulation time: 0 hr 3 min 57 sec) 

Warmup complete CPU 0 instructions: 50000001 cycles: 12501378 (Simulation time: 0 hr 3 min 57 sec) 

Heartbeat CPU 0 instructions: 60000001 cycles: 42651150 heartbeat IPC: 0.331678 cumulative IPC: 0.331678 (Simulation time: 0 hr 5 min 39 sec) 
Heartbeat CPU 0 instructions: 70000003 cycles: 73118383 heartbeat IPC: 0.328222 cumulative IPC: 0.329941 (Simulation time: 0 hr 7 min 19 sec) 
Heartbeat CPU 0 instructions: 80000002 cycles: 103798164 heartbeat IPC: 0.325948 cumulative IPC: 0.328599 (Simulation time: 0 hr 8 min 49 sec) 
Heartbeat CPU 0 instructions: 90000000 cycles: 134472766 heartbeat IPC: 0.326003 cumulative IPC: 0.327946 (Simulation time: 0 hr 10 min 18 sec) 
Heartbeat CPU 0 instructions: 100000001 cycles: 164648229 heartbeat IPC: 0.331396 cumulative IPC: 0.32863 (Simulation time: 0 hr 11 min 47 sec) 
Heartbeat CPU 0 instructions: 110000000 cycles: 194470327 heartbeat IPC: 0.335322 cumulative IPC: 0.329727 (Simulation time: 0 hr 13 min 15 sec) 
Heartbeat CPU 0 instructions: 120000000 cycles: 224643349 heartbeat IPC: 0.331422 cumulative IPC: 0.329968 (Simulation time: 0 hr 14 min 44 sec) 
Heartbeat CPU 0 instructions: 130000001 cycles: 254482060 heartbeat IPC: 0.335136 cumulative IPC: 0.330605 (Simulation time: 0 hr 16 min 12 sec) 
Heartbeat CPU 0 instructions: 140000002 cycles: 284390919 heartbeat IPC: 0.33435 cumulative IPC: 0.331017 (Simulation time: 0 hr 17 min 40 sec) 
Heartbeat CPU 0 instructions: 150000001 cycles: 312616970 heartbeat IPC: 0.354283 cumulative IPC: 0.333205 (Simulation time: 0 hr 19 min 6 sec) 
Simulation finished CPU 0 instructions: 100000000 cycles: 300115593 cumulative IPC: 0.333205 (Simulation time: 0 hr 19 min 6 sec) 

Simulation complete CPU 0 instructions: 100000000 cycles: 300115593 (Simulation time: 0 hr 19 min 6 sec) 


ChampSim completed all CPUs

Saving instructions large page distribution to /home/bsc/bsc018186/scratch/itp_asplos25_AE/dump/smt_srv540_ap_srv495_ap_1024i.pdst...
Saving data large page distribution to /home/bsc/bsc018186/scratch/itp_asplos25_AE/dump/smt_srv540_ap_srv495_ap_1024i.pdst...
=== Simulation ===
CPU 0 runs /gpfs/projects/bsc18/MN4/bsc18/romol/ChampSim/traces/qualcomm_srv/smt_srv540_ap_srv495_ap_1024i.champsimtrace.xz

Region of Interest Statistics

CPU 0 cumulative IPC: 0.333205 instructions: 100000000 cycles: 300115593
CPU 0 Branch Prediction Accuracy: 75.5046% MPKI: 44.1654 Average ROB Occupancy at Mispredict: 11.0509
Branch type MPKI
BRANCH_DIRECT_JUMP: 1.3386
BRANCH_INDIRECT: 22.7715
BRANCH_CONDITIONAL: 12.9584
BRANCH_DIRECT_CALL: 2.62043
BRANCH_INDIRECT_CALL: 0.984761
BRANCH_RETURN: 3.49188

Instructions large pages: 0
Instructions small pages: 9586
Large page distribution for instructions: 0%

Data large pages: 0
Data small pages: 8248
Large page distribution for data: 0%

cpu0_L1I TOTAL       ACCESS:   38748774  HIT:   30177653  MISS:    8571121  iACCESS:   38748774  iHIT:   30177653  iMISS:    8571121  dACCESS:          0  dHIT:          0  dMISS:          0  itACCESS:          0  itHIT:          0  itMISS:          0  dtACCESS:          0  dtHIT:          0  dtMISS:          0
cpu0_L1I LOAD         ACCESS:   11522277  HIT:    9189346  MISS:    2332931  iACCESS:   11522277  iHIT:    9189346  iMISS:    2332931  dACCESS:          0  dHIT:          0  dMISS:          0  itACCESS:          0  itHIT:          0  itMISS:          0  dtACCESS:          0  dtHIT:          0  dtMISS:          0
cpu0_L1I RFO          ACCESS:          0  HIT:          0  MISS:          0  iACCESS:          0  iHIT:          0  iMISS:          0  dACCESS:          0  dHIT:          0  dMISS:          0  itACCESS:          0  itHIT:          0  itMISS:          0  dtACCESS:          0  dtHIT:          0  dtMISS:          0
cpu0_L1I PREFETCH     ACCESS:   27226497  HIT:   20988307  MISS:    6238190  iACCESS:   27226497  iHIT:   20988307  iMISS:    6238190  dACCESS:          0  dHIT:          0  dMISS:          0  itACCESS:          0  itHIT:          0  itMISS:          0  dtACCESS:          0  dtHIT:          0  dtMISS:          0
cpu0_L1I WRITE        ACCESS:          0  HIT:          0  MISS:          0  iACCESS:          0  iHIT:          0  iMISS:          0  dACCESS:          0  dHIT:          0  dMISS:          0  itACCESS:          0  itHIT:          0  itMISS:          0  dtACCESS:          0  dtHIT:          0  dtMISS:          0
cpu0_L1I TRANSLATION  ACCESS:          0  HIT:          0  MISS:          0  iACCESS:          0  iHIT:          0  iMISS:          0  dACCESS:          0  dHIT:          0  dMISS:          0  itACCESS:          0  itHIT:          0  itMISS:          0  dtACCESS:          0  dtHIT:          0  dtMISS:          0
cpu0_L1I PREFETCH  REQUESTED:   29958580  ISSUED:   29958571  CROSSED:          0  USEFUL:    2176565  USELESS:     752362
cpu0_L1I AVERAGE iMISS LATENCY: 24.7535 cycles
cpu0_L1I AVERAGE dMISS LATENCY: 0 cycles
cpu0_L1I AVERAGE itMISS LATENCY: 0 cycles
cpu0_L1I AVERAGE dtMISS LATENCY: 0 cycles
cpu0_L1I PAGE CROSSINGS (TLB HIT):         0 
cpu0_L1I PAGE CROSSINGS (TLB MISS):         0 
cpu0_L1I AVERAGE MISS LATENCY: 24.7535 cycles
cpu0_ITLB TOTAL       ACCESS:   32846379  HIT:   30633104  MISS:    2213275  iACCESS:   32846379  iHIT:   30633104  iMISS:    2213275  dACCESS:          0  dHIT:          0  dMISS:          0  itACCESS:          0  itHIT:          0  itMISS:          0  dtACCESS:          0  dtHIT:          0  dtMISS:          0
cpu0_ITLB LOAD         ACCESS:   32846379  HIT:   30633104  MISS:    2213275  iACCESS:   32846379  iHIT:   30633104  iMISS:    2213275  dACCESS:          0  dHIT:          0  dMISS:          0  itACCESS:          0  itHIT:          0  itMISS:          0  dtACCESS:          0  dtHIT:          0  dtMISS:          0
cpu0_ITLB RFO          ACCESS:          0  HIT:          0  MISS:          0  iACCESS:          0  iHIT:          0  iMISS:          0  dACCESS:          0  dHIT:          0  dMISS:          0  itACCESS:          0  itHIT:          0  itMISS:          0  dtACCESS:          0  dtHIT:          0  dtMISS:          0
cpu0_ITLB PREFETCH     ACCESS:          0  HIT:          0  MISS:          0  iACCESS:          0  iHIT:          0  iMISS:          0  dACCESS:          0  dHIT:          0  dMISS:          0  itACCESS:          0  itHIT:          0  itMISS:          0  dtACCESS:          0  dtHIT:          0  dtMISS:          0
cpu0_ITLB WRITE        ACCESS:          0  HIT:          0  MISS:          0  iACCESS:          0  iHIT:          0  iMISS:          0  dACCESS:          0  dHIT:          0  dMISS:          0  itACCESS:          0  itHIT:          0  itMISS:          0  dtACCESS:          0  dtHIT:          0  dtMISS:          0
cpu0_ITLB TRANSLATION  ACCESS:          0  HIT:          0  MISS:          0  iACCESS:          0  iHIT:          0  iMISS:          0  dACCESS:          0  dHIT:          0  dMISS:          0  itACCESS:          0  itHIT:          0  itMISS:          0  dtACCESS:          0  dtHIT:          0  dtMISS:          0
cpu0_ITLB PREFETCH  REQUESTED:          0  ISSUED:          0  CROSSED:          0  USEFUL:     383113  USELESS:      78699
cpu0_ITLB AVERAGE iMISS LATENCY: 10.4348 cycles
cpu0_ITLB AVERAGE dMISS LATENCY: 0 cycles
cpu0_ITLB AVERAGE itMISS LATENCY: 0 cycles
cpu0_ITLB AVERAGE dtMISS LATENCY: 0 cycles
cpu0_ITLB PAGE CROSSINGS (TLB HIT):         0 
cpu0_ITLB PAGE CROSSINGS (TLB MISS):         0 
cpu0_ITLB AVERAGE MISS LATENCY: 10.4348 cycles
cpu0_DTLB TOTAL       ACCESS:   28801498  HIT:   25127662  MISS:    3673836  iACCESS:          0  iHIT:          0  iMISS:          0  dACCESS:   28801498  dHIT:   25127662  dMISS:    3673836  itACCESS:          0  itHIT:          0  itMISS:          0  dtACCESS:          0  dtHIT:          0  dtMISS:          0
cpu0_DTLB LOAD         ACCESS:   28801498  HIT:   25127662  MISS:    3673836  iACCESS:          0  iHIT:          0  iMISS:          0  dACCESS:   28801498  dHIT:   25127662  dMISS:    3673836  itACCESS:          0  itHIT:          0  itMISS:          0  dtACCESS:          0  dtHIT:          0  dtMISS:          0
cpu0_DTLB RFO          ACCESS:          0  HIT:          0  MISS:          0  iACCESS:          0  iHIT:          0  iMISS:          0  dACCESS:          0  dHIT:          0  dMISS:          0  itACCESS:          0  itHIT:          0  itMISS:          0  dtACCESS:          0  dtHIT:          0  dtMISS:          0
cpu0_DTLB PREFETCH     ACCESS:          0  HIT:          0  MISS:          0  iACCESS:          0  iHIT:          0  iMISS:          0  dACCESS:          0  dHIT:          0  dMISS:          0  itACCESS:          0  itHIT:          0  itMISS:          0  dtACCESS:          0  dtHIT:          0  dtMISS:          0
cpu0_DTLB WRITE        ACCESS:          0  HIT:          0  MISS:          0  iACCESS:          0  iHIT:          0  iMISS:          0  dACCESS:          0  dHIT:          0  dMISS:          0  itACCESS:          0  itHIT:          0  itMISS:          0  dtACCESS:          0  dtHIT:          0  dtMISS:          0
cpu0_DTLB TRANSLATION  ACCESS:          0  HIT:          0  MISS:          0  iACCESS:          0  iHIT:          0  iMISS:          0  dACCESS:          0  dHIT:          0  dMISS:          0  itACCESS:          0  itHIT:          0  itMISS:          0  dtACCESS:          0  dtHIT:          0  dtMISS:          0
cpu0_DTLB PREFETCH  REQUESTED:          0  ISSUED:          0  CROSSED:          0  USEFUL:          0  USELESS:          0
cpu0_DTLB AVERAGE iMISS LATENCY: 0 cycles
cpu0_DTLB AVERAGE dMISS LATENCY: 24.9004 cycles
cpu0_DTLB AVERAGE itMISS LATENCY: 0 cycles
cpu0_DTLB AVERAGE dtMISS LATENCY: 0 cycles
cpu0_DTLB PAGE CROSSINGS (TLB HIT):         0 
cpu0_DTLB PAGE CROSSINGS (TLB MISS):         0 
cpu0_DTLB AVERAGE MISS LATENCY: 24.9004 cycles
cpu0_STLB TOTAL       ACCESS:    2592359  HIT:    2212622  MISS:     379737  iACCESS:     461817  iHIT:     345704  iMISS:     116113  dACCESS:    2130542  dHIT:    1866918  dMISS:     263624  itACCESS:          0  itHIT:          0  itMISS:          0  dtACCESS:          0  dtHIT:          0  dtMISS:          0
cpu0_STLB LOAD         ACCESS:    2592359  HIT:    2212622  MISS:     379737  iACCESS:     461817  iHIT:     345704  iMISS:     116113  dACCESS:    2130542  dHIT:    1866918  dMISS:     263624  itACCESS:          0  itHIT:          0  itMISS:          0  dtACCESS:          0  dtHIT:          0  dtMISS:          0
cpu0_STLB RFO          ACCESS:          0  HIT:          0  MISS:          0  iACCESS:          0  iHIT:          0  iMISS:          0  dACCESS:          0  dHIT:          0  dMISS:          0  itACCESS:          0  itHIT:          0  itMISS:          0  dtACCESS:          0  dtHIT:          0  dtMISS:          0
cpu0_STLB PREFETCH     ACCESS:          0  HIT:          0  MISS:          0  iACCESS:          0  iHIT:          0  iMISS:          0  dACCESS:          0  dHIT:          0  dMISS:          0  itACCESS:          0  itHIT:          0  itMISS:          0  dtACCESS:          0  dtHIT:          0  dtMISS:          0
cpu0_STLB WRITE        ACCESS:          0  HIT:          0  MISS:          0  iACCESS:          0  iHIT:          0  iMISS:          0  dACCESS:          0  dHIT:          0  dMISS:          0  itACCESS:          0  itHIT:          0  itMISS:          0  dtACCESS:          0  dtHIT:          0  dtMISS:          0
cpu0_STLB TRANSLATION  ACCESS:          0  HIT:          0  MISS:          0  iACCESS:          0  iHIT:          0  iMISS:          0  dACCESS:          0  dHIT:          0  dMISS:          0  itACCESS:          0  itHIT:          0  itMISS:          0  dtACCESS:          0  dtHIT:          0  dtMISS:          0
cpu0_STLB PREFETCH  REQUESTED:          0  ISSUED:          0  CROSSED:          0  USEFUL:          0  USELESS:          0
cpu0_STLB AVERAGE iMISS LATENCY: 51.0747 cycles
cpu0_STLB AVERAGE dMISS LATENCY: 195.73 cycles
cpu0_STLB AVERAGE itMISS LATENCY: 0 cycles
cpu0_STLB AVERAGE dtMISS LATENCY: 0 cycles
cpu0_STLB PAGE CROSSINGS (TLB HIT):         0 
cpu0_STLB PAGE CROSSINGS (TLB MISS):         0 
cpu0_STLB AVERAGE MISS LATENCY: 246.805 cycles
cpu0_L1D TOTAL       ACCESS:   44692070  HIT:   38999545  MISS:    5692525  iACCESS:          0  iHIT:          0  iMISS:          0  dACCESS:   44136227  dHIT:   38965969  dMISS:    5170258  itACCESS:     130148  itHIT:      14475  itMISS:     115673  dtACCESS:     425695  dtHIT:      19101  dtMISS:     406594
cpu0_L1D LOAD         ACCESS:   20157760  HIT:   17844443  MISS:    2313317  iACCESS:          0  iHIT:          0  iMISS:          0  dACCESS:   20157760  dHIT:   17844443  dMISS:    2313317  itACCESS:          0  itHIT:          0  itMISS:          0  dtACCESS:          0  dtHIT:          0  dtMISS:          0
cpu0_L1D RFO          ACCESS:          0  HIT:          0  MISS:          0  iACCESS:          0  iHIT:          0  iMISS:          0  dACCESS:          0  dHIT:          0  dMISS:          0  itACCESS:          0  itHIT:          0  itMISS:          0  dtACCESS:          0  dtHIT:          0  dtMISS:          0
cpu0_L1D PREFETCH     ACCESS:   13834408  HIT:   11546946  MISS:    2287462  iACCESS:          0  iHIT:          0  iMISS:          0  dACCESS:   13834408  dHIT:   11546946  dMISS:    2287462  itACCESS:          0  itHIT:          0  itMISS:          0  dtACCESS:          0  dtHIT:          0  dtMISS:          0
cpu0_L1D WRITE        ACCESS:   10144059  HIT:    9574580  MISS:     569479  iACCESS:          0  iHIT:          0  iMISS:          0  dACCESS:   10144059  dHIT:    9574580  dMISS:     569479  itACCESS:          0  itHIT:          0  itMISS:          0  dtACCESS:          0  dtHIT:          0  dtMISS:          0
cpu0_L1D TRANSLATION  ACCESS:     555843  HIT:      33576  MISS:     522267  iACCESS:          0  iHIT:          0  iMISS:          0  dACCESS:          0  dHIT:          0  dMISS:          0  itACCESS:     130148  itHIT:      14475  itMISS:     115673  dtACCESS:     425695  dtHIT:      19101  dtMISS:     406594
cpu0_L1D PREFETCH  REQUESTED:   20157760  ISSUED:   18362852  CROSSED:          0  USEFUL:     360207  USELESS:     930717
cpu0_L1D AVERAGE iMISS LATENCY: 0 cycles
cpu0_L1D AVERAGE dMISS LATENCY: 50.4113 cycles
cpu0_L1D AVERAGE itMISS LATENCY: 3.21908 cycles
cpu0_L1D AVERAGE dtMISS LATENCY: 12.2552 cycles
cpu0_L1D PAGE CROSSINGS (TLB HIT):         0 
cpu0_L1D PAGE CROSSINGS (TLB MISS):         0 
cpu0_L1D AVERAGE MISS LATENCY: 65.8855 cycles
cpu0_L2C TOTAL       ACCESS:    8563364  HIT:    4198055  MISS:    4365309  iACCESS:    3727621  iHIT:    2291677  iMISS:    1435944  dACCESS:    4345284  dHIT:    1845526  dMISS:    2499758  itACCESS:     114818  itHIT:      21729  itMISS:      93089  dtACCESS:     375641  dtHIT:      39123  dtMISS:     336518
cpu0_L2C LOAD         ACCESS:    2039503  HIT:    1005518  MISS:    1033985  iACCESS:     836442  iHIT:     536442  iMISS:     300000  dACCESS:    1203061  dHIT:     469076  dMISS:     733985  itACCESS:          0  itHIT:          0  itMISS:          0  dtACCESS:          0  dtHIT:          0  dtMISS:          0
cpu0_L2C RFO          ACCESS:     218948  HIT:      85019  MISS:     133929  iACCESS:          0  iHIT:          0  iMISS:          0  dACCESS:     218948  dHIT:      85019  dMISS:     133929  itACCESS:          0  itHIT:          0  itMISS:          0  dtACCESS:          0  dtHIT:          0  dtMISS:          0
cpu0_L2C PREFETCH     ACCESS:    5466838  HIT:    2702398  MISS:    2764440  iACCESS:    2891179  iHIT:    1755235  iMISS:    1135944  dACCESS:    2575659  dHIT:     947163  dMISS:    1628496  itACCESS:          0  itHIT:          0  itMISS:          0  dtACCESS:          0  dtHIT:          0  dtMISS:          0
cpu0_L2C WRITE        ACCESS:     347616  HIT:     344268  MISS:       3348  iACCESS:          0  iHIT:          0  iMISS:          0  dACCESS:     347616  dHIT:     344268  dMISS:       3348  itACCESS:          0  itHIT:          0  itMISS:          0  dtACCESS:          0  dtHIT:          0  dtMISS:          0
cpu0_L2C TRANSLATION  ACCESS:     490459  HIT:      60852  MISS:     429607  iACCESS:          0  iHIT:          0  iMISS:          0  dACCESS:          0  dHIT:          0  dMISS:          0  itACCESS:     114818  itHIT:      21729  itMISS:      93089  dtACCESS:     375641  dtHIT:      39123  dtMISS:     336518
cpu0_L2C PREFETCH  REQUESTED:    1522288  ISSUED:    1522286  CROSSED:          0  USEFUL:     352324  USELESS:     315599
cpu0_L2C AVERAGE iMISS LATENCY: 41.4522 cycles
cpu0_L2C AVERAGE dMISS LATENCY: 81.9237 cycles
cpu0_L2C AVERAGE itMISS LATENCY: 3.93899 cycles
cpu0_L2C AVERAGE dtMISS LATENCY: 15.1247 cycles
cpu0_L2C PAGE CROSSINGS (TLB HIT):         0 
cpu0_L2C PAGE CROSSINGS (TLB MISS):         0 
cpu0_L2C AVERAGE MISS LATENCY: 142.44 cycles
LLC TOTAL       ACCESS:    4351285  HIT:    1212764  MISS:    3138521  iACCESS:    1344209  iHIT:     368766  iMISS:     975443  dACCESS:    2577469  dHIT:     804402  dMISS:    1773067  itACCESS:      93089  itHIT:       7211  itMISS:      85878  dtACCESS:     336518  dtHIT:      32385  dtMISS:     304133
LLC LOAD         ACCESS:    1027411  HIT:     303528  MISS:     723883  iACCESS:     298809  iHIT:      88430  iMISS:     210379  dACCESS:     728602  dHIT:     215098  dMISS:     513504  itACCESS:          0  itHIT:          0  itMISS:          0  dtACCESS:          0  dtHIT:          0  dtMISS:          0
LLC RFO          ACCESS:     133926  HIT:      40522  MISS:      93404  iACCESS:          0  iHIT:          0  iMISS:          0  dACCESS:     133926  dHIT:      40522  dMISS:      93404  itACCESS:          0  itHIT:          0  itMISS:          0  dtACCESS:          0  dtHIT:          0  dtMISS:          0
LLC PREFETCH     ACCESS:    2548986  HIT:     628253  MISS:    1920733  iACCESS:    1045400  iHIT:     280336  iMISS:     765064  dACCESS:    1503586  dHIT:     347917  dMISS:    1155669  itACCESS:          0  itHIT:          0  itMISS:          0  dtACCESS:          0  dtHIT:          0  dtMISS:          0
LLC WRITE        ACCESS:     211355  HIT:     200865  MISS:      10490  iACCESS:          0  iHIT:          0  iMISS:          0  dACCESS:     211355  dHIT:     200865  dMISS:      10490  itACCESS:          0  itHIT:          0  itMISS:          0  dtACCESS:          0  dtHIT:          0  dtMISS:          0
LLC TRANSLATION  ACCESS:     429607  HIT:      39596  MISS:     390011  iACCESS:          0  iHIT:          0  iMISS:          0  dACCESS:          0  dHIT:          0  dMISS:          0  itACCESS:      93089  itHIT:       7211  itMISS:      85878  dtACCESS:     336518  dtHIT:      32385  dtMISS:     304133
LLC PREFETCH  REQUESTED:          0  ISSUED:          0  CROSSED:          0  USEFUL:          0  USELESS:          0
LLC AVERAGE iMISS LATENCY: 49.2041 cycles
LLC AVERAGE dMISS LATENCY: 100.069 cycles
LLC AVERAGE itMISS LATENCY: 4.89042 cycles
LLC AVERAGE dtMISS LATENCY: 18.9163 cycles
LLC PAGE CROSSINGS (TLB HIT):         0 
LLC PAGE CROSSINGS (TLB MISS):         0 
LLC AVERAGE MISS LATENCY: 173.079 cycles

PageTableWalker TOTAL       ACCESS:     195010  
PageTableWalker AVERAGE LATENCY: 6.429 cycles
PageTableWalker TOTAL LATENCY: 1253718 cycles

DRAM Statistics
Channel 0
 RQ ROW_BUFFER_HIT:     663662
  ROW_BUFFER_MISS:    2444592
 AVG DBUS CONGESTED CYCLE:    3.65401
 WQ ROW_BUFFER_HIT:      66730
  ROW_BUFFER_MISS:      57427  FULL:          0

