last_page:0x200000000000000
VMEM_RES_CAP:0x100000
PAGE_SIZE:4096
LOG2_PAGE_SIZE:12
LOG2_PAGE_TABLE_SIZE:9
page_table_levels:5
WARNING: physical memory size is smaller than virtual memory size
FDiP enabled with aggresivity 16

*** ChampSim Multicore Out-of-Order Simulator ***

Warmup Instructions: 50000000
Simulation Instructions: 100000000
Number of CPUs: 1
Small page size: 4096
Large page size: 2097152

CPU 0 Bimodal branch predictor
Basic BTB sets: 1024 ways: 8 indirect buffer size: 4096 RAS size: 64
Instruction page size distrubution: 0
Loading instruction page size distribution from /home/bsc/bsc018186/scratch/itp_asplos25_AE/dump/smt_srv207_ap_srv551_ap_1024i.pdst
Data page size distrubution: 0
Loading data page size distribution from /home/bsc/bsc018186/scratch/itp_asplos25_AE/dump/smt_srv207_ap_srv551_ap_1024i.pdst
cpu0_L2C IP-based stride prefetcher
cpu0_L1D next line prefetcher
cpu0_STLB using iTP with max lru@8
cpu0_STLB using iTP with instr@0 and data@2
Init sat counter with 3 bits (max:50).
cpu0_L1I next line prefetcher
Off-chip DRAM Size: 4 GiB Channels: 1 Width: 64-bit Data Rate: 3200 MT/s
Heartbeat CPU 0 instructions: 10000001 cycles: 2500493 heartbeat IPC: 3.99922 cumulative IPC: 3.99922 (Simulation time: 0 hr 0 min 38 sec) 
Heartbeat CPU 0 instructions: 20000002 cycles: 5000988 heartbeat IPC: 3.99921 cumulative IPC: 3.99922 (Simulation time: 0 hr 1 min 18 sec) 
Heartbeat CPU 0 instructions: 30000003 cycles: 7501152 heartbeat IPC: 3.99974 cumulative IPC: 3.99939 (Simulation time: 0 hr 1 min 59 sec) 
Heartbeat CPU 0 instructions: 40000000 cycles: 10001318 heartbeat IPC: 3.99974 cumulative IPC: 3.99948 (Simulation time: 0 hr 2 min 40 sec) 
Heartbeat CPU 0 instructions: 50000002 cycles: 12501735 heartbeat IPC: 3.99934 cumulative IPC: 3.99945 (Simulation time: 0 hr 3 min 21 sec) 
Warmup finished CPU 0 instructions: 50000002 cycles: 12501736 cumulative IPC: 3.99945 (Simulation time: 0 hr 3 min 21 sec) 

Warmup complete CPU 0 instructions: 50000002 cycles: 12501736 (Simulation time: 0 hr 3 min 21 sec) 

Heartbeat CPU 0 instructions: 60000003 cycles: 41022595 heartbeat IPC: 0.350621 cumulative IPC: 0.350621 (Simulation time: 0 hr 4 min 44 sec) 
Heartbeat CPU 0 instructions: 70000000 cycles: 71001922 heartbeat IPC: 0.333564 cumulative IPC: 0.34188 (Simulation time: 0 hr 6 min 10 sec) 
Heartbeat CPU 0 instructions: 80000001 cycles: 100325580 heartbeat IPC: 0.341022 cumulative IPC: 0.341593 (Simulation time: 0 hr 7 min 34 sec) 
Heartbeat CPU 0 instructions: 90000000 cycles: 129608746 heartbeat IPC: 0.341494 cumulative IPC: 0.341568 (Simulation time: 0 hr 8 min 59 sec) 
Heartbeat CPU 0 instructions: 100000000 cycles: 158598089 heartbeat IPC: 0.344955 cumulative IPC: 0.34224 (Simulation time: 0 hr 10 min 23 sec) 
Heartbeat CPU 0 instructions: 110000000 cycles: 186689274 heartbeat IPC: 0.355984 cumulative IPC: 0.344457 (Simulation time: 0 hr 11 min 46 sec) 
Heartbeat CPU 0 instructions: 120000002 cycles: 211377430 heartbeat IPC: 0.405053 cumulative IPC: 0.351979 (Simulation time: 0 hr 13 min 7 sec) 
Heartbeat CPU 0 instructions: 130000000 cycles: 228302582 heartbeat IPC: 0.590837 cumulative IPC: 0.370713 (Simulation time: 0 hr 14 min 18 sec) 
Heartbeat CPU 0 instructions: 140000002 cycles: 247509480 heartbeat IPC: 0.520647 cumulative IPC: 0.382967 (Simulation time: 0 hr 15 min 33 sec) 
Heartbeat CPU 0 instructions: 150000000 cycles: 277372684 heartbeat IPC: 0.334861 cumulative IPC: 0.377543 (Simulation time: 0 hr 16 min 56 sec) 
Simulation finished CPU 0 instructions: 100000003 cycles: 264870950 cumulative IPC: 0.377543 (Simulation time: 0 hr 16 min 56 sec) 

Simulation complete CPU 0 instructions: 100000003 cycles: 264870950 (Simulation time: 0 hr 16 min 56 sec) 


ChampSim completed all CPUs

Saving instructions large page distribution to /home/bsc/bsc018186/scratch/itp_asplos25_AE/dump/smt_srv207_ap_srv551_ap_1024i.pdst...
Saving data large page distribution to /home/bsc/bsc018186/scratch/itp_asplos25_AE/dump/smt_srv207_ap_srv551_ap_1024i.pdst...
=== Simulation ===
CPU 0 runs /gpfs/projects/bsc18/MN4/bsc18/romol/ChampSim/traces/qualcomm_srv/smt_srv207_ap_srv551_ap_1024i.champsimtrace.xz

Region of Interest Statistics

CPU 0 cumulative IPC: 0.377543 instructions: 100000003 cycles: 264870950
CPU 0 Branch Prediction Accuracy: 77.4636% MPKI: 43.4302 Average ROB Occupancy at Mispredict: 11.4647
Branch type MPKI
BRANCH_DIRECT_JUMP: 1.27778
BRANCH_INDIRECT: 23.718
BRANCH_CONDITIONAL: 11.5725
BRANCH_DIRECT_CALL: 2.41064
BRANCH_INDIRECT_CALL: 1.08263
BRANCH_RETURN: 3.36873

Instructions large pages: 0
Instructions small pages: 11910
Large page distribution for instructions: 0%

Data large pages: 0
Data small pages: 10385
Large page distribution for data: 0%

cpu0_L1I TOTAL       ACCESS:   39964817  HIT:   31793371  MISS:    8171446  iACCESS:   39964817  iHIT:   31793371  iMISS:    8171446  dACCESS:          0  dHIT:          0  dMISS:          0  itACCESS:          0  itHIT:          0  itMISS:          0  dtACCESS:          0  dtHIT:          0  dtMISS:          0
cpu0_L1I LOAD         ACCESS:   11297894  HIT:    9073414  MISS:    2224480  iACCESS:   11297894  iHIT:    9073414  iMISS:    2224480  dACCESS:          0  dHIT:          0  dMISS:          0  itACCESS:          0  itHIT:          0  itMISS:          0  dtACCESS:          0  dtHIT:          0  dtMISS:          0
cpu0_L1I RFO          ACCESS:          0  HIT:          0  MISS:          0  iACCESS:          0  iHIT:          0  iMISS:          0  dACCESS:          0  dHIT:          0  dMISS:          0  itACCESS:          0  itHIT:          0  itMISS:          0  dtACCESS:          0  dtHIT:          0  dtMISS:          0
cpu0_L1I PREFETCH     ACCESS:   28666923  HIT:   22719957  MISS:    5946966  iACCESS:   28666923  iHIT:   22719957  iMISS:    5946966  dACCESS:          0  dHIT:          0  dMISS:          0  itACCESS:          0  itHIT:          0  itMISS:          0  dtACCESS:          0  dtHIT:          0  dtMISS:          0
cpu0_L1I WRITE        ACCESS:          0  HIT:          0  MISS:          0  iACCESS:          0  iHIT:          0  iMISS:          0  dACCESS:          0  dHIT:          0  dMISS:          0  itACCESS:          0  itHIT:          0  itMISS:          0  dtACCESS:          0  dtHIT:          0  dtMISS:          0
cpu0_L1I TRANSLATION  ACCESS:          0  HIT:          0  MISS:          0  iACCESS:          0  iHIT:          0  iMISS:          0  dACCESS:          0  dHIT:          0  dMISS:          0  itACCESS:          0  itHIT:          0  itMISS:          0  dtACCESS:          0  dtHIT:          0  dtMISS:          0
cpu0_L1I PREFETCH  REQUESTED:   31122550  ISSUED:   31121187  CROSSED:          0  USEFUL:    1967134  USELESS:     706382
cpu0_L1I AVERAGE iMISS LATENCY: 24.7728 cycles
cpu0_L1I AVERAGE dMISS LATENCY: 0 cycles
cpu0_L1I AVERAGE itMISS LATENCY: 0 cycles
cpu0_L1I AVERAGE dtMISS LATENCY: 0 cycles
cpu0_L1I PAGE CROSSINGS (TLB HIT):         0 
cpu0_L1I PAGE CROSSINGS (TLB MISS):         0 
cpu0_L1I AVERAGE MISS LATENCY: 24.7728 cycles
cpu0_ITLB TOTAL       ACCESS:   33528037  HIT:   31519981  MISS:    2008056  iACCESS:   33528037  iHIT:   31519981  iMISS:    2008056  dACCESS:          0  dHIT:          0  dMISS:          0  itACCESS:          0  itHIT:          0  itMISS:          0  dtACCESS:          0  dtHIT:          0  dtMISS:          0
cpu0_ITLB LOAD         ACCESS:   33528037  HIT:   31519981  MISS:    2008056  iACCESS:   33528037  iHIT:   31519981  iMISS:    2008056  dACCESS:          0  dHIT:          0  dMISS:          0  itACCESS:          0  itHIT:          0  itMISS:          0  dtACCESS:          0  dtHIT:          0  dtMISS:          0
cpu0_ITLB RFO          ACCESS:          0  HIT:          0  MISS:          0  iACCESS:          0  iHIT:          0  iMISS:          0  dACCESS:          0  dHIT:          0  dMISS:          0  itACCESS:          0  itHIT:          0  itMISS:          0  dtACCESS:          0  dtHIT:          0  dtMISS:          0
cpu0_ITLB PREFETCH     ACCESS:          0  HIT:          0  MISS:          0  iACCESS:          0  iHIT:          0  iMISS:          0  dACCESS:          0  dHIT:          0  dMISS:          0  itACCESS:          0  itHIT:          0  itMISS:          0  dtACCESS:          0  dtHIT:          0  dtMISS:          0
cpu0_ITLB WRITE        ACCESS:          0  HIT:          0  MISS:          0  iACCESS:          0  iHIT:          0  iMISS:          0  dACCESS:          0  dHIT:          0  dMISS:          0  itACCESS:          0  itHIT:          0  itMISS:          0  dtACCESS:          0  dtHIT:          0  dtMISS:          0
cpu0_ITLB TRANSLATION  ACCESS:          0  HIT:          0  MISS:          0  iACCESS:          0  iHIT:          0  iMISS:          0  dACCESS:          0  dHIT:          0  dMISS:          0  itACCESS:          0  itHIT:          0  itMISS:          0  dtACCESS:          0  dtHIT:          0  dtMISS:          0
cpu0_ITLB PREFETCH  REQUESTED:          0  ISSUED:          0  CROSSED:          0  USEFUL:     356130  USELESS:      73807
cpu0_ITLB AVERAGE iMISS LATENCY: 6.03167 cycles
cpu0_ITLB AVERAGE dMISS LATENCY: 0 cycles
cpu0_ITLB AVERAGE itMISS LATENCY: 0 cycles
cpu0_ITLB AVERAGE dtMISS LATENCY: 0 cycles
cpu0_ITLB PAGE CROSSINGS (TLB HIT):         0 
cpu0_ITLB PAGE CROSSINGS (TLB MISS):         0 
cpu0_ITLB AVERAGE MISS LATENCY: 6.03167 cycles
cpu0_DTLB TOTAL       ACCESS:   31125051  HIT:   25125088  MISS:    5999963  iACCESS:          0  iHIT:          0  iMISS:          0  dACCESS:   31125051  dHIT:   25125088  dMISS:    5999963  itACCESS:          0  itHIT:          0  itMISS:          0  dtACCESS:          0  dtHIT:          0  dtMISS:          0
cpu0_DTLB LOAD         ACCESS:   31125051  HIT:   25125088  MISS:    5999963  iACCESS:          0  iHIT:          0  iMISS:          0  dACCESS:   31125051  dHIT:   25125088  dMISS:    5999963  itACCESS:          0  itHIT:          0  itMISS:          0  dtACCESS:          0  dtHIT:          0  dtMISS:          0
cpu0_DTLB RFO          ACCESS:          0  HIT:          0  MISS:          0  iACCESS:          0  iHIT:          0  iMISS:          0  dACCESS:          0  dHIT:          0  dMISS:          0  itACCESS:          0  itHIT:          0  itMISS:          0  dtACCESS:          0  dtHIT:          0  dtMISS:          0
cpu0_DTLB PREFETCH     ACCESS:          0  HIT:          0  MISS:          0  iACCESS:          0  iHIT:          0  iMISS:          0  dACCESS:          0  dHIT:          0  dMISS:          0  itACCESS:          0  itHIT:          0  itMISS:          0  dtACCESS:          0  dtHIT:          0  dtMISS:          0
cpu0_DTLB WRITE        ACCESS:          0  HIT:          0  MISS:          0  iACCESS:          0  iHIT:          0  iMISS:          0  dACCESS:          0  dHIT:          0  dMISS:          0  itACCESS:          0  itHIT:          0  itMISS:          0  dtACCESS:          0  dtHIT:          0  dtMISS:          0
cpu0_DTLB TRANSLATION  ACCESS:          0  HIT:          0  MISS:          0  iACCESS:          0  iHIT:          0  iMISS:          0  dACCESS:          0  dHIT:          0  dMISS:          0  itACCESS:          0  itHIT:          0  itMISS:          0  dtACCESS:          0  dtHIT:          0  dtMISS:          0
cpu0_DTLB PREFETCH  REQUESTED:          0  ISSUED:          0  CROSSED:          0  USEFUL:          0  USELESS:          0
cpu0_DTLB AVERAGE iMISS LATENCY: 0 cycles
cpu0_DTLB AVERAGE dMISS LATENCY: 12.0703 cycles
cpu0_DTLB AVERAGE itMISS LATENCY: 0 cycles
cpu0_DTLB AVERAGE dtMISS LATENCY: 0 cycles
cpu0_DTLB PAGE CROSSINGS (TLB HIT):         0 
cpu0_DTLB PAGE CROSSINGS (TLB MISS):         0 
cpu0_DTLB AVERAGE MISS LATENCY: 12.0703 cycles
cpu0_STLB TOTAL       ACCESS:    3660250  HIT:    3327984  MISS:     332266  iACCESS:     429948  iHIT:     373841  iMISS:      56107  dACCESS:    3230302  dHIT:    2954143  dMISS:     276159  itACCESS:          0  itHIT:          0  itMISS:          0  dtACCESS:          0  dtHIT:          0  dtMISS:          0
cpu0_STLB LOAD         ACCESS:    3660250  HIT:    3327984  MISS:     332266  iACCESS:     429948  iHIT:     373841  iMISS:      56107  dACCESS:    3230302  dHIT:    2954143  dMISS:     276159  itACCESS:          0  itHIT:          0  itMISS:          0  dtACCESS:          0  dtHIT:          0  dtMISS:          0
cpu0_STLB RFO          ACCESS:          0  HIT:          0  MISS:          0  iACCESS:          0  iHIT:          0  iMISS:          0  dACCESS:          0  dHIT:          0  dMISS:          0  itACCESS:          0  itHIT:          0  itMISS:          0  dtACCESS:          0  dtHIT:          0  dtMISS:          0
cpu0_STLB PREFETCH     ACCESS:          0  HIT:          0  MISS:          0  iACCESS:          0  iHIT:          0  iMISS:          0  dACCESS:          0  dHIT:          0  dMISS:          0  itACCESS:          0  itHIT:          0  itMISS:          0  dtACCESS:          0  dtHIT:          0  dtMISS:          0
cpu0_STLB WRITE        ACCESS:          0  HIT:          0  MISS:          0  iACCESS:          0  iHIT:          0  iMISS:          0  dACCESS:          0  dHIT:          0  dMISS:          0  itACCESS:          0  itHIT:          0  itMISS:          0  dtACCESS:          0  dtHIT:          0  dtMISS:          0
cpu0_STLB TRANSLATION  ACCESS:          0  HIT:          0  MISS:          0  iACCESS:          0  iHIT:          0  iMISS:          0  dACCESS:          0  dHIT:          0  dMISS:          0  itACCESS:          0  itHIT:          0  itMISS:          0  dtACCESS:          0  dtHIT:          0  dtMISS:          0
cpu0_STLB PREFETCH  REQUESTED:          0  ISSUED:          0  CROSSED:          0  USEFUL:          0  USELESS:          0
cpu0_STLB AVERAGE iMISS LATENCY: 26.2709 cycles
cpu0_STLB AVERAGE dMISS LATENCY: 139.237 cycles
cpu0_STLB AVERAGE itMISS LATENCY: 0 cycles
cpu0_STLB AVERAGE dtMISS LATENCY: 0 cycles
cpu0_STLB PAGE CROSSINGS (TLB HIT):         0 
cpu0_STLB PAGE CROSSINGS (TLB MISS):         0 
cpu0_STLB AVERAGE MISS LATENCY: 165.508 cycles
cpu0_L1D TOTAL       ACCESS:   49944394  HIT:   40112822  MISS:    9831572  iACCESS:          0  iHIT:          0  iMISS:          0  dACCESS:   49443922  dHIT:   40088476  dMISS:    9355446  itACCESS:      65798  itHIT:       4882  itMISS:      60916  dtACCESS:     434674  dtHIT:      19464  dtMISS:     415210
cpu0_L1D LOAD         ACCESS:   23860674  HIT:   18699409  MISS:    5161265  iACCESS:          0  iHIT:          0  iMISS:          0  dACCESS:   23860674  dHIT:   18699409  dMISS:    5161265  itACCESS:          0  itHIT:          0  itMISS:          0  dtACCESS:          0  dtHIT:          0  dtMISS:          0
cpu0_L1D RFO          ACCESS:          0  HIT:          0  MISS:          0  iACCESS:          0  iHIT:          0  iMISS:          0  dACCESS:          0  dHIT:          0  dMISS:          0  itACCESS:          0  itHIT:          0  itMISS:          0  dtACCESS:          0  dtHIT:          0  dtMISS:          0
cpu0_L1D PREFETCH     ACCESS:   15833618  HIT:   12237006  MISS:    3596612  iACCESS:          0  iHIT:          0  iMISS:          0  dACCESS:   15833618  dHIT:   12237006  dMISS:    3596612  itACCESS:          0  itHIT:          0  itMISS:          0  dtACCESS:          0  dtHIT:          0  dtMISS:          0
cpu0_L1D WRITE        ACCESS:    9749630  HIT:    9152061  MISS:     597569  iACCESS:          0  iHIT:          0  iMISS:          0  dACCESS:    9749630  dHIT:    9152061  dMISS:     597569  itACCESS:          0  itHIT:          0  itMISS:          0  dtACCESS:          0  dtHIT:          0  dtMISS:          0
cpu0_L1D TRANSLATION  ACCESS:     500472  HIT:      24346  MISS:     476126  iACCESS:          0  iHIT:          0  iMISS:          0  dACCESS:          0  dHIT:          0  dMISS:          0  itACCESS:      65798  itHIT:       4882  itMISS:      60916  dtACCESS:     434674  dtHIT:      19464  dtMISS:     415210
cpu0_L1D PREFETCH  REQUESTED:   23860674  ISSUED:   19265161  CROSSED:          0  USEFUL:     347070  USELESS:    1082208
cpu0_L1D AVERAGE iMISS LATENCY: 0 cycles
cpu0_L1D AVERAGE dMISS LATENCY: 31.756 cycles
cpu0_L1D AVERAGE itMISS LATENCY: 0.827902 cycles
cpu0_L1D AVERAGE dtMISS LATENCY: 4.23206 cycles
cpu0_L1D PAGE CROSSINGS (TLB HIT):         0 
cpu0_L1D PAGE CROSSINGS (TLB MISS):         0 
cpu0_L1D AVERAGE MISS LATENCY: 36.8159 cycles
cpu0_L2C TOTAL       ACCESS:    9890985  HIT:    2148483  MISS:    7742502  iACCESS:    3395380  iHIT:     703703  iMISS:    2691677  dACCESS:    6044820  dHIT:    1275971  dMISS:    4768849  itACCESS:      60858  itHIT:      14067  itMISS:      46791  dtACCESS:     389927  dtHIT:     154742  dtMISS:     235185
cpu0_L2C LOAD         ACCESS:    3646711  HIT:     834547  MISS:    2812164  iACCESS:     750541  iHIT:     101864  iMISS:     648677  dACCESS:    2896170  dHIT:     732683  dMISS:    2163487  itACCESS:          0  itHIT:          0  itMISS:          0  dtACCESS:          0  dtHIT:          0  dtMISS:          0
cpu0_L2C RFO          ACCESS:     233180  HIT:      47128  MISS:     186052  iACCESS:          0  iHIT:          0  iMISS:          0  dACCESS:     233180  dHIT:      47128  dMISS:     186052  itACCESS:          0  itHIT:          0  itMISS:          0  dtACCESS:          0  dtHIT:          0  dtMISS:          0
cpu0_L2C PREFETCH     ACCESS:    5233368  HIT:     994386  MISS:    4238982  iACCESS:    2644839  iHIT:     601839  iMISS:    2043000  dACCESS:    2588529  dHIT:     392547  dMISS:    2195982  itACCESS:          0  itHIT:          0  itMISS:          0  dtACCESS:          0  dtHIT:          0  dtMISS:          0
cpu0_L2C WRITE        ACCESS:     326941  HIT:     103613  MISS:     223328  iACCESS:          0  iHIT:          0  iMISS:          0  dACCESS:     326941  dHIT:     103613  dMISS:     223328  itACCESS:          0  itHIT:          0  itMISS:          0  dtACCESS:          0  dtHIT:          0  dtMISS:          0
cpu0_L2C TRANSLATION  ACCESS:     450785  HIT:     168809  MISS:     281976  iACCESS:          0  iHIT:          0  iMISS:          0  dACCESS:          0  dHIT:          0  dMISS:          0  itACCESS:      60858  itHIT:      14067  itMISS:      46791  dtACCESS:     389927  dtHIT:     154742  dtMISS:     235185
cpu0_L2C PREFETCH  REQUESTED:    1368676  ISSUED:    1368669  CROSSED:          0  USEFUL:     356327  USELESS:     443980
cpu0_L2C AVERAGE iMISS LATENCY: 22.4461 cycles
cpu0_L2C AVERAGE dMISS LATENCY: 45.1842 cycles
cpu0_L2C AVERAGE itMISS LATENCY: 0.974255 cycles
cpu0_L2C AVERAGE dtMISS LATENCY: 4.88797 cycles
cpu0_L2C PAGE CROSSINGS (TLB HIT):         0 
cpu0_L2C PAGE CROSSINGS (TLB MISS):         0 
cpu0_L2C AVERAGE MISS LATENCY: 73.4924 cycles
LLC TOTAL       ACCESS:    7581611  HIT:    5095820  MISS:    2485791  iACCESS:    2615273  iHIT:    1836551  iMISS:     778722  dACCESS:    4684362  dHIT:    3189257  dMISS:    1495105  itACCESS:      46791  itHIT:       9569  itMISS:      37222  dtACCESS:     235185  dtHIT:      60443  dtMISS:     174742
LLC LOAD         ACCESS:    2804650  HIT:    2198851  MISS:     605799  iACCESS:     647451  iHIT:     485009  iMISS:     162442  dACCESS:    2157199  dHIT:    1713842  dMISS:     443357  itACCESS:          0  itHIT:          0  itMISS:          0  dtACCESS:          0  dtHIT:          0  dtMISS:          0
LLC RFO          ACCESS:     186029  HIT:     103184  MISS:      82845  iACCESS:          0  iHIT:          0  iMISS:          0  dACCESS:     186029  dHIT:     103184  dMISS:      82845  itACCESS:          0  itHIT:          0  itMISS:          0  dtACCESS:          0  dtHIT:          0  dtMISS:          0
LLC PREFETCH     ACCESS:    4054256  HIT:    2474872  MISS:    1579384  iACCESS:    1967822  iHIT:    1351542  iMISS:     616280  dACCESS:    2086434  dHIT:    1123330  dMISS:     963104  itACCESS:          0  itHIT:          0  itMISS:          0  dtACCESS:          0  dtHIT:          0  dtMISS:          0
LLC WRITE        ACCESS:     254700  HIT:     248901  MISS:       5799  iACCESS:          0  iHIT:          0  iMISS:          0  dACCESS:     254700  dHIT:     248901  dMISS:       5799  itACCESS:          0  itHIT:          0  itMISS:          0  dtACCESS:          0  dtHIT:          0  dtMISS:          0
LLC TRANSLATION  ACCESS:     281976  HIT:      70012  MISS:     211964  iACCESS:          0  iHIT:          0  iMISS:          0  dACCESS:          0  dHIT:          0  dMISS:          0  itACCESS:      46791  itHIT:       9569  itMISS:      37222  dtACCESS:     235185  dtHIT:      60443  dtMISS:     174742
LLC PREFETCH  REQUESTED:          0  ISSUED:          0  CROSSED:          0  USEFUL:          0  USELESS:          0
LLC AVERAGE iMISS LATENCY: 49.4826 cycles
LLC AVERAGE dMISS LATENCY: 106.961 cycles
LLC AVERAGE itMISS LATENCY: 2.66326 cycles
LLC AVERAGE dtMISS LATENCY: 13.3625 cycles
LLC PAGE CROSSINGS (TLB HIT):         0 
LLC PAGE CROSSINGS (TLB MISS):         0 
LLC AVERAGE MISS LATENCY: 172.469 cycles

PageTableWalker TOTAL       ACCESS:     188614  
PageTableWalker AVERAGE LATENCY: 6.18381 cycles
PageTableWalker TOTAL LATENCY: 1166352 cycles

DRAM Statistics
Channel 0
 RQ ROW_BUFFER_HIT:     561755
  ROW_BUFFER_MISS:    1900867
 AVG DBUS CONGESTED CYCLE:    3.65534
 WQ ROW_BUFFER_HIT:      58110
  ROW_BUFFER_MISS:      56734  FULL:          0

