last_page:0x200000000000000
VMEM_RES_CAP:0x100000
PAGE_SIZE:4096
LOG2_PAGE_SIZE:12
LOG2_PAGE_TABLE_SIZE:9
page_table_levels:5
WARNING: physical memory size is smaller than virtual memory size
FDiP enabled with aggresivity 16

*** ChampSim Multicore Out-of-Order Simulator ***

Warmup Instructions: 50000000
Simulation Instructions: 100000000
Number of CPUs: 1
Small page size: 4096
Large page size: 2097152

CPU 0 Bimodal branch predictor
Basic BTB sets: 1024 ways: 8 indirect buffer size: 4096 RAS size: 64
Instruction page size distrubution: 0
Loading instruction page size distribution from /home/bsc/bsc018186/scratch/itp_asplos25_AE/dump/smt_srv207_ap_srv298_ap_1024i.pdst
Data page size distrubution: 0
Loading data page size distribution from /home/bsc/bsc018186/scratch/itp_asplos25_AE/dump/smt_srv207_ap_srv298_ap_1024i.pdst
cpu0_L2C IP-based stride prefetcher
cpu0_L2C is using PTP replacement policy:
	TLB_STRESS_THRESHOLD:0
	PTE_EVICTION_RATIO:0
cpu0_L1D next line prefetcher
cpu0_L1I next line prefetcher
Off-chip DRAM Size: 4 GiB Channels: 1 Width: 64-bit Data Rate: 3200 MT/s
Heartbeat CPU 0 instructions: 10000002 cycles: 2500509 heartbeat IPC: 3.99919 cumulative IPC: 3.99919 (Simulation time: 0 hr 0 min 44 sec) 
Heartbeat CPU 0 instructions: 20000001 cycles: 5000871 heartbeat IPC: 3.99943 cumulative IPC: 3.99931 (Simulation time: 0 hr 1 min 28 sec) 
Heartbeat CPU 0 instructions: 30000003 cycles: 7501116 heartbeat IPC: 3.99961 cumulative IPC: 3.99941 (Simulation time: 0 hr 2 min 15 sec) 
Heartbeat CPU 0 instructions: 40000001 cycles: 10001441 heartbeat IPC: 3.99948 cumulative IPC: 3.99943 (Simulation time: 0 hr 3 min 3 sec) 
Heartbeat CPU 0 instructions: 50000003 cycles: 12501878 heartbeat IPC: 3.99931 cumulative IPC: 3.9994 (Simulation time: 0 hr 3 min 50 sec) 
Warmup finished CPU 0 instructions: 50000003 cycles: 12501879 cumulative IPC: 3.9994 (Simulation time: 0 hr 3 min 50 sec) 

Warmup complete CPU 0 instructions: 50000003 cycles: 12501879 (Simulation time: 0 hr 3 min 50 sec) 

Heartbeat CPU 0 instructions: 60000003 cycles: 41532547 heartbeat IPC: 0.344464 cumulative IPC: 0.344464 (Simulation time: 0 hr 5 min 26 sec) 
Heartbeat CPU 0 instructions: 70000001 cycles: 70239438 heartbeat IPC: 0.348349 cumulative IPC: 0.346395 (Simulation time: 0 hr 7 min 3 sec) 
Heartbeat CPU 0 instructions: 80000000 cycles: 99306408 heartbeat IPC: 0.344034 cumulative IPC: 0.345605 (Simulation time: 0 hr 8 min 41 sec) 
Heartbeat CPU 0 instructions: 90000000 cycles: 129559316 heartbeat IPC: 0.330547 cumulative IPC: 0.341713 (Simulation time: 0 hr 10 min 10 sec) 
Heartbeat CPU 0 instructions: 100000003 cycles: 158550262 heartbeat IPC: 0.344936 cumulative IPC: 0.342353 (Simulation time: 0 hr 11 min 35 sec) 
Heartbeat CPU 0 instructions: 110000001 cycles: 188078997 heartbeat IPC: 0.338654 cumulative IPC: 0.341731 (Simulation time: 0 hr 13 min 1 sec) 
Heartbeat CPU 0 instructions: 120000000 cycles: 216863317 heartbeat IPC: 0.347412 cumulative IPC: 0.342531 (Simulation time: 0 hr 14 min 26 sec) 
Heartbeat CPU 0 instructions: 130000003 cycles: 246419839 heartbeat IPC: 0.338335 cumulative IPC: 0.342001 (Simulation time: 0 hr 15 min 52 sec) 
Heartbeat CPU 0 instructions: 140000002 cycles: 277110240 heartbeat IPC: 0.325835 cumulative IPC: 0.340126 (Simulation time: 0 hr 17 min 19 sec) 
Heartbeat CPU 0 instructions: 150000000 cycles: 306887981 heartbeat IPC: 0.335822 cumulative IPC: 0.33969 (Simulation time: 0 hr 18 min 45 sec) 
Simulation finished CPU 0 instructions: 100000002 cycles: 294386104 cumulative IPC: 0.33969 (Simulation time: 0 hr 18 min 45 sec) 

Simulation complete CPU 0 instructions: 100000002 cycles: 294386104 (Simulation time: 0 hr 18 min 45 sec) 


ChampSim completed all CPUs

Saving instructions large page distribution to /home/bsc/bsc018186/scratch/itp_asplos25_AE/dump/smt_srv207_ap_srv298_ap_1024i.pdst...
Saving data large page distribution to /home/bsc/bsc018186/scratch/itp_asplos25_AE/dump/smt_srv207_ap_srv298_ap_1024i.pdst...
=== Simulation ===
CPU 0 runs /gpfs/projects/bsc18/MN4/bsc18/romol/ChampSim/traces/qualcomm_srv/smt_srv207_ap_srv298_ap_1024i.champsimtrace.xz

Region of Interest Statistics

CPU 0 cumulative IPC: 0.33969 instructions: 100000002 cycles: 294386104
CPU 0 Branch Prediction Accuracy: 75.5505% MPKI: 43.9639 Average ROB Occupancy at Mispredict: 11.4793
Branch type MPKI
BRANCH_DIRECT_JUMP: 1.32809
BRANCH_INDIRECT: 23.3394
BRANCH_CONDITIONAL: 12.3548
BRANCH_DIRECT_CALL: 2.50711
BRANCH_INDIRECT_CALL: 0.94832
BRANCH_RETURN: 3.48621

Instructions large pages: 0
Instructions small pages: 15016
Large page distribution for instructions: 0%

Data large pages: 0
Data small pages: 13640
Large page distribution for data: 0%

cpu0_L1I TOTAL       ACCESS:   38850832  HIT:   30143957  MISS:    8706875  iACCESS:   38850832  iHIT:   30143957  iMISS:    8706875  dACCESS:          0  dHIT:          0  dMISS:          0  itACCESS:          0  itHIT:          0  itMISS:          0  dtACCESS:          0  dtHIT:          0  dtMISS:          0
cpu0_L1I LOAD         ACCESS:   11544130  HIT:    9158245  MISS:    2385885  iACCESS:   11544130  iHIT:    9158245  iMISS:    2385885  dACCESS:          0  dHIT:          0  dMISS:          0  itACCESS:          0  itHIT:          0  itMISS:          0  dtACCESS:          0  dtHIT:          0  dtMISS:          0
cpu0_L1I RFO          ACCESS:          0  HIT:          0  MISS:          0  iACCESS:          0  iHIT:          0  iMISS:          0  dACCESS:          0  dHIT:          0  dMISS:          0  itACCESS:          0  itHIT:          0  itMISS:          0  dtACCESS:          0  dtHIT:          0  dtMISS:          0
cpu0_L1I PREFETCH     ACCESS:   27306702  HIT:   20985712  MISS:    6320990  iACCESS:   27306702  iHIT:   20985712  iMISS:    6320990  dACCESS:          0  dHIT:          0  dMISS:          0  itACCESS:          0  itHIT:          0  itMISS:          0  dtACCESS:          0  dtHIT:          0  dtMISS:          0
cpu0_L1I WRITE        ACCESS:          0  HIT:          0  MISS:          0  iACCESS:          0  iHIT:          0  iMISS:          0  dACCESS:          0  dHIT:          0  dMISS:          0  itACCESS:          0  itHIT:          0  itMISS:          0  dtACCESS:          0  dtHIT:          0  dtMISS:          0
cpu0_L1I TRANSLATION  ACCESS:          0  HIT:          0  MISS:          0  iACCESS:          0  iHIT:          0  iMISS:          0  dACCESS:          0  dHIT:          0  dMISS:          0  itACCESS:          0  itHIT:          0  itMISS:          0  dtACCESS:          0  dtHIT:          0  dtMISS:          0
cpu0_L1I PREFETCH  REQUESTED:   30058873  ISSUED:   30058783  CROSSED:          0  USEFUL:    2180981  USELESS:     778307
cpu0_L1I AVERAGE iMISS LATENCY: 23.6181 cycles
cpu0_L1I AVERAGE dMISS LATENCY: 0 cycles
cpu0_L1I AVERAGE itMISS LATENCY: 0 cycles
cpu0_L1I AVERAGE dtMISS LATENCY: 0 cycles
cpu0_L1I PAGE CROSSINGS (TLB HIT):         0 
cpu0_L1I PAGE CROSSINGS (TLB MISS):         0 
cpu0_L1I AVERAGE MISS LATENCY: 23.6181 cycles
cpu0_ITLB TOTAL       ACCESS:   32890251  HIT:   30651476  MISS:    2238775  iACCESS:   32890251  iHIT:   30651476  iMISS:    2238775  dACCESS:          0  dHIT:          0  dMISS:          0  itACCESS:          0  itHIT:          0  itMISS:          0  dtACCESS:          0  dtHIT:          0  dtMISS:          0
cpu0_ITLB LOAD         ACCESS:   32890251  HIT:   30651476  MISS:    2238775  iACCESS:   32890251  iHIT:   30651476  iMISS:    2238775  dACCESS:          0  dHIT:          0  dMISS:          0  itACCESS:          0  itHIT:          0  itMISS:          0  dtACCESS:          0  dtHIT:          0  dtMISS:          0
cpu0_ITLB RFO          ACCESS:          0  HIT:          0  MISS:          0  iACCESS:          0  iHIT:          0  iMISS:          0  dACCESS:          0  dHIT:          0  dMISS:          0  itACCESS:          0  itHIT:          0  itMISS:          0  dtACCESS:          0  dtHIT:          0  dtMISS:          0
cpu0_ITLB PREFETCH     ACCESS:          0  HIT:          0  MISS:          0  iACCESS:          0  iHIT:          0  iMISS:          0  dACCESS:          0  dHIT:          0  dMISS:          0  itACCESS:          0  itHIT:          0  itMISS:          0  dtACCESS:          0  dtHIT:          0  dtMISS:          0
cpu0_ITLB WRITE        ACCESS:          0  HIT:          0  MISS:          0  iACCESS:          0  iHIT:          0  iMISS:          0  dACCESS:          0  dHIT:          0  dMISS:          0  itACCESS:          0  itHIT:          0  itMISS:          0  dtACCESS:          0  dtHIT:          0  dtMISS:          0
cpu0_ITLB TRANSLATION  ACCESS:          0  HIT:          0  MISS:          0  iACCESS:          0  iHIT:          0  iMISS:          0  dACCESS:          0  dHIT:          0  dMISS:          0  itACCESS:          0  itHIT:          0  itMISS:          0  dtACCESS:          0  dtHIT:          0  dtMISS:          0
cpu0_ITLB PREFETCH  REQUESTED:          0  ISSUED:          0  CROSSED:          0  USEFUL:     391597  USELESS:      80537
cpu0_ITLB AVERAGE iMISS LATENCY: 9.92836 cycles
cpu0_ITLB AVERAGE dMISS LATENCY: 0 cycles
cpu0_ITLB AVERAGE itMISS LATENCY: 0 cycles
cpu0_ITLB AVERAGE dtMISS LATENCY: 0 cycles
cpu0_ITLB PAGE CROSSINGS (TLB HIT):         0 
cpu0_ITLB PAGE CROSSINGS (TLB MISS):         0 
cpu0_ITLB AVERAGE MISS LATENCY: 9.92836 cycles
cpu0_DTLB TOTAL       ACCESS:   29122615  HIT:   25488721  MISS:    3633894  iACCESS:          0  iHIT:          0  iMISS:          0  dACCESS:   29122615  dHIT:   25488721  dMISS:    3633894  itACCESS:          0  itHIT:          0  itMISS:          0  dtACCESS:          0  dtHIT:          0  dtMISS:          0
cpu0_DTLB LOAD         ACCESS:   29122615  HIT:   25488721  MISS:    3633894  iACCESS:          0  iHIT:          0  iMISS:          0  dACCESS:   29122615  dHIT:   25488721  dMISS:    3633894  itACCESS:          0  itHIT:          0  itMISS:          0  dtACCESS:          0  dtHIT:          0  dtMISS:          0
cpu0_DTLB RFO          ACCESS:          0  HIT:          0  MISS:          0  iACCESS:          0  iHIT:          0  iMISS:          0  dACCESS:          0  dHIT:          0  dMISS:          0  itACCESS:          0  itHIT:          0  itMISS:          0  dtACCESS:          0  dtHIT:          0  dtMISS:          0
cpu0_DTLB PREFETCH     ACCESS:          0  HIT:          0  MISS:          0  iACCESS:          0  iHIT:          0  iMISS:          0  dACCESS:          0  dHIT:          0  dMISS:          0  itACCESS:          0  itHIT:          0  itMISS:          0  dtACCESS:          0  dtHIT:          0  dtMISS:          0
cpu0_DTLB WRITE        ACCESS:          0  HIT:          0  MISS:          0  iACCESS:          0  iHIT:          0  iMISS:          0  dACCESS:          0  dHIT:          0  dMISS:          0  itACCESS:          0  itHIT:          0  itMISS:          0  dtACCESS:          0  dtHIT:          0  dtMISS:          0
cpu0_DTLB TRANSLATION  ACCESS:          0  HIT:          0  MISS:          0  iACCESS:          0  iHIT:          0  iMISS:          0  dACCESS:          0  dHIT:          0  dMISS:          0  itACCESS:          0  itHIT:          0  itMISS:          0  dtACCESS:          0  dtHIT:          0  dtMISS:          0
cpu0_DTLB PREFETCH  REQUESTED:          0  ISSUED:          0  CROSSED:          0  USEFUL:          0  USELESS:          0
cpu0_DTLB AVERAGE iMISS LATENCY: 0 cycles
cpu0_DTLB AVERAGE dMISS LATENCY: 24.1289 cycles
cpu0_DTLB AVERAGE itMISS LATENCY: 0 cycles
cpu0_DTLB AVERAGE dtMISS LATENCY: 0 cycles
cpu0_DTLB PAGE CROSSINGS (TLB HIT):         0 
cpu0_DTLB PAGE CROSSINGS (TLB MISS):         0 
cpu0_DTLB AVERAGE MISS LATENCY: 24.1289 cycles
cpu0_STLB TOTAL       ACCESS:    2581441  HIT:    2213784  MISS:     367657  iACCESS:     472135  iHIT:     363129  iMISS:     109006  dACCESS:    2109306  dHIT:    1850655  dMISS:     258651  itACCESS:          0  itHIT:          0  itMISS:          0  dtACCESS:          0  dtHIT:          0  dtMISS:          0
cpu0_STLB LOAD         ACCESS:    2581441  HIT:    2213784  MISS:     367657  iACCESS:     472135  iHIT:     363129  iMISS:     109006  dACCESS:    2109306  dHIT:    1850655  dMISS:     258651  itACCESS:          0  itHIT:          0  itMISS:          0  dtACCESS:          0  dtHIT:          0  dtMISS:          0
cpu0_STLB RFO          ACCESS:          0  HIT:          0  MISS:          0  iACCESS:          0  iHIT:          0  iMISS:          0  dACCESS:          0  dHIT:          0  dMISS:          0  itACCESS:          0  itHIT:          0  itMISS:          0  dtACCESS:          0  dtHIT:          0  dtMISS:          0
cpu0_STLB PREFETCH     ACCESS:          0  HIT:          0  MISS:          0  iACCESS:          0  iHIT:          0  iMISS:          0  dACCESS:          0  dHIT:          0  dMISS:          0  itACCESS:          0  itHIT:          0  itMISS:          0  dtACCESS:          0  dtHIT:          0  dtMISS:          0
cpu0_STLB WRITE        ACCESS:          0  HIT:          0  MISS:          0  iACCESS:          0  iHIT:          0  iMISS:          0  dACCESS:          0  dHIT:          0  dMISS:          0  itACCESS:          0  itHIT:          0  itMISS:          0  dtACCESS:          0  dtHIT:          0  dtMISS:          0
cpu0_STLB TRANSLATION  ACCESS:          0  HIT:          0  MISS:          0  iACCESS:          0  iHIT:          0  iMISS:          0  dACCESS:          0  dHIT:          0  dMISS:          0  itACCESS:          0  itHIT:          0  itMISS:          0  dtACCESS:          0  dtHIT:          0  dtMISS:          0
cpu0_STLB PREFETCH  REQUESTED:          0  ISSUED:          0  CROSSED:          0  USEFUL:          0  USELESS:          0
cpu0_STLB AVERAGE iMISS LATENCY: 50.2038 cycles
cpu0_STLB AVERAGE dMISS LATENCY: 192.319 cycles
cpu0_STLB AVERAGE itMISS LATENCY: 0 cycles
cpu0_STLB AVERAGE dtMISS LATENCY: 0 cycles
cpu0_STLB PAGE CROSSINGS (TLB HIT):         0 
cpu0_STLB PAGE CROSSINGS (TLB MISS):         0 
cpu0_STLB AVERAGE MISS LATENCY: 242.523 cycles
cpu0_L1D TOTAL       ACCESS:   45010360  HIT:   39505607  MISS:    5504753  iACCESS:          0  iHIT:          0  iMISS:          0  dACCESS:   44469846  dHIT:   39471311  dMISS:    4998535  itACCESS:     123186  itHIT:      14207  itMISS:     108979  dtACCESS:     417328  dtHIT:      20089  dtMISS:     397239
cpu0_L1D LOAD         ACCESS:   20359769  HIT:   18104346  MISS:    2255423  iACCESS:          0  iHIT:          0  iMISS:          0  dACCESS:   20359769  dHIT:   18104346  dMISS:    2255423  itACCESS:          0  itHIT:          0  itMISS:          0  dtACCESS:          0  dtHIT:          0  dtMISS:          0
cpu0_L1D RFO          ACCESS:          0  HIT:          0  MISS:          0  iACCESS:          0  iHIT:          0  iMISS:          0  dACCESS:          0  dHIT:          0  dMISS:          0  itACCESS:          0  itHIT:          0  itMISS:          0  dtACCESS:          0  dtHIT:          0  dtMISS:          0
cpu0_L1D PREFETCH     ACCESS:   13976686  HIT:   11809815  MISS:    2166871  iACCESS:          0  iHIT:          0  iMISS:          0  dACCESS:   13976686  dHIT:   11809815  dMISS:    2166871  itACCESS:          0  itHIT:          0  itMISS:          0  dtACCESS:          0  dtHIT:          0  dtMISS:          0
cpu0_L1D WRITE        ACCESS:   10133391  HIT:    9557150  MISS:     576241  iACCESS:          0  iHIT:          0  iMISS:          0  dACCESS:   10133391  dHIT:    9557150  dMISS:     576241  itACCESS:          0  itHIT:          0  itMISS:          0  dtACCESS:          0  dtHIT:          0  dtMISS:          0
cpu0_L1D TRANSLATION  ACCESS:     540514  HIT:      34296  MISS:     506218  iACCESS:          0  iHIT:          0  iMISS:          0  dACCESS:          0  dHIT:          0  dMISS:          0  itACCESS:     123186  itHIT:      14207  itMISS:     108979  dtACCESS:     417328  dtHIT:      20089  dtMISS:     397239
cpu0_L1D PREFETCH  REQUESTED:   20359769  ISSUED:   18694208  CROSSED:          0  USEFUL:     377212  USELESS:     954257
cpu0_L1D AVERAGE iMISS LATENCY: 0 cycles
cpu0_L1D AVERAGE dMISS LATENCY: 50.8693 cycles
cpu0_L1D AVERAGE itMISS LATENCY: 3.16765 cycles
cpu0_L1D AVERAGE dtMISS LATENCY: 11.8834 cycles
cpu0_L1D PAGE CROSSINGS (TLB HIT):         0 
cpu0_L1D PAGE CROSSINGS (TLB MISS):         0 
cpu0_L1D AVERAGE MISS LATENCY: 65.9203 cycles
cpu0_L2C TOTAL       ACCESS:    8645926  HIT:    4050579  MISS:    4595347  iACCESS:    3775579  iHIT:    2205246  iMISS:    1570333  dACCESS:    4393567  dHIT:    1779378  dMISS:    2614189  itACCESS:     108015  itHIT:      18836  itMISS:      89179  dtACCESS:     368765  dtHIT:      47119  dtMISS:     321646
cpu0_L2C LOAD         ACCESS:    2099213  HIT:     970055  MISS:    1129158  iACCESS:     851644  iHIT:     514177  iMISS:     337467  dACCESS:    1247569  dHIT:     455878  dMISS:     791691  itACCESS:          0  itHIT:          0  itMISS:          0  dtACCESS:          0  dtHIT:          0  dtMISS:          0
cpu0_L2C RFO          ACCESS:     219972  HIT:      83471  MISS:     136501  iACCESS:          0  iHIT:          0  iMISS:          0  dACCESS:     219972  dHIT:      83471  dMISS:     136501  itACCESS:          0  itHIT:          0  itMISS:          0  dtACCESS:          0  dtHIT:          0  dtMISS:          0
cpu0_L2C PREFETCH     ACCESS:    5495397  HIT:    2606283  MISS:    2889114  iACCESS:    2923935  iHIT:    1691069  iMISS:    1232866  dACCESS:    2571462  dHIT:     915214  dMISS:    1656248  itACCESS:          0  itHIT:          0  itMISS:          0  dtACCESS:          0  dtHIT:          0  dtMISS:          0
cpu0_L2C WRITE        ACCESS:     354564  HIT:     324815  MISS:      29749  iACCESS:          0  iHIT:          0  iMISS:          0  dACCESS:     354564  dHIT:     324815  dMISS:      29749  itACCESS:          0  itHIT:          0  itMISS:          0  dtACCESS:          0  dtHIT:          0  dtMISS:          0
cpu0_L2C TRANSLATION  ACCESS:     476780  HIT:      65955  MISS:     410825  iACCESS:          0  iHIT:          0  iMISS:          0  dACCESS:          0  dHIT:          0  dMISS:          0  itACCESS:     108015  itHIT:      18836  itMISS:      89179  dtACCESS:     368765  dtHIT:      47119  dtMISS:     321646
cpu0_L2C PREFETCH  REQUESTED:    1479427  ISSUED:    1479425  CROSSED:          0  USEFUL:     344817  USELESS:     327091
cpu0_L2C AVERAGE iMISS LATENCY: 37.8255 cycles
cpu0_L2C AVERAGE dMISS LATENCY: 74.7481 cycles
cpu0_L2C AVERAGE itMISS LATENCY: 3.5629 cycles
cpu0_L2C AVERAGE dtMISS LATENCY: 13.4382 cycles
cpu0_L2C PAGE CROSSINGS (TLB HIT):         0 
cpu0_L2C PAGE CROSSINGS (TLB MISS):         0 
cpu0_L2C AVERAGE MISS LATENCY: 129.575 cycles
LLC TOTAL       ACCESS:    4587084  HIT:    1617863  MISS:    2969221  iACCESS:    1485065  iHIT:     571852  iMISS:     913213  dACCESS:    2691194  dHIT:    1004455  dMISS:    1686739  itACCESS:      89179  itHIT:       7654  itMISS:      81525  dtACCESS:     321646  dtHIT:      33902  dtMISS:     287744
LLC LOAD         ACCESS:    1122850  HIT:     428774  MISS:     694076  iACCESS:     336238  iHIT:     141730  iMISS:     194508  dACCESS:     786612  dHIT:     287044  dMISS:     499568  itACCESS:          0  itHIT:          0  itMISS:          0  dtACCESS:          0  dtHIT:          0  dtMISS:          0
LLC RFO          ACCESS:     136495  HIT:      49599  MISS:      86896  iACCESS:          0  iHIT:          0  iMISS:          0  dACCESS:     136495  dHIT:      49599  dMISS:      86896  itACCESS:          0  itHIT:          0  itMISS:          0  dtACCESS:          0  dtHIT:          0  dtMISS:          0
LLC PREFETCH     ACCESS:    2696477  HIT:     887103  MISS:    1809374  iACCESS:    1148827  iHIT:     430122  iMISS:     718705  dACCESS:    1547650  dHIT:     456981  dMISS:    1090669  itACCESS:          0  itHIT:          0  itMISS:          0  dtACCESS:          0  dtHIT:          0  dtMISS:          0
LLC WRITE        ACCESS:     220437  HIT:     210831  MISS:       9606  iACCESS:          0  iHIT:          0  iMISS:          0  dACCESS:     220437  dHIT:     210831  dMISS:       9606  itACCESS:          0  itHIT:          0  itMISS:          0  dtACCESS:          0  dtHIT:          0  dtMISS:          0
LLC TRANSLATION  ACCESS:     410825  HIT:      41556  MISS:     369269  iACCESS:          0  iHIT:          0  iMISS:          0  dACCESS:          0  dHIT:          0  dMISS:          0  itACCESS:      89179  itHIT:       7654  itMISS:      81525  dtACCESS:     321646  dtHIT:      33902  dtMISS:     287744
LLC PREFETCH  REQUESTED:          0  ISSUED:          0  CROSSED:          0  USEFUL:          0  USELESS:          0
LLC AVERAGE iMISS LATENCY: 48.7124 cycles
LLC AVERAGE dMISS LATENCY: 99.94 cycles
LLC AVERAGE itMISS LATENCY: 4.91883 cycles
LLC AVERAGE dtMISS LATENCY: 18.6558 cycles
LLC PAGE CROSSINGS (TLB HIT):         0 
LLC PAGE CROSSINGS (TLB MISS):         0 
LLC AVERAGE MISS LATENCY: 172.227 cycles

PageTableWalker TOTAL       ACCESS:     181331  
PageTableWalker AVERAGE LATENCY: 6.39754 cycles
PageTableWalker TOTAL LATENCY: 1160071 cycles

DRAM Statistics
Channel 0
 RQ ROW_BUFFER_HIT:     627220
  ROW_BUFFER_MISS:    2322037
 AVG DBUS CONGESTED CYCLE:    3.64497
 WQ ROW_BUFFER_HIT:      65256
  ROW_BUFFER_MISS:      54709  FULL:          0

