last_page:0x200000000000000
VMEM_RES_CAP:0x100000
PAGE_SIZE:4096
LOG2_PAGE_SIZE:12
LOG2_PAGE_TABLE_SIZE:9
page_table_levels:5
WARNING: physical memory size is smaller than virtual memory size
FDiP enabled with aggresivity 16

*** ChampSim Multicore Out-of-Order Simulator ***

Warmup Instructions: 50000000
Simulation Instructions: 100000000
Number of CPUs: 1
Small page size: 4096
Large page size: 2097152

CPU 0 Bimodal branch predictor
Basic BTB sets: 1024 ways: 8 indirect buffer size: 4096 RAS size: 64
Instruction page size distrubution: 0
Loading instruction page size distribution from /home/bsc/bsc018186/scratch/itp_asplos25_AE/dump/smt_srv12_ap_srv442_ap_1024i.pdst
Data page size distrubution: 0
Loading data page size distribution from /home/bsc/bsc018186/scratch/itp_asplos25_AE/dump/smt_srv12_ap_srv442_ap_1024i.pdst
cpu0_L2C IP-based stride prefetcher
cpu0_L1D next line prefetcher
CHiRPing...
cpu0_L1I next line prefetcher
Off-chip DRAM Size: 4 GiB Channels: 1 Width: 64-bit Data Rate: 3200 MT/s
Heartbeat CPU 0 instructions: 10000001 cycles: 2500513 heartbeat IPC: 3.99918 cumulative IPC: 3.99918 (Simulation time: 0 hr 0 min 46 sec) 
Heartbeat CPU 0 instructions: 20000000 cycles: 5000801 heartbeat IPC: 3.99954 cumulative IPC: 3.99936 (Simulation time: 0 hr 1 min 33 sec) 
Heartbeat CPU 0 instructions: 30000002 cycles: 7501374 heartbeat IPC: 3.99909 cumulative IPC: 3.99927 (Simulation time: 0 hr 2 min 22 sec) 
Heartbeat CPU 0 instructions: 40000002 cycles: 10001771 heartbeat IPC: 3.99937 cumulative IPC: 3.9993 (Simulation time: 0 hr 3 min 10 sec) 
Heartbeat CPU 0 instructions: 50000001 cycles: 12502107 heartbeat IPC: 3.99947 cumulative IPC: 3.99933 (Simulation time: 0 hr 3 min 56 sec) 
Warmup finished CPU 0 instructions: 50000001 cycles: 12502108 cumulative IPC: 3.99933 (Simulation time: 0 hr 3 min 56 sec) 

Warmup complete CPU 0 instructions: 50000001 cycles: 12502108 (Simulation time: 0 hr 3 min 56 sec) 

Heartbeat CPU 0 instructions: 60000000 cycles: 43301802 heartbeat IPC: 0.324679 cumulative IPC: 0.324679 (Simulation time: 0 hr 5 min 36 sec) 
Heartbeat CPU 0 instructions: 70000004 cycles: 72820211 heartbeat IPC: 0.338772 cumulative IPC: 0.331576 (Simulation time: 0 hr 7 min 16 sec) 
Heartbeat CPU 0 instructions: 80000001 cycles: 103353256 heartbeat IPC: 0.327514 cumulative IPC: 0.330211 (Simulation time: 0 hr 8 min 57 sec) 
Heartbeat CPU 0 instructions: 90000002 cycles: 131448153 heartbeat IPC: 0.355937 cumulative IPC: 0.336287 (Simulation time: 0 hr 10 min 33 sec) 
Heartbeat CPU 0 instructions: 100000001 cycles: 161294985 heartbeat IPC: 0.335044 cumulative IPC: 0.336038 (Simulation time: 0 hr 12 min 13 sec) 
Heartbeat CPU 0 instructions: 110000003 cycles: 191147903 heartbeat IPC: 0.334976 cumulative IPC: 0.335861 (Simulation time: 0 hr 13 min 55 sec) 
Heartbeat CPU 0 instructions: 120000002 cycles: 219615840 heartbeat IPC: 0.351273 cumulative IPC: 0.337979 (Simulation time: 0 hr 15 min 32 sec) 
Heartbeat CPU 0 instructions: 130000000 cycles: 250753033 heartbeat IPC: 0.32116 cumulative IPC: 0.335781 (Simulation time: 0 hr 17 min 3 sec) 
Heartbeat CPU 0 instructions: 140000000 cycles: 280188014 heartbeat IPC: 0.339732 cumulative IPC: 0.336215 (Simulation time: 0 hr 18 min 31 sec) 
Heartbeat CPU 0 instructions: 150000002 cycles: 310073847 heartbeat IPC: 0.334607 cumulative IPC: 0.336054 (Simulation time: 0 hr 19 min 59 sec) 
Simulation finished CPU 0 instructions: 100000001 cycles: 297571740 cumulative IPC: 0.336054 (Simulation time: 0 hr 19 min 59 sec) 

Simulation complete CPU 0 instructions: 100000001 cycles: 297571740 (Simulation time: 0 hr 19 min 59 sec) 


ChampSim completed all CPUs

Saving instructions large page distribution to /home/bsc/bsc018186/scratch/itp_asplos25_AE/dump/smt_srv12_ap_srv442_ap_1024i.pdst...
Saving data large page distribution to /home/bsc/bsc018186/scratch/itp_asplos25_AE/dump/smt_srv12_ap_srv442_ap_1024i.pdst...
=== Simulation ===
CPU 0 runs /gpfs/projects/bsc18/MN4/bsc18/romol/ChampSim/traces/qualcomm_srv/smt_srv12_ap_srv442_ap_1024i.champsimtrace.xz

Region of Interest Statistics

CPU 0 cumulative IPC: 0.336054 instructions: 100000001 cycles: 297571740
CPU 0 Branch Prediction Accuracy: 75.7426% MPKI: 43.9696 Average ROB Occupancy at Mispredict: 10.9981
Branch type MPKI
BRANCH_DIRECT_JUMP: 1.386
BRANCH_INDIRECT: 23.1713
BRANCH_CONDITIONAL: 12.2361
BRANCH_DIRECT_CALL: 2.58697
BRANCH_INDIRECT_CALL: 1.12083
BRANCH_RETURN: 3.46852

Instructions large pages: 0
Instructions small pages: 11516
Large page distribution for instructions: 0%

Data large pages: 0
Data small pages: 9858
Large page distribution for data: 0%

cpu0_L1I TOTAL       ACCESS:   39022547  HIT:   30167439  MISS:    8855108  iACCESS:   39022547  iHIT:   30167439  iMISS:    8855108  dACCESS:          0  dHIT:          0  dMISS:          0  itACCESS:          0  itHIT:          0  itMISS:          0  dtACCESS:          0  dtHIT:          0  dtMISS:          0
cpu0_L1I LOAD         ACCESS:   11651023  HIT:    9218233  MISS:    2432790  iACCESS:   11651023  iHIT:    9218233  iMISS:    2432790  dACCESS:          0  dHIT:          0  dMISS:          0  itACCESS:          0  itHIT:          0  itMISS:          0  dtACCESS:          0  dtHIT:          0  dtMISS:          0
cpu0_L1I RFO          ACCESS:          0  HIT:          0  MISS:          0  iACCESS:          0  iHIT:          0  iMISS:          0  dACCESS:          0  dHIT:          0  dMISS:          0  itACCESS:          0  itHIT:          0  itMISS:          0  dtACCESS:          0  dtHIT:          0  dtMISS:          0
cpu0_L1I PREFETCH     ACCESS:   27371524  HIT:   20949206  MISS:    6422318  iACCESS:   27371524  iHIT:   20949206  iMISS:    6422318  dACCESS:          0  dHIT:          0  dMISS:          0  itACCESS:          0  itHIT:          0  itMISS:          0  dtACCESS:          0  dtHIT:          0  dtMISS:          0
cpu0_L1I WRITE        ACCESS:          0  HIT:          0  MISS:          0  iACCESS:          0  iHIT:          0  iMISS:          0  dACCESS:          0  dHIT:          0  dMISS:          0  itACCESS:          0  itHIT:          0  itMISS:          0  dtACCESS:          0  dtHIT:          0  dtMISS:          0
cpu0_L1I TRANSLATION  ACCESS:          0  HIT:          0  MISS:          0  iACCESS:          0  iHIT:          0  iMISS:          0  dACCESS:          0  dHIT:          0  dMISS:          0  itACCESS:          0  itHIT:          0  itMISS:          0  dtACCESS:          0  dtHIT:          0  dtMISS:          0
cpu0_L1I PREFETCH  REQUESTED:   30179262  ISSUED:   30179223  CROSSED:          0  USEFUL:    2230623  USELESS:     785922
cpu0_L1I AVERAGE iMISS LATENCY: 22.691 cycles
cpu0_L1I AVERAGE dMISS LATENCY: 0 cycles
cpu0_L1I AVERAGE itMISS LATENCY: 0 cycles
cpu0_L1I AVERAGE dtMISS LATENCY: 0 cycles
cpu0_L1I PAGE CROSSINGS (TLB HIT):         0 
cpu0_L1I PAGE CROSSINGS (TLB MISS):         0 
cpu0_L1I AVERAGE MISS LATENCY: 22.691 cycles
cpu0_ITLB TOTAL       ACCESS:   33041944  HIT:   30739911  MISS:    2302033  iACCESS:   33041944  iHIT:   30739911  iMISS:    2302033  dACCESS:          0  dHIT:          0  dMISS:          0  itACCESS:          0  itHIT:          0  itMISS:          0  dtACCESS:          0  dtHIT:          0  dtMISS:          0
cpu0_ITLB LOAD         ACCESS:   33041944  HIT:   30739911  MISS:    2302033  iACCESS:   33041944  iHIT:   30739911  iMISS:    2302033  dACCESS:          0  dHIT:          0  dMISS:          0  itACCESS:          0  itHIT:          0  itMISS:          0  dtACCESS:          0  dtHIT:          0  dtMISS:          0
cpu0_ITLB RFO          ACCESS:          0  HIT:          0  MISS:          0  iACCESS:          0  iHIT:          0  iMISS:          0  dACCESS:          0  dHIT:          0  dMISS:          0  itACCESS:          0  itHIT:          0  itMISS:          0  dtACCESS:          0  dtHIT:          0  dtMISS:          0
cpu0_ITLB PREFETCH     ACCESS:          0  HIT:          0  MISS:          0  iACCESS:          0  iHIT:          0  iMISS:          0  dACCESS:          0  dHIT:          0  dMISS:          0  itACCESS:          0  itHIT:          0  itMISS:          0  dtACCESS:          0  dtHIT:          0  dtMISS:          0
cpu0_ITLB WRITE        ACCESS:          0  HIT:          0  MISS:          0  iACCESS:          0  iHIT:          0  iMISS:          0  dACCESS:          0  dHIT:          0  dMISS:          0  itACCESS:          0  itHIT:          0  itMISS:          0  dtACCESS:          0  dtHIT:          0  dtMISS:          0
cpu0_ITLB TRANSLATION  ACCESS:          0  HIT:          0  MISS:          0  iACCESS:          0  iHIT:          0  iMISS:          0  dACCESS:          0  dHIT:          0  dMISS:          0  itACCESS:          0  itHIT:          0  itMISS:          0  dtACCESS:          0  dtHIT:          0  dtMISS:          0
cpu0_ITLB PREFETCH  REQUESTED:          0  ISSUED:          0  CROSSED:          0  USEFUL:     395993  USELESS:      84473
cpu0_ITLB AVERAGE iMISS LATENCY: 10.3242 cycles
cpu0_ITLB AVERAGE dMISS LATENCY: 0 cycles
cpu0_ITLB AVERAGE itMISS LATENCY: 0 cycles
cpu0_ITLB AVERAGE dtMISS LATENCY: 0 cycles
cpu0_ITLB PAGE CROSSINGS (TLB HIT):         0 
cpu0_ITLB PAGE CROSSINGS (TLB MISS):         0 
cpu0_ITLB AVERAGE MISS LATENCY: 10.3242 cycles
cpu0_DTLB TOTAL       ACCESS:   28951387  HIT:   25383341  MISS:    3568046  iACCESS:          0  iHIT:          0  iMISS:          0  dACCESS:   28951387  dHIT:   25383341  dMISS:    3568046  itACCESS:          0  itHIT:          0  itMISS:          0  dtACCESS:          0  dtHIT:          0  dtMISS:          0
cpu0_DTLB LOAD         ACCESS:   28951387  HIT:   25383341  MISS:    3568046  iACCESS:          0  iHIT:          0  iMISS:          0  dACCESS:   28951387  dHIT:   25383341  dMISS:    3568046  itACCESS:          0  itHIT:          0  itMISS:          0  dtACCESS:          0  dtHIT:          0  dtMISS:          0
cpu0_DTLB RFO          ACCESS:          0  HIT:          0  MISS:          0  iACCESS:          0  iHIT:          0  iMISS:          0  dACCESS:          0  dHIT:          0  dMISS:          0  itACCESS:          0  itHIT:          0  itMISS:          0  dtACCESS:          0  dtHIT:          0  dtMISS:          0
cpu0_DTLB PREFETCH     ACCESS:          0  HIT:          0  MISS:          0  iACCESS:          0  iHIT:          0  iMISS:          0  dACCESS:          0  dHIT:          0  dMISS:          0  itACCESS:          0  itHIT:          0  itMISS:          0  dtACCESS:          0  dtHIT:          0  dtMISS:          0
cpu0_DTLB WRITE        ACCESS:          0  HIT:          0  MISS:          0  iACCESS:          0  iHIT:          0  iMISS:          0  dACCESS:          0  dHIT:          0  dMISS:          0  itACCESS:          0  itHIT:          0  itMISS:          0  dtACCESS:          0  dtHIT:          0  dtMISS:          0
cpu0_DTLB TRANSLATION  ACCESS:          0  HIT:          0  MISS:          0  iACCESS:          0  iHIT:          0  iMISS:          0  dACCESS:          0  dHIT:          0  dMISS:          0  itACCESS:          0  itHIT:          0  itMISS:          0  dtACCESS:          0  dtHIT:          0  dtMISS:          0
cpu0_DTLB PREFETCH  REQUESTED:          0  ISSUED:          0  CROSSED:          0  USEFUL:          0  USELESS:          0
cpu0_DTLB AVERAGE iMISS LATENCY: 0 cycles
cpu0_DTLB AVERAGE dMISS LATENCY: 25.7845 cycles
cpu0_DTLB AVERAGE itMISS LATENCY: 0 cycles
cpu0_DTLB AVERAGE dtMISS LATENCY: 0 cycles
cpu0_DTLB PAGE CROSSINGS (TLB HIT):         0 
cpu0_DTLB PAGE CROSSINGS (TLB MISS):         0 
cpu0_DTLB AVERAGE MISS LATENCY: 25.7845 cycles
cpu0_STLB TOTAL       ACCESS:    2562917  HIT:    2186990  MISS:     375927  iACCESS:     480471  iHIT:     368489  iMISS:     111982  dACCESS:    2082446  dHIT:    1818501  dMISS:     263945  itACCESS:          0  itHIT:          0  itMISS:          0  dtACCESS:          0  dtHIT:          0  dtMISS:          0
cpu0_STLB LOAD         ACCESS:    2562917  HIT:    2186990  MISS:     375927  iACCESS:     480471  iHIT:     368489  iMISS:     111982  dACCESS:    2082446  dHIT:    1818501  dMISS:     263945  itACCESS:          0  itHIT:          0  itMISS:          0  dtACCESS:          0  dtHIT:          0  dtMISS:          0
cpu0_STLB RFO          ACCESS:          0  HIT:          0  MISS:          0  iACCESS:          0  iHIT:          0  iMISS:          0  dACCESS:          0  dHIT:          0  dMISS:          0  itACCESS:          0  itHIT:          0  itMISS:          0  dtACCESS:          0  dtHIT:          0  dtMISS:          0
cpu0_STLB PREFETCH     ACCESS:          0  HIT:          0  MISS:          0  iACCESS:          0  iHIT:          0  iMISS:          0  dACCESS:          0  dHIT:          0  dMISS:          0  itACCESS:          0  itHIT:          0  itMISS:          0  dtACCESS:          0  dtHIT:          0  dtMISS:          0
cpu0_STLB WRITE        ACCESS:          0  HIT:          0  MISS:          0  iACCESS:          0  iHIT:          0  iMISS:          0  dACCESS:          0  dHIT:          0  dMISS:          0  itACCESS:          0  itHIT:          0  itMISS:          0  dtACCESS:          0  dtHIT:          0  dtMISS:          0
cpu0_STLB TRANSLATION  ACCESS:          0  HIT:          0  MISS:          0  iACCESS:          0  iHIT:          0  iMISS:          0  dACCESS:          0  dHIT:          0  dMISS:          0  itACCESS:          0  itHIT:          0  itMISS:          0  dtACCESS:          0  dtHIT:          0  dtMISS:          0
cpu0_STLB PREFETCH  REQUESTED:          0  ISSUED:          0  CROSSED:          0  USEFUL:          0  USELESS:          0
cpu0_STLB AVERAGE iMISS LATENCY: 53.009 cycles
cpu0_STLB AVERAGE dMISS LATENCY: 200.134 cycles
cpu0_STLB AVERAGE itMISS LATENCY: 0 cycles
cpu0_STLB AVERAGE dtMISS LATENCY: 0 cycles
cpu0_STLB PAGE CROSSINGS (TLB HIT):         0 
cpu0_STLB PAGE CROSSINGS (TLB MISS):         0 
cpu0_STLB AVERAGE MISS LATENCY: 253.143 cycles
cpu0_L1D TOTAL       ACCESS:   45117410  HIT:   39232981  MISS:    5884429  iACCESS:          0  iHIT:          0  iMISS:          0  dACCESS:   44556142  dHIT:   39201454  dMISS:    5354688  itACCESS:     127011  itHIT:      13039  itMISS:     113972  dtACCESS:     434257  dtHIT:      18488  dtMISS:     415769
cpu0_L1D LOAD         ACCESS:   20372660  HIT:   17971362  MISS:    2401298  iACCESS:          0  iHIT:          0  iMISS:          0  dACCESS:   20372660  dHIT:   17971362  dMISS:    2401298  itACCESS:          0  itHIT:          0  itMISS:          0  dtACCESS:          0  dtHIT:          0  dtMISS:          0
cpu0_L1D RFO          ACCESS:          0  HIT:          0  MISS:          0  iACCESS:          0  iHIT:          0  iMISS:          0  dACCESS:          0  dHIT:          0  dMISS:          0  itACCESS:          0  itHIT:          0  itMISS:          0  dtACCESS:          0  dtHIT:          0  dtMISS:          0
cpu0_L1D PREFETCH     ACCESS:   14012445  HIT:   11639799  MISS:    2372646  iACCESS:          0  iHIT:          0  iMISS:          0  dACCESS:   14012445  dHIT:   11639799  dMISS:    2372646  itACCESS:          0  itHIT:          0  itMISS:          0  dtACCESS:          0  dtHIT:          0  dtMISS:          0
cpu0_L1D WRITE        ACCESS:   10171037  HIT:    9590293  MISS:     580744  iACCESS:          0  iHIT:          0  iMISS:          0  dACCESS:   10171037  dHIT:    9590293  dMISS:     580744  itACCESS:          0  itHIT:          0  itMISS:          0  dtACCESS:          0  dtHIT:          0  dtMISS:          0
cpu0_L1D TRANSLATION  ACCESS:     561268  HIT:      31527  MISS:     529741  iACCESS:          0  iHIT:          0  iMISS:          0  dACCESS:          0  dHIT:          0  dMISS:          0  itACCESS:     127011  itHIT:      13039  itMISS:     113972  dtACCESS:     434257  dtHIT:      18488  dtMISS:     415769
cpu0_L1D PREFETCH  REQUESTED:   20372660  ISSUED:   18555046  CROSSED:          0  USEFUL:     361551  USELESS:     939972
cpu0_L1D AVERAGE iMISS LATENCY: 0 cycles
cpu0_L1D AVERAGE dMISS LATENCY: 49.6002 cycles
cpu0_L1D AVERAGE itMISS LATENCY: 3.19156 cycles
cpu0_L1D AVERAGE dtMISS LATENCY: 11.9656 cycles
cpu0_L1D PAGE CROSSINGS (TLB HIT):         0 
cpu0_L1D PAGE CROSSINGS (TLB MISS):         0 
cpu0_L1D AVERAGE MISS LATENCY: 64.7573 cycles
cpu0_L2C TOTAL       ACCESS:    8702409  HIT:    4304237  MISS:    4398172  iACCESS:    3853426  iHIT:    2390949  iMISS:    1462477  dACCESS:    4359100  dHIT:    1857469  dMISS:    2501631  itACCESS:     112696  itHIT:      17412  itMISS:      95284  dtACCESS:     377187  dtHIT:      38407  dtMISS:     338780
cpu0_L2C LOAD         ACCESS:    2095224  HIT:    1042689  MISS:    1052535  iACCESS:     874769  iHIT:     566935  iMISS:     307834  dACCESS:    1220455  dHIT:     475754  dMISS:     744701  itACCESS:          0  itHIT:          0  itMISS:          0  dtACCESS:          0  dtHIT:          0  dtMISS:          0
cpu0_L2C RFO          ACCESS:     216986  HIT:      82323  MISS:     134663  iACCESS:          0  iHIT:          0  iMISS:          0  dACCESS:     216986  dHIT:      82323  dMISS:     134663  itACCESS:          0  itHIT:          0  itMISS:          0  dtACCESS:          0  dtHIT:          0  dtMISS:          0
cpu0_L2C PREFETCH     ACCESS:    5558064  HIT:    2784633  MISS:    2773431  iACCESS:    2978657  iHIT:    1824014  iMISS:    1154643  dACCESS:    2579407  dHIT:     960619  dMISS:    1618788  itACCESS:          0  itHIT:          0  itMISS:          0  dtACCESS:          0  dtHIT:          0  dtMISS:          0
cpu0_L2C WRITE        ACCESS:     342252  HIT:     338773  MISS:       3479  iACCESS:          0  iHIT:          0  iMISS:          0  dACCESS:     342252  dHIT:     338773  dMISS:       3479  itACCESS:          0  itHIT:          0  itMISS:          0  dtACCESS:          0  dtHIT:          0  dtMISS:          0
cpu0_L2C TRANSLATION  ACCESS:     489883  HIT:      55819  MISS:     434064  iACCESS:          0  iHIT:          0  iMISS:          0  dACCESS:          0  dHIT:          0  dMISS:          0  itACCESS:     112696  itHIT:      17412  itMISS:      95284  dtACCESS:     377187  dtHIT:      38407  dtMISS:     338780
cpu0_L2C PREFETCH  REQUESTED:    1533278  ISSUED:    1533272  CROSSED:          0  USEFUL:     355374  USELESS:     311221
cpu0_L2C AVERAGE iMISS LATENCY: 38.171 cycles
cpu0_L2C AVERAGE dMISS LATENCY: 80.4097 cycles
cpu0_L2C AVERAGE itMISS LATENCY: 4.01701 cycles
cpu0_L2C AVERAGE dtMISS LATENCY: 15.1551 cycles
cpu0_L2C PAGE CROSSINGS (TLB HIT):         0 
cpu0_L2C PAGE CROSSINGS (TLB MISS):         0 
cpu0_L2C AVERAGE MISS LATENCY: 137.753 cycles
LLC TOTAL       ACCESS:    4405317  HIT:    1386570  MISS:    3018747  iACCESS:    1378468  iHIT:     481096  iMISS:     897372  dACCESS:    2592785  dHIT:     866630  dMISS:    1726155  itACCESS:      95284  itHIT:       6563  itMISS:      88721  dtACCESS:     338780  dtHIT:      32281  dtMISS:     306499
LLC LOAD         ACCESS:    1045180  HIT:     335109  MISS:     710071  iACCESS:     306784  iHIT:     114517  iMISS:     192267  dACCESS:     738396  dHIT:     220592  dMISS:     517804  itACCESS:          0  itHIT:          0  itMISS:          0  dtACCESS:          0  dtHIT:          0  dtMISS:          0
LLC RFO          ACCESS:     134659  HIT:      40799  MISS:      93860  iACCESS:          0  iHIT:          0  iMISS:          0  dACCESS:     134659  dHIT:      40799  dMISS:      93860  itACCESS:          0  itHIT:          0  itMISS:          0  dtACCESS:          0  dtHIT:          0  dtMISS:          0
LLC PREFETCH     ACCESS:    2581469  HIT:     771575  MISS:    1809894  iACCESS:    1071684  iHIT:     366579  iMISS:     705105  dACCESS:    1509785  dHIT:     404996  dMISS:    1104789  itACCESS:          0  itHIT:          0  itMISS:          0  dtACCESS:          0  dtHIT:          0  dtMISS:          0
LLC WRITE        ACCESS:     209945  HIT:     200243  MISS:       9702  iACCESS:          0  iHIT:          0  iMISS:          0  dACCESS:     209945  dHIT:     200243  dMISS:       9702  itACCESS:          0  itHIT:          0  itMISS:          0  dtACCESS:          0  dtHIT:          0  dtMISS:          0
LLC TRANSLATION  ACCESS:     434064  HIT:      38844  MISS:     395220  iACCESS:          0  iHIT:          0  iMISS:          0  dACCESS:          0  dHIT:          0  dMISS:          0  itACCESS:      95284  itHIT:       6563  itMISS:      88721  dtACCESS:     338780  dtHIT:      32281  dtMISS:     306499
LLC PREFETCH  REQUESTED:          0  ISSUED:          0  CROSSED:          0  USEFUL:          0  USELESS:          0
LLC AVERAGE iMISS LATENCY: 46.6356 cycles
LLC AVERAGE dMISS LATENCY: 102.546 cycles
LLC AVERAGE itMISS LATENCY: 5.22631 cycles
LLC AVERAGE dtMISS LATENCY: 19.8609 cycles
LLC PAGE CROSSINGS (TLB HIT):         0 
LLC PAGE CROSSINGS (TLB MISS):         0 
LLC AVERAGE MISS LATENCY: 174.269 cycles

PageTableWalker TOTAL       ACCESS:     180435  
PageTableWalker AVERAGE LATENCY: 6.52982 cycles
PageTableWalker TOTAL LATENCY: 1178208 cycles

DRAM Statistics
Channel 0
 RQ ROW_BUFFER_HIT:     635258
  ROW_BUFFER_MISS:    2354297
 AVG DBUS CONGESTED CYCLE:    3.64861
 WQ ROW_BUFFER_HIT:      65781
  ROW_BUFFER_MISS:      55452  FULL:          0

