last_page:0x200000000000000
VMEM_RES_CAP:0x100000
PAGE_SIZE:4096
LOG2_PAGE_SIZE:12
LOG2_PAGE_TABLE_SIZE:9
page_table_levels:5
WARNING: physical memory size is smaller than virtual memory size
FDiP enabled with aggresivity 16

*** ChampSim Multicore Out-of-Order Simulator ***

Warmup Instructions: 50000000
Simulation Instructions: 100000000
Number of CPUs: 1
Small page size: 4096
Large page size: 2097152

CPU 0 Bimodal branch predictor
Basic BTB sets: 1024 ways: 8 indirect buffer size: 4096 RAS size: 64
Instruction page size distrubution: 0
Loading instruction page size distribution from /home/bsc/bsc018186/scratch/itp_asplos25_AE/dump/smt_srv85_ap_srv194_ap_1024i.pdst
Data page size distrubution: 0
Loading data page size distribution from /home/bsc/bsc018186/scratch/itp_asplos25_AE/dump/smt_srv85_ap_srv194_ap_1024i.pdst
cpu0_L2C IP-based stride prefetcher
cpu0_L2C is using PTP replacement policy:
	TLB_STRESS_THRESHOLD:0
	PTE_EVICTION_RATIO:0
cpu0_L1D next line prefetcher
cpu0_STLB using iTP with max lru@8
cpu0_STLB using iTP with instr@0 and data@2
Init sat counter with 3 bits (max:50).
cpu0_L1I next line prefetcher
Off-chip DRAM Size: 4 GiB Channels: 1 Width: 64-bit Data Rate: 3200 MT/s
Heartbeat CPU 0 instructions: 10000002 cycles: 2500232 heartbeat IPC: 3.99963 cumulative IPC: 3.99963 (Simulation time: 0 hr 0 min 36 sec) 
Heartbeat CPU 0 instructions: 20000001 cycles: 5000455 heartbeat IPC: 3.99965 cumulative IPC: 3.99964 (Simulation time: 0 hr 1 min 15 sec) 
Heartbeat CPU 0 instructions: 30000001 cycles: 7500586 heartbeat IPC: 3.9998 cumulative IPC: 3.99969 (Simulation time: 0 hr 1 min 54 sec) 
Heartbeat CPU 0 instructions: 40000003 cycles: 10001206 heartbeat IPC: 3.99901 cumulative IPC: 3.99952 (Simulation time: 0 hr 2 min 33 sec) 
Heartbeat CPU 0 instructions: 50000003 cycles: 12576195 heartbeat IPC: 3.88352 cumulative IPC: 3.97577 (Simulation time: 0 hr 3 min 11 sec) 
Warmup finished CPU 0 instructions: 50000003 cycles: 12576196 cumulative IPC: 3.97577 (Simulation time: 0 hr 3 min 11 sec) 

Warmup complete CPU 0 instructions: 50000003 cycles: 12576196 (Simulation time: 0 hr 3 min 11 sec) 

Heartbeat CPU 0 instructions: 60000004 cycles: 28575052 heartbeat IPC: 0.625045 cumulative IPC: 0.625045 (Simulation time: 0 hr 4 min 16 sec) 
Heartbeat CPU 0 instructions: 70000002 cycles: 50053914 heartbeat IPC: 0.465574 cumulative IPC: 0.533651 (Simulation time: 0 hr 5 min 27 sec) 
Heartbeat CPU 0 instructions: 80000002 cycles: 81700568 heartbeat IPC: 0.31599 cumulative IPC: 0.434001 (Simulation time: 0 hr 6 min 51 sec) 
Heartbeat CPU 0 instructions: 90000002 cycles: 113281471 heartbeat IPC: 0.316648 cumulative IPC: 0.397199 (Simulation time: 0 hr 8 min 15 sec) 
Heartbeat CPU 0 instructions: 100000000 cycles: 145242448 heartbeat IPC: 0.312882 cumulative IPC: 0.376886 (Simulation time: 0 hr 9 min 39 sec) 
Heartbeat CPU 0 instructions: 110000000 cycles: 176237585 heartbeat IPC: 0.322632 cumulative IPC: 0.366611 (Simulation time: 0 hr 11 min 2 sec) 
Heartbeat CPU 0 instructions: 120000003 cycles: 208743544 heartbeat IPC: 0.307636 cumulative IPC: 0.356839 (Simulation time: 0 hr 12 min 28 sec) 
Heartbeat CPU 0 instructions: 130000001 cycles: 241418879 heartbeat IPC: 0.306042 cumulative IPC: 0.349586 (Simulation time: 0 hr 13 min 53 sec) 
Heartbeat CPU 0 instructions: 140000002 cycles: 273682590 heartbeat IPC: 0.309946 cumulative IPC: 0.344688 (Simulation time: 0 hr 15 min 17 sec) 
Heartbeat CPU 0 instructions: 150000000 cycles: 306651662 heartbeat IPC: 0.303315 cumulative IPC: 0.340049 (Simulation time: 0 hr 16 min 43 sec) 
Simulation finished CPU 0 instructions: 100000002 cycles: 294075468 cumulative IPC: 0.340049 (Simulation time: 0 hr 16 min 43 sec) 

Simulation complete CPU 0 instructions: 100000002 cycles: 294075468 (Simulation time: 0 hr 16 min 43 sec) 


ChampSim completed all CPUs

Saving instructions large page distribution to /home/bsc/bsc018186/scratch/itp_asplos25_AE/dump/smt_srv85_ap_srv194_ap_1024i.pdst...
Saving data large page distribution to /home/bsc/bsc018186/scratch/itp_asplos25_AE/dump/smt_srv85_ap_srv194_ap_1024i.pdst...
=== Simulation ===
CPU 0 runs /gpfs/projects/bsc18/MN4/bsc18/romol/ChampSim/traces/qualcomm_srv/smt_srv85_ap_srv194_ap_1024i.champsimtrace.xz

Region of Interest Statistics

CPU 0 cumulative IPC: 0.340049 instructions: 100000002 cycles: 294075468
CPU 0 Branch Prediction Accuracy: 76.7098% MPKI: 44.3237 Average ROB Occupancy at Mispredict: 10.733
Branch type MPKI
BRANCH_DIRECT_JUMP: 1.39153
BRANCH_INDIRECT: 23.3942
BRANCH_CONDITIONAL: 12.3325
BRANCH_DIRECT_CALL: 2.62712
BRANCH_INDIRECT_CALL: 1.11229
BRANCH_RETURN: 3.46614

Instructions large pages: 0
Instructions small pages: 11317
Large page distribution for instructions: 0%

Data large pages: 0
Data small pages: 9525
Large page distribution for data: 0%

cpu0_L1I TOTAL       ACCESS:   39866839  HIT:   31525265  MISS:    8341574  iACCESS:   39866839  iHIT:   31525265  iMISS:    8341574  dACCESS:          0  dHIT:          0  dMISS:          0  itACCESS:          0  itHIT:          0  itMISS:          0  dtACCESS:          0  dtHIT:          0  dtMISS:          0
cpu0_L1I LOAD         ACCESS:   11474824  HIT:    9194070  MISS:    2280754  iACCESS:   11474824  iHIT:    9194070  iMISS:    2280754  dACCESS:          0  dHIT:          0  dMISS:          0  itACCESS:          0  itHIT:          0  itMISS:          0  dtACCESS:          0  dtHIT:          0  dtMISS:          0
cpu0_L1I RFO          ACCESS:          0  HIT:          0  MISS:          0  iACCESS:          0  iHIT:          0  iMISS:          0  dACCESS:          0  dHIT:          0  dMISS:          0  itACCESS:          0  itHIT:          0  itMISS:          0  dtACCESS:          0  dtHIT:          0  dtMISS:          0
cpu0_L1I PREFETCH     ACCESS:   28392015  HIT:   22331195  MISS:    6060820  iACCESS:   28392015  iHIT:   22331195  iMISS:    6060820  dACCESS:          0  dHIT:          0  dMISS:          0  itACCESS:          0  itHIT:          0  itMISS:          0  dtACCESS:          0  dtHIT:          0  dtMISS:          0
cpu0_L1I WRITE        ACCESS:          0  HIT:          0  MISS:          0  iACCESS:          0  iHIT:          0  iMISS:          0  dACCESS:          0  dHIT:          0  dMISS:          0  itACCESS:          0  itHIT:          0  itMISS:          0  dtACCESS:          0  dtHIT:          0  dtMISS:          0
cpu0_L1I TRANSLATION  ACCESS:          0  HIT:          0  MISS:          0  iACCESS:          0  iHIT:          0  iMISS:          0  dACCESS:          0  dHIT:          0  dMISS:          0  itACCESS:          0  itHIT:          0  itMISS:          0  dtACCESS:          0  dtHIT:          0  dtMISS:          0
cpu0_L1I PREFETCH  REQUESTED:   31030224  ISSUED:   31030045  CROSSED:          0  USEFUL:    2095245  USELESS:     751815
cpu0_L1I AVERAGE iMISS LATENCY: 25.1539 cycles
cpu0_L1I AVERAGE dMISS LATENCY: 0 cycles
cpu0_L1I AVERAGE itMISS LATENCY: 0 cycles
cpu0_L1I AVERAGE dtMISS LATENCY: 0 cycles
cpu0_L1I PAGE CROSSINGS (TLB HIT):         0 
cpu0_L1I PAGE CROSSINGS (TLB MISS):         0 
cpu0_L1I AVERAGE MISS LATENCY: 25.1539 cycles
cpu0_ITLB TOTAL       ACCESS:   33729667  HIT:   31562048  MISS:    2167619  iACCESS:   33729667  iHIT:   31562048  iMISS:    2167619  dACCESS:          0  dHIT:          0  dMISS:          0  itACCESS:          0  itHIT:          0  itMISS:          0  dtACCESS:          0  dtHIT:          0  dtMISS:          0
cpu0_ITLB LOAD         ACCESS:   33729667  HIT:   31562048  MISS:    2167619  iACCESS:   33729667  iHIT:   31562048  iMISS:    2167619  dACCESS:          0  dHIT:          0  dMISS:          0  itACCESS:          0  itHIT:          0  itMISS:          0  dtACCESS:          0  dtHIT:          0  dtMISS:          0
cpu0_ITLB RFO          ACCESS:          0  HIT:          0  MISS:          0  iACCESS:          0  iHIT:          0  iMISS:          0  dACCESS:          0  dHIT:          0  dMISS:          0  itACCESS:          0  itHIT:          0  itMISS:          0  dtACCESS:          0  dtHIT:          0  dtMISS:          0
cpu0_ITLB PREFETCH     ACCESS:          0  HIT:          0  MISS:          0  iACCESS:          0  iHIT:          0  iMISS:          0  dACCESS:          0  dHIT:          0  dMISS:          0  itACCESS:          0  itHIT:          0  itMISS:          0  dtACCESS:          0  dtHIT:          0  dtMISS:          0
cpu0_ITLB WRITE        ACCESS:          0  HIT:          0  MISS:          0  iACCESS:          0  iHIT:          0  iMISS:          0  dACCESS:          0  dHIT:          0  dMISS:          0  itACCESS:          0  itHIT:          0  itMISS:          0  dtACCESS:          0  dtHIT:          0  dtMISS:          0
cpu0_ITLB TRANSLATION  ACCESS:          0  HIT:          0  MISS:          0  iACCESS:          0  iHIT:          0  iMISS:          0  dACCESS:          0  dHIT:          0  dMISS:          0  itACCESS:          0  itHIT:          0  itMISS:          0  dtACCESS:          0  dtHIT:          0  dtMISS:          0
cpu0_ITLB PREFETCH  REQUESTED:          0  ISSUED:          0  CROSSED:          0  USEFUL:     380757  USELESS:      82445
cpu0_ITLB AVERAGE iMISS LATENCY: 6.9548 cycles
cpu0_ITLB AVERAGE dMISS LATENCY: 0 cycles
cpu0_ITLB AVERAGE itMISS LATENCY: 0 cycles
cpu0_ITLB AVERAGE dtMISS LATENCY: 0 cycles
cpu0_ITLB PAGE CROSSINGS (TLB HIT):         0 
cpu0_ITLB PAGE CROSSINGS (TLB MISS):         0 
cpu0_ITLB AVERAGE MISS LATENCY: 6.9548 cycles
cpu0_DTLB TOTAL       ACCESS:   30347013  HIT:   25079666  MISS:    5267347  iACCESS:          0  iHIT:          0  iMISS:          0  dACCESS:   30347013  dHIT:   25079666  dMISS:    5267347  itACCESS:          0  itHIT:          0  itMISS:          0  dtACCESS:          0  dtHIT:          0  dtMISS:          0
cpu0_DTLB LOAD         ACCESS:   30347013  HIT:   25079666  MISS:    5267347  iACCESS:          0  iHIT:          0  iMISS:          0  dACCESS:   30347013  dHIT:   25079666  dMISS:    5267347  itACCESS:          0  itHIT:          0  itMISS:          0  dtACCESS:          0  dtHIT:          0  dtMISS:          0
cpu0_DTLB RFO          ACCESS:          0  HIT:          0  MISS:          0  iACCESS:          0  iHIT:          0  iMISS:          0  dACCESS:          0  dHIT:          0  dMISS:          0  itACCESS:          0  itHIT:          0  itMISS:          0  dtACCESS:          0  dtHIT:          0  dtMISS:          0
cpu0_DTLB PREFETCH     ACCESS:          0  HIT:          0  MISS:          0  iACCESS:          0  iHIT:          0  iMISS:          0  dACCESS:          0  dHIT:          0  dMISS:          0  itACCESS:          0  itHIT:          0  itMISS:          0  dtACCESS:          0  dtHIT:          0  dtMISS:          0
cpu0_DTLB WRITE        ACCESS:          0  HIT:          0  MISS:          0  iACCESS:          0  iHIT:          0  iMISS:          0  dACCESS:          0  dHIT:          0  dMISS:          0  itACCESS:          0  itHIT:          0  itMISS:          0  dtACCESS:          0  dtHIT:          0  dtMISS:          0
cpu0_DTLB TRANSLATION  ACCESS:          0  HIT:          0  MISS:          0  iACCESS:          0  iHIT:          0  iMISS:          0  dACCESS:          0  dHIT:          0  dMISS:          0  itACCESS:          0  itHIT:          0  itMISS:          0  dtACCESS:          0  dtHIT:          0  dtMISS:          0
cpu0_DTLB PREFETCH  REQUESTED:          0  ISSUED:          0  CROSSED:          0  USEFUL:          0  USELESS:          0
cpu0_DTLB AVERAGE iMISS LATENCY: 0 cycles
cpu0_DTLB AVERAGE dMISS LATENCY: 19.0049 cycles
cpu0_DTLB AVERAGE itMISS LATENCY: 0 cycles
cpu0_DTLB AVERAGE dtMISS LATENCY: 0 cycles
cpu0_DTLB PAGE CROSSINGS (TLB HIT):         0 
cpu0_DTLB PAGE CROSSINGS (TLB MISS):         0 
cpu0_DTLB AVERAGE MISS LATENCY: 19.0049 cycles
cpu0_STLB TOTAL       ACCESS:    3332973  HIT:    2975689  MISS:     357284  iACCESS:     463203  iHIT:     403191  iMISS:      60012  dACCESS:    2869770  dHIT:    2572498  dMISS:     297272  itACCESS:          0  itHIT:          0  itMISS:          0  dtACCESS:          0  dtHIT:          0  dtMISS:          0
cpu0_STLB LOAD         ACCESS:    3332973  HIT:    2975689  MISS:     357284  iACCESS:     463203  iHIT:     403191  iMISS:      60012  dACCESS:    2869770  dHIT:    2572498  dMISS:     297272  itACCESS:          0  itHIT:          0  itMISS:          0  dtACCESS:          0  dtHIT:          0  dtMISS:          0
cpu0_STLB RFO          ACCESS:          0  HIT:          0  MISS:          0  iACCESS:          0  iHIT:          0  iMISS:          0  dACCESS:          0  dHIT:          0  dMISS:          0  itACCESS:          0  itHIT:          0  itMISS:          0  dtACCESS:          0  dtHIT:          0  dtMISS:          0
cpu0_STLB PREFETCH     ACCESS:          0  HIT:          0  MISS:          0  iACCESS:          0  iHIT:          0  iMISS:          0  dACCESS:          0  dHIT:          0  dMISS:          0  itACCESS:          0  itHIT:          0  itMISS:          0  dtACCESS:          0  dtHIT:          0  dtMISS:          0
cpu0_STLB WRITE        ACCESS:          0  HIT:          0  MISS:          0  iACCESS:          0  iHIT:          0  iMISS:          0  dACCESS:          0  dHIT:          0  dMISS:          0  itACCESS:          0  itHIT:          0  itMISS:          0  dtACCESS:          0  dtHIT:          0  dtMISS:          0
cpu0_STLB TRANSLATION  ACCESS:          0  HIT:          0  MISS:          0  iACCESS:          0  iHIT:          0  iMISS:          0  dACCESS:          0  dHIT:          0  dMISS:          0  itACCESS:          0  itHIT:          0  itMISS:          0  dtACCESS:          0  dtHIT:          0  dtMISS:          0
cpu0_STLB PREFETCH  REQUESTED:          0  ISSUED:          0  CROSSED:          0  USEFUL:          0  USELESS:          0
cpu0_STLB AVERAGE iMISS LATENCY: 31.9915 cycles
cpu0_STLB AVERAGE dMISS LATENCY: 215.111 cycles
cpu0_STLB AVERAGE itMISS LATENCY: 0 cycles
cpu0_STLB AVERAGE dtMISS LATENCY: 0 cycles
cpu0_STLB PAGE CROSSINGS (TLB HIT):         0 
cpu0_STLB PAGE CROSSINGS (TLB MISS):         0 
cpu0_STLB AVERAGE MISS LATENCY: 247.102 cycles
cpu0_L1D TOTAL       ACCESS:   47257324  HIT:   39760699  MISS:    7496625  iACCESS:          0  iHIT:          0  iMISS:          0  dACCESS:   46713916  dHIT:   39734032  dMISS:    6979884  itACCESS:      71002  itHIT:       5253  itMISS:      65749  dtACCESS:     472406  dtHIT:      21414  dtMISS:     450992
cpu0_L1D LOAD         ACCESS:   21975252  HIT:   18264576  MISS:    3710676  iACCESS:          0  iHIT:          0  iMISS:          0  dACCESS:   21975252  dHIT:   18264576  dMISS:    3710676  itACCESS:          0  itHIT:          0  itMISS:          0  dtACCESS:          0  dtHIT:          0  dtMISS:          0
cpu0_L1D RFO          ACCESS:          0  HIT:          0  MISS:          0  iACCESS:          0  iHIT:          0  iMISS:          0  dACCESS:          0  dHIT:          0  dMISS:          0  itACCESS:          0  itHIT:          0  itMISS:          0  dtACCESS:          0  dtHIT:          0  dtMISS:          0
cpu0_L1D PREFETCH     ACCESS:   14680716  HIT:   12036522  MISS:    2644194  iACCESS:          0  iHIT:          0  iMISS:          0  dACCESS:   14680716  dHIT:   12036522  dMISS:    2644194  itACCESS:          0  itHIT:          0  itMISS:          0  dtACCESS:          0  dtHIT:          0  dtMISS:          0
cpu0_L1D WRITE        ACCESS:   10057948  HIT:    9432934  MISS:     625014  iACCESS:          0  iHIT:          0  iMISS:          0  dACCESS:   10057948  dHIT:    9432934  dMISS:     625014  itACCESS:          0  itHIT:          0  itMISS:          0  dtACCESS:          0  dtHIT:          0  dtMISS:          0
cpu0_L1D TRANSLATION  ACCESS:     543408  HIT:      26667  MISS:     516741  iACCESS:          0  iHIT:          0  iMISS:          0  dACCESS:          0  dHIT:          0  dMISS:          0  itACCESS:      71002  itHIT:       5253  itMISS:      65749  dtACCESS:     472406  dtHIT:      21414  dtMISS:     450992
cpu0_L1D PREFETCH  REQUESTED:   21975252  ISSUED:   18876069  CROSSED:          0  USEFUL:     332839  USELESS:    1052366
cpu0_L1D AVERAGE iMISS LATENCY: 0 cycles
cpu0_L1D AVERAGE dMISS LATENCY: 39.1437 cycles
cpu0_L1D AVERAGE itMISS LATENCY: 1.44221 cycles
cpu0_L1D AVERAGE dtMISS LATENCY: 9.60113 cycles
cpu0_L1D PAGE CROSSINGS (TLB HIT):         0 
cpu0_L1D PAGE CROSSINGS (TLB MISS):         0 
cpu0_L1D AVERAGE MISS LATENCY: 50.1871 cycles
cpu0_L2C TOTAL       ACCESS:    9629204  HIT:    4951712  MISS:    4677492  iACCESS:    3630791  iHIT:    2007390  iMISS:    1623401  dACCESS:    5510692  dHIT:    2870568  dMISS:    2640124  itACCESS:      65286  itHIT:       9437  itMISS:      55849  dtACCESS:     422435  dtHIT:      64317  dtMISS:     358118
cpu0_L2C LOAD         ACCESS:    3166865  HIT:    1981858  MISS:    1185007  iACCESS:     816112  iHIT:     464992  iMISS:     351120  dACCESS:    2350753  dHIT:    1516866  dMISS:     833887  itACCESS:          0  itHIT:          0  itMISS:          0  dtACCESS:          0  dtHIT:          0  dtMISS:          0
cpu0_L2C RFO          ACCESS:     240181  HIT:      94041  MISS:     146140  iACCESS:          0  iHIT:          0  iMISS:          0  dACCESS:     240181  dHIT:      94041  dMISS:     146140  itACCESS:          0  itHIT:          0  itMISS:          0  dtACCESS:          0  dtHIT:          0  dtMISS:          0
cpu0_L2C PREFETCH     ACCESS:    5398226  HIT:    2504050  MISS:    2894176  iACCESS:    2814679  iHIT:    1542398  iMISS:    1272281  dACCESS:    2583547  dHIT:     961652  dMISS:    1621895  itACCESS:          0  itHIT:          0  itMISS:          0  dtACCESS:          0  dtHIT:          0  dtMISS:          0
cpu0_L2C WRITE        ACCESS:     336211  HIT:     298009  MISS:      38202  iACCESS:          0  iHIT:          0  iMISS:          0  dACCESS:     336211  dHIT:     298009  dMISS:      38202  itACCESS:          0  itHIT:          0  itMISS:          0  dtACCESS:          0  dtHIT:          0  dtMISS:          0
cpu0_L2C TRANSLATION  ACCESS:     487721  HIT:      73754  MISS:     413967  iACCESS:          0  iHIT:          0  iMISS:          0  dACCESS:          0  dHIT:          0  dMISS:          0  itACCESS:      65286  itHIT:       9437  itMISS:      55849  dtACCESS:     422435  dtHIT:      64317  dtMISS:     358118
cpu0_L2C PREFETCH  REQUESTED:    1417291  ISSUED:    1417279  CROSSED:          0  USEFUL:     330349  USELESS:     323079
cpu0_L2C AVERAGE iMISS LATENCY: 38.4972 cycles
cpu0_L2C AVERAGE dMISS LATENCY: 72.894 cycles
cpu0_L2C AVERAGE itMISS LATENCY: 2.17345 cycles
cpu0_L2C AVERAGE dtMISS LATENCY: 14.4932 cycles
cpu0_L2C PAGE CROSSINGS (TLB HIT):         0 
cpu0_L2C PAGE CROSSINGS (TLB MISS):         0 
cpu0_L2C AVERAGE MISS LATENCY: 128.058 cycles
LLC TOTAL       ACCESS:    4648852  HIT:    1686491  MISS:    2962361  iACCESS:    1542276  iHIT:     605024  iMISS:     937252  dACCESS:    2692609  dHIT:    1030994  dMISS:    1661615  itACCESS:      55849  itHIT:       5076  itMISS:      50773  dtACCESS:     358118  dtHIT:      45397  dtMISS:     312721
LLC LOAD         ACCESS:    1177343  HIT:     490123  MISS:     687220  iACCESS:     349971  iHIT:     153198  iMISS:     196773  dACCESS:     827372  dHIT:     336925  dMISS:     490447  itACCESS:          0  itHIT:          0  itMISS:          0  dtACCESS:          0  dtHIT:          0  dtMISS:          0
LLC RFO          ACCESS:     146136  HIT:      54903  MISS:      91233  iACCESS:          0  iHIT:          0  iMISS:          0  dACCESS:     146136  dHIT:      54903  dMISS:      91233  itACCESS:          0  itHIT:          0  itMISS:          0  dtACCESS:          0  dtHIT:          0  dtMISS:          0
LLC PREFETCH     ACCESS:    2702768  HIT:     890577  MISS:    1812191  iACCESS:    1192305  iHIT:     451826  iMISS:     740479  dACCESS:    1510463  dHIT:     438751  dMISS:    1071712  itACCESS:          0  itHIT:          0  itMISS:          0  dtACCESS:          0  dtHIT:          0  dtMISS:          0
LLC WRITE        ACCESS:     208638  HIT:     200415  MISS:       8223  iACCESS:          0  iHIT:          0  iMISS:          0  dACCESS:     208638  dHIT:     200415  dMISS:       8223  itACCESS:          0  itHIT:          0  itMISS:          0  dtACCESS:          0  dtHIT:          0  dtMISS:          0
LLC TRANSLATION  ACCESS:     413967  HIT:      50473  MISS:     363494  iACCESS:          0  iHIT:          0  iMISS:          0  dACCESS:          0  dHIT:          0  dMISS:          0  itACCESS:      55849  itHIT:       5076  itMISS:      50773  dtACCESS:     358118  dtHIT:      45397  dtMISS:     312721
LLC PREFETCH  REQUESTED:          0  ISSUED:          0  CROSSED:          0  USEFUL:          0  USELESS:          0
LLC AVERAGE iMISS LATENCY: 50.565 cycles
LLC AVERAGE dMISS LATENCY: 99.4633 cycles
LLC AVERAGE itMISS LATENCY: 3.05816 cycles
LLC AVERAGE dtMISS LATENCY: 20.4957 cycles
LLC PAGE CROSSINGS (TLB HIT):         0 
LLC PAGE CROSSINGS (TLB MISS):         0 
LLC AVERAGE MISS LATENCY: 173.582 cycles

PageTableWalker TOTAL       ACCESS:     177705  
PageTableWalker AVERAGE LATENCY: 6.66356 cycles
PageTableWalker TOTAL LATENCY: 1184147 cycles

DRAM Statistics
Channel 0
 RQ ROW_BUFFER_HIT:     617009
  ROW_BUFFER_MISS:    2320084
 AVG DBUS CONGESTED CYCLE:    3.65073
 WQ ROW_BUFFER_HIT:      64156
  ROW_BUFFER_MISS:      56189  FULL:          0

