last_page:0x200000000000000
VMEM_RES_CAP:0x100000
PAGE_SIZE:4096
LOG2_PAGE_SIZE:12
LOG2_PAGE_TABLE_SIZE:9
page_table_levels:5
WARNING: physical memory size is smaller than virtual memory size
FDiP enabled with aggresivity 16

*** ChampSim Multicore Out-of-Order Simulator ***

Warmup Instructions: 50000000
Simulation Instructions: 100000000
Number of CPUs: 1
Small page size: 4096
Large page size: 2097152

CPU 0 Bimodal branch predictor
Basic BTB sets: 1024 ways: 8 indirect buffer size: 4096 RAS size: 64
Instruction page size distrubution: 0
Loading instruction page size distribution from /home/bsc/bsc018186/scratch/itp_asplos25_AE/dump/smt_srv12_ap_srv298_ap_1024i.pdst
Data page size distrubution: 0
Loading data page size distribution from /home/bsc/bsc018186/scratch/itp_asplos25_AE/dump/smt_srv12_ap_srv298_ap_1024i.pdst
cpu0_L2C IP-based stride prefetcher
cpu0_L2C is using PTP replacement policy:
	TLB_STRESS_THRESHOLD:0
	PTE_EVICTION_RATIO:0
cpu0_L1D next line prefetcher
cpu0_STLB using iTP with max lru@8
cpu0_STLB using iTP with instr@0 and data@2
Init sat counter with 3 bits (max:50).
cpu0_L1I next line prefetcher
Off-chip DRAM Size: 4 GiB Channels: 1 Width: 64-bit Data Rate: 3200 MT/s
Heartbeat CPU 0 instructions: 10000003 cycles: 2500343 heartbeat IPC: 3.99946 cumulative IPC: 3.99946 (Simulation time: 0 hr 0 min 47 sec) 
Heartbeat CPU 0 instructions: 20000001 cycles: 5000391 heartbeat IPC: 3.99993 cumulative IPC: 3.99969 (Simulation time: 0 hr 1 min 34 sec) 
Heartbeat CPU 0 instructions: 30000003 cycles: 7501133 heartbeat IPC: 3.99882 cumulative IPC: 3.9994 (Simulation time: 0 hr 2 min 22 sec) 
Heartbeat CPU 0 instructions: 40000003 cycles: 10001184 heartbeat IPC: 3.99992 cumulative IPC: 3.99953 (Simulation time: 0 hr 3 min 11 sec) 
Heartbeat CPU 0 instructions: 50000001 cycles: 12501300 heartbeat IPC: 3.99982 cumulative IPC: 3.99959 (Simulation time: 0 hr 4 min 0 sec) 
Warmup finished CPU 0 instructions: 50000001 cycles: 12501301 cumulative IPC: 3.99959 (Simulation time: 0 hr 4 min 0 sec) 

Warmup complete CPU 0 instructions: 50000001 cycles: 12501301 (Simulation time: 0 hr 4 min 0 sec) 

Heartbeat CPU 0 instructions: 60000003 cycles: 41759593 heartbeat IPC: 0.341784 cumulative IPC: 0.341784 (Simulation time: 0 hr 5 min 42 sec) 
Heartbeat CPU 0 instructions: 70000001 cycles: 70761607 heartbeat IPC: 0.344804 cumulative IPC: 0.343287 (Simulation time: 0 hr 7 min 27 sec) 
Heartbeat CPU 0 instructions: 80000001 cycles: 99447151 heartbeat IPC: 0.348608 cumulative IPC: 0.345043 (Simulation time: 0 hr 9 min 11 sec) 
Heartbeat CPU 0 instructions: 90000000 cycles: 125367608 heartbeat IPC: 0.385796 cumulative IPC: 0.354402 (Simulation time: 0 hr 10 min 47 sec) 
Heartbeat CPU 0 instructions: 100000000 cycles: 154029453 heartbeat IPC: 0.348896 cumulative IPC: 0.353287 (Simulation time: 0 hr 12 min 29 sec) 
Heartbeat CPU 0 instructions: 110000003 cycles: 183199761 heartbeat IPC: 0.342815 cumulative IPC: 0.351498 (Simulation time: 0 hr 14 min 6 sec) 
Heartbeat CPU 0 instructions: 120000000 cycles: 211209419 heartbeat IPC: 0.35702 cumulative IPC: 0.352276 (Simulation time: 0 hr 15 min 36 sec) 
Heartbeat CPU 0 instructions: 130000003 cycles: 241445351 heartbeat IPC: 0.330733 cumulative IPC: 0.349431 (Simulation time: 0 hr 16 min 59 sec) 
Heartbeat CPU 0 instructions: 140000000 cycles: 271271273 heartbeat IPC: 0.335279 cumulative IPC: 0.3478 (Simulation time: 0 hr 18 min 21 sec) 
Heartbeat CPU 0 instructions: 150000002 cycles: 301452707 heartbeat IPC: 0.33133 cumulative IPC: 0.346079 (Simulation time: 0 hr 19 min 44 sec) 
Simulation finished CPU 0 instructions: 100000001 cycles: 288951407 cumulative IPC: 0.346079 (Simulation time: 0 hr 19 min 44 sec) 

Simulation complete CPU 0 instructions: 100000001 cycles: 288951407 (Simulation time: 0 hr 19 min 44 sec) 


ChampSim completed all CPUs

Saving instructions large page distribution to /home/bsc/bsc018186/scratch/itp_asplos25_AE/dump/smt_srv12_ap_srv298_ap_1024i.pdst...
Saving data large page distribution to /home/bsc/bsc018186/scratch/itp_asplos25_AE/dump/smt_srv12_ap_srv298_ap_1024i.pdst...
=== Simulation ===
CPU 0 runs /gpfs/projects/bsc18/MN4/bsc18/romol/ChampSim/traces/qualcomm_srv/smt_srv12_ap_srv298_ap_1024i.champsimtrace.xz

Region of Interest Statistics

CPU 0 cumulative IPC: 0.346079 instructions: 100000001 cycles: 288951407
CPU 0 Branch Prediction Accuracy: 75.6528% MPKI: 44.0521 Average ROB Occupancy at Mispredict: 11.2679
Branch type MPKI
BRANCH_DIRECT_JUMP: 1.33331
BRANCH_INDIRECT: 22.7363
BRANCH_CONDITIONAL: 12.9124
BRANCH_DIRECT_CALL: 2.56733
BRANCH_INDIRECT_CALL: 1.0555
BRANCH_RETURN: 3.44725

Instructions large pages: 0
Instructions small pages: 14944
Large page distribution for instructions: 0%

Data large pages: 0
Data small pages: 13231
Large page distribution for data: 0%

cpu0_L1I TOTAL       ACCESS:   38980835  HIT:   30317534  MISS:    8663301  iACCESS:   38980835  iHIT:   30317534  iMISS:    8663301  dACCESS:          0  dHIT:          0  dMISS:          0  itACCESS:          0  itHIT:          0  itMISS:          0  dtACCESS:          0  dtHIT:          0  dtMISS:          0
cpu0_L1I LOAD         ACCESS:   11630200  HIT:    9265925  MISS:    2364275  iACCESS:   11630200  iHIT:    9265925  iMISS:    2364275  dACCESS:          0  dHIT:          0  dMISS:          0  itACCESS:          0  itHIT:          0  itMISS:          0  dtACCESS:          0  dtHIT:          0  dtMISS:          0
cpu0_L1I RFO          ACCESS:          0  HIT:          0  MISS:          0  iACCESS:          0  iHIT:          0  iMISS:          0  dACCESS:          0  dHIT:          0  dMISS:          0  itACCESS:          0  itHIT:          0  itMISS:          0  dtACCESS:          0  dtHIT:          0  dtMISS:          0
cpu0_L1I PREFETCH     ACCESS:   27350635  HIT:   21051609  MISS:    6299026  iACCESS:   27350635  iHIT:   21051609  iMISS:    6299026  dACCESS:          0  dHIT:          0  dMISS:          0  itACCESS:          0  itHIT:          0  itMISS:          0  dtACCESS:          0  dtHIT:          0  dtMISS:          0
cpu0_L1I WRITE        ACCESS:          0  HIT:          0  MISS:          0  iACCESS:          0  iHIT:          0  iMISS:          0  dACCESS:          0  dHIT:          0  dMISS:          0  itACCESS:          0  itHIT:          0  itMISS:          0  dtACCESS:          0  dtHIT:          0  dtMISS:          0
cpu0_L1I TRANSLATION  ACCESS:          0  HIT:          0  MISS:          0  iACCESS:          0  iHIT:          0  iMISS:          0  dACCESS:          0  dHIT:          0  dMISS:          0  itACCESS:          0  itHIT:          0  itMISS:          0  dtACCESS:          0  dtHIT:          0  dtMISS:          0
cpu0_L1I PREFETCH  REQUESTED:   30136106  ISSUED:   30136082  CROSSED:          0  USEFUL:    2190619  USELESS:     758922
cpu0_L1I AVERAGE iMISS LATENCY: 23.7473 cycles
cpu0_L1I AVERAGE dMISS LATENCY: 0 cycles
cpu0_L1I AVERAGE itMISS LATENCY: 0 cycles
cpu0_L1I AVERAGE dtMISS LATENCY: 0 cycles
cpu0_L1I PAGE CROSSINGS (TLB HIT):         0 
cpu0_L1I PAGE CROSSINGS (TLB MISS):         0 
cpu0_L1I AVERAGE MISS LATENCY: 23.7473 cycles
cpu0_ITLB TOTAL       ACCESS:   32985068  HIT:   30789555  MISS:    2195513  iACCESS:   32985068  iHIT:   30789555  iMISS:    2195513  dACCESS:          0  dHIT:          0  dMISS:          0  itACCESS:          0  itHIT:          0  itMISS:          0  dtACCESS:          0  dtHIT:          0  dtMISS:          0
cpu0_ITLB LOAD         ACCESS:   32985068  HIT:   30789555  MISS:    2195513  iACCESS:   32985068  iHIT:   30789555  iMISS:    2195513  dACCESS:          0  dHIT:          0  dMISS:          0  itACCESS:          0  itHIT:          0  itMISS:          0  dtACCESS:          0  dtHIT:          0  dtMISS:          0
cpu0_ITLB RFO          ACCESS:          0  HIT:          0  MISS:          0  iACCESS:          0  iHIT:          0  iMISS:          0  dACCESS:          0  dHIT:          0  dMISS:          0  itACCESS:          0  itHIT:          0  itMISS:          0  dtACCESS:          0  dtHIT:          0  dtMISS:          0
cpu0_ITLB PREFETCH     ACCESS:          0  HIT:          0  MISS:          0  iACCESS:          0  iHIT:          0  iMISS:          0  dACCESS:          0  dHIT:          0  dMISS:          0  itACCESS:          0  itHIT:          0  itMISS:          0  dtACCESS:          0  dtHIT:          0  dtMISS:          0
cpu0_ITLB WRITE        ACCESS:          0  HIT:          0  MISS:          0  iACCESS:          0  iHIT:          0  iMISS:          0  dACCESS:          0  dHIT:          0  dMISS:          0  itACCESS:          0  itHIT:          0  itMISS:          0  dtACCESS:          0  dtHIT:          0  dtMISS:          0
cpu0_ITLB TRANSLATION  ACCESS:          0  HIT:          0  MISS:          0  iACCESS:          0  iHIT:          0  iMISS:          0  dACCESS:          0  dHIT:          0  dMISS:          0  itACCESS:          0  itHIT:          0  itMISS:          0  dtACCESS:          0  dtHIT:          0  dtMISS:          0
cpu0_ITLB PREFETCH  REQUESTED:          0  ISSUED:          0  CROSSED:          0  USEFUL:     387044  USELESS:      77589
cpu0_ITLB AVERAGE iMISS LATENCY: 6.4826 cycles
cpu0_ITLB AVERAGE dMISS LATENCY: 0 cycles
cpu0_ITLB AVERAGE itMISS LATENCY: 0 cycles
cpu0_ITLB AVERAGE dtMISS LATENCY: 0 cycles
cpu0_ITLB PAGE CROSSINGS (TLB HIT):         0 
cpu0_ITLB PAGE CROSSINGS (TLB MISS):         0 
cpu0_ITLB AVERAGE MISS LATENCY: 6.4826 cycles
cpu0_DTLB TOTAL       ACCESS:   28890409  HIT:   25264376  MISS:    3626033  iACCESS:          0  iHIT:          0  iMISS:          0  dACCESS:   28890409  dHIT:   25264376  dMISS:    3626033  itACCESS:          0  itHIT:          0  itMISS:          0  dtACCESS:          0  dtHIT:          0  dtMISS:          0
cpu0_DTLB LOAD         ACCESS:   28890409  HIT:   25264376  MISS:    3626033  iACCESS:          0  iHIT:          0  iMISS:          0  dACCESS:   28890409  dHIT:   25264376  dMISS:    3626033  itACCESS:          0  itHIT:          0  itMISS:          0  dtACCESS:          0  dtHIT:          0  dtMISS:          0
cpu0_DTLB RFO          ACCESS:          0  HIT:          0  MISS:          0  iACCESS:          0  iHIT:          0  iMISS:          0  dACCESS:          0  dHIT:          0  dMISS:          0  itACCESS:          0  itHIT:          0  itMISS:          0  dtACCESS:          0  dtHIT:          0  dtMISS:          0
cpu0_DTLB PREFETCH     ACCESS:          0  HIT:          0  MISS:          0  iACCESS:          0  iHIT:          0  iMISS:          0  dACCESS:          0  dHIT:          0  dMISS:          0  itACCESS:          0  itHIT:          0  itMISS:          0  dtACCESS:          0  dtHIT:          0  dtMISS:          0
cpu0_DTLB WRITE        ACCESS:          0  HIT:          0  MISS:          0  iACCESS:          0  iHIT:          0  iMISS:          0  dACCESS:          0  dHIT:          0  dMISS:          0  itACCESS:          0  itHIT:          0  itMISS:          0  dtACCESS:          0  dtHIT:          0  dtMISS:          0
cpu0_DTLB TRANSLATION  ACCESS:          0  HIT:          0  MISS:          0  iACCESS:          0  iHIT:          0  iMISS:          0  dACCESS:          0  dHIT:          0  dMISS:          0  itACCESS:          0  itHIT:          0  itMISS:          0  dtACCESS:          0  dtHIT:          0  dtMISS:          0
cpu0_DTLB PREFETCH  REQUESTED:          0  ISSUED:          0  CROSSED:          0  USEFUL:          0  USELESS:          0
cpu0_DTLB AVERAGE iMISS LATENCY: 0 cycles
cpu0_DTLB AVERAGE dMISS LATENCY: 26.3729 cycles
cpu0_DTLB AVERAGE itMISS LATENCY: 0 cycles
cpu0_DTLB AVERAGE dtMISS LATENCY: 0 cycles
cpu0_DTLB PAGE CROSSINGS (TLB HIT):         0 
cpu0_DTLB PAGE CROSSINGS (TLB MISS):         0 
cpu0_DTLB AVERAGE MISS LATENCY: 26.3729 cycles
cpu0_STLB TOTAL       ACCESS:    2559951  HIT:    2204615  MISS:     355336  iACCESS:     464638  iHIT:     409549  iMISS:      55089  dACCESS:    2095313  dHIT:    1795066  dMISS:     300247  itACCESS:          0  itHIT:          0  itMISS:          0  dtACCESS:          0  dtHIT:          0  dtMISS:          0
cpu0_STLB LOAD         ACCESS:    2559951  HIT:    2204615  MISS:     355336  iACCESS:     464638  iHIT:     409549  iMISS:      55089  dACCESS:    2095313  dHIT:    1795066  dMISS:     300247  itACCESS:          0  itHIT:          0  itMISS:          0  dtACCESS:          0  dtHIT:          0  dtMISS:          0
cpu0_STLB RFO          ACCESS:          0  HIT:          0  MISS:          0  iACCESS:          0  iHIT:          0  iMISS:          0  dACCESS:          0  dHIT:          0  dMISS:          0  itACCESS:          0  itHIT:          0  itMISS:          0  dtACCESS:          0  dtHIT:          0  dtMISS:          0
cpu0_STLB PREFETCH     ACCESS:          0  HIT:          0  MISS:          0  iACCESS:          0  iHIT:          0  iMISS:          0  dACCESS:          0  dHIT:          0  dMISS:          0  itACCESS:          0  itHIT:          0  itMISS:          0  dtACCESS:          0  dtHIT:          0  dtMISS:          0
cpu0_STLB WRITE        ACCESS:          0  HIT:          0  MISS:          0  iACCESS:          0  iHIT:          0  iMISS:          0  dACCESS:          0  dHIT:          0  dMISS:          0  itACCESS:          0  itHIT:          0  itMISS:          0  dtACCESS:          0  dtHIT:          0  dtMISS:          0
cpu0_STLB TRANSLATION  ACCESS:          0  HIT:          0  MISS:          0  iACCESS:          0  iHIT:          0  iMISS:          0  dACCESS:          0  dHIT:          0  dMISS:          0  itACCESS:          0  itHIT:          0  itMISS:          0  dtACCESS:          0  dtHIT:          0  dtMISS:          0
cpu0_STLB PREFETCH  REQUESTED:          0  ISSUED:          0  CROSSED:          0  USEFUL:          0  USELESS:          0
cpu0_STLB AVERAGE iMISS LATENCY: 29.7795 cycles
cpu0_STLB AVERAGE dMISS LATENCY: 221.54 cycles
cpu0_STLB AVERAGE itMISS LATENCY: 0 cycles
cpu0_STLB AVERAGE dtMISS LATENCY: 0 cycles
cpu0_STLB PAGE CROSSINGS (TLB HIT):         0 
cpu0_STLB PAGE CROSSINGS (TLB MISS):         0 
cpu0_STLB AVERAGE MISS LATENCY: 251.319 cycles
cpu0_L1D TOTAL       ACCESS:   44523602  HIT:   39161048  MISS:    5362554  iACCESS:          0  iHIT:          0  iMISS:          0  dACCESS:   43967945  dHIT:   39131792  dMISS:    4836153  itACCESS:      65663  itHIT:       5733  itMISS:      59930  dtACCESS:     489994  dtHIT:      23523  dtMISS:     466471
cpu0_L1D LOAD         ACCESS:   20078620  HIT:   17922432  MISS:    2156188  iACCESS:          0  iHIT:          0  iMISS:          0  dACCESS:   20078620  dHIT:   17922432  dMISS:    2156188  itACCESS:          0  itHIT:          0  itMISS:          0  dtACCESS:          0  dtHIT:          0  dtMISS:          0
cpu0_L1D RFO          ACCESS:          0  HIT:          0  MISS:          0  iACCESS:          0  iHIT:          0  iMISS:          0  dACCESS:          0  dHIT:          0  dMISS:          0  itACCESS:          0  itHIT:          0  itMISS:          0  dtACCESS:          0  dtHIT:          0  dtMISS:          0
cpu0_L1D PREFETCH     ACCESS:   13702729  HIT:   11580651  MISS:    2122078  iACCESS:          0  iHIT:          0  iMISS:          0  dACCESS:   13702729  dHIT:   11580651  dMISS:    2122078  itACCESS:          0  itHIT:          0  itMISS:          0  dtACCESS:          0  dtHIT:          0  dtMISS:          0
cpu0_L1D WRITE        ACCESS:   10186596  HIT:    9628709  MISS:     557887  iACCESS:          0  iHIT:          0  iMISS:          0  dACCESS:   10186596  dHIT:    9628709  dMISS:     557887  itACCESS:          0  itHIT:          0  itMISS:          0  dtACCESS:          0  dtHIT:          0  dtMISS:          0
cpu0_L1D TRANSLATION  ACCESS:     555657  HIT:      29256  MISS:     526401  iACCESS:          0  iHIT:          0  iMISS:          0  dACCESS:          0  dHIT:          0  dMISS:          0  itACCESS:      65663  itHIT:       5733  itMISS:      59930  dtACCESS:     489994  dtHIT:      23523  dtMISS:     466471
cpu0_L1D PREFETCH  REQUESTED:   20078620  ISSUED:   18388766  CROSSED:          0  USEFUL:     359120  USELESS:     929730
cpu0_L1D AVERAGE iMISS LATENCY: 0 cycles
cpu0_L1D AVERAGE dMISS LATENCY: 49.953 cycles
cpu0_L1D AVERAGE itMISS LATENCY: 1.84991 cycles
cpu0_L1D AVERAGE dtMISS LATENCY: 13.5557 cycles
cpu0_L1D PAGE CROSSINGS (TLB HIT):         0 
cpu0_L1D PAGE CROSSINGS (TLB MISS):         0 
cpu0_L1D AVERAGE MISS LATENCY: 65.3585 cycles
cpu0_L2C TOTAL       ACCESS:    8543986  HIT:    4023835  MISS:    4520151  iACCESS:    3751099  iHIT:    2194554  iMISS:    1556545  dACCESS:    4300500  dHIT:    1755375  dMISS:    2545125  itACCESS:      59252  itHIT:       8444  itMISS:      50808  dtACCESS:     433135  dtHIT:      65462  dtMISS:     367673
cpu0_L2C LOAD         ACCESS:    2042259  HIT:     951907  MISS:    1090352  iACCESS:     839840  iHIT:     505224  iMISS:     334616  dACCESS:    1202419  dHIT:     446683  dMISS:     755736  itACCESS:          0  itHIT:          0  itMISS:          0  dtACCESS:          0  dtHIT:          0  dtMISS:          0
cpu0_L2C RFO          ACCESS:     209298  HIT:      77726  MISS:     131572  iACCESS:          0  iHIT:          0  iMISS:          0  dACCESS:     209298  dHIT:      77726  dMISS:     131572  itACCESS:          0  itHIT:          0  itMISS:          0  dtACCESS:          0  dtHIT:          0  dtMISS:          0
cpu0_L2C PREFETCH     ACCESS:    5455187  HIT:    2599220  MISS:    2855967  iACCESS:    2911259  iHIT:    1689330  iMISS:    1221929  dACCESS:    2543928  dHIT:     909890  dMISS:    1634038  itACCESS:          0  itHIT:          0  itMISS:          0  dtACCESS:          0  dtHIT:          0  dtMISS:          0
cpu0_L2C WRITE        ACCESS:     344855  HIT:     321076  MISS:      23779  iACCESS:          0  iHIT:          0  iMISS:          0  dACCESS:     344855  dHIT:     321076  dMISS:      23779  itACCESS:          0  itHIT:          0  itMISS:          0  dtACCESS:          0  dtHIT:          0  dtMISS:          0
cpu0_L2C TRANSLATION  ACCESS:     492387  HIT:      73906  MISS:     418481  iACCESS:          0  iHIT:          0  iMISS:          0  dACCESS:          0  dHIT:          0  dMISS:          0  itACCESS:      59252  itHIT:       8444  itMISS:      50808  dtACCESS:     433135  dtHIT:      65462  dtMISS:     367673
cpu0_L2C PREFETCH  REQUESTED:    1494112  ISSUED:    1494112  CROSSED:          0  USEFUL:     354206  USELESS:     327091
cpu0_L2C AVERAGE iMISS LATENCY: 38.5276 cycles
cpu0_L2C AVERAGE dMISS LATENCY: 73.8472 cycles
cpu0_L2C AVERAGE itMISS LATENCY: 2.06509 cycles
cpu0_L2C AVERAGE dtMISS LATENCY: 15.1328 cycles
cpu0_L2C PAGE CROSSINGS (TLB HIT):         0 
cpu0_L2C PAGE CROSSINGS (TLB MISS):         0 
cpu0_L2C AVERAGE MISS LATENCY: 129.573 cycles
LLC TOTAL       ACCESS:    4505791  HIT:    1579392  MISS:    2926399  iACCESS:    1467190  iHIT:     544957  iMISS:     922233  dACCESS:    2620120  dHIT:     979713  dMISS:    1640407  itACCESS:      50808  itHIT:       4333  itMISS:      46475  dtACCESS:     367673  dtHIT:      50389  dtMISS:     317284
LLC LOAD         ACCESS:    1085531  HIT:     420696  MISS:     664835  iACCESS:     333461  iHIT:     140547  iMISS:     192914  dACCESS:     752070  dHIT:     280149  dMISS:     471921  itACCESS:          0  itHIT:          0  itMISS:          0  dtACCESS:          0  dtHIT:          0  dtMISS:          0
LLC RFO          ACCESS:     131571  HIT:      46951  MISS:      84620  iACCESS:          0  iHIT:          0  iMISS:          0  dACCESS:     131571  dHIT:      46951  dMISS:      84620  itACCESS:          0  itHIT:          0  itMISS:          0  dtACCESS:          0  dtHIT:          0  dtMISS:          0
LLC PREFETCH     ACCESS:    2655150  HIT:     851377  MISS:    1803773  iACCESS:    1133729  iHIT:     404410  iMISS:     729319  dACCESS:    1521421  dHIT:     446967  dMISS:    1074454  itACCESS:          0  itHIT:          0  itMISS:          0  dtACCESS:          0  dtHIT:          0  dtMISS:          0
LLC WRITE        ACCESS:     215058  HIT:     205646  MISS:       9412  iACCESS:          0  iHIT:          0  iMISS:          0  dACCESS:     215058  dHIT:     205646  dMISS:       9412  itACCESS:          0  itHIT:          0  itMISS:          0  dtACCESS:          0  dtHIT:          0  dtMISS:          0
LLC TRANSLATION  ACCESS:     418481  HIT:      54722  MISS:     363759  iACCESS:          0  iHIT:          0  iMISS:          0  dACCESS:          0  dHIT:          0  dMISS:          0  itACCESS:      50808  itHIT:       4333  itMISS:      46475  dtACCESS:     367673  dtHIT:      50389  dtMISS:     317284
LLC PREFETCH  REQUESTED:          0  ISSUED:          0  CROSSED:          0  USEFUL:          0  USELESS:          0
LLC AVERAGE iMISS LATENCY: 49.6608 cycles
LLC AVERAGE dMISS LATENCY: 98.5229 cycles
LLC AVERAGE itMISS LATENCY: 2.84572 cycles
LLC AVERAGE dtMISS LATENCY: 20.8926 cycles
LLC PAGE CROSSINGS (TLB HIT):         0 
LLC PAGE CROSSINGS (TLB MISS):         0 
LLC AVERAGE MISS LATENCY: 171.922 cycles

PageTableWalker TOTAL       ACCESS:     170662  
PageTableWalker AVERAGE LATENCY: 6.69095 cycles
PageTableWalker TOTAL LATENCY: 1141890 cycles

DRAM Statistics
Channel 0
 RQ ROW_BUFFER_HIT:     641564
  ROW_BUFFER_MISS:    2265886
 AVG DBUS CONGESTED CYCLE:    3.64663
 WQ ROW_BUFFER_HIT:      63371
  ROW_BUFFER_MISS:      52136  FULL:          0

