last_page:0x200000000000000
VMEM_RES_CAP:0x100000
PAGE_SIZE:4096
LOG2_PAGE_SIZE:12
LOG2_PAGE_TABLE_SIZE:9
page_table_levels:5
WARNING: physical memory size is smaller than virtual memory size
FDiP enabled with aggresivity 16

*** ChampSim Multicore Out-of-Order Simulator ***

Warmup Instructions: 50000000
Simulation Instructions: 100000000
Number of CPUs: 1
Small page size: 4096
Large page size: 2097152

CPU 0 Bimodal branch predictor
Basic BTB sets: 1024 ways: 8 indirect buffer size: 4096 RAS size: 64
Instruction page size distrubution: 0
Loading instruction page size distribution from /home/bsc/bsc018186/scratch/itp_asplos25_AE/dump/smt_srv537_ap_srv551_ap_1024i.pdst
Data page size distrubution: 0
Loading data page size distribution from /home/bsc/bsc018186/scratch/itp_asplos25_AE/dump/smt_srv537_ap_srv551_ap_1024i.pdst
cpu0_L2C IP-based stride prefetcher
cpu0_L1D next line prefetcher
CHiRPing...
cpu0_L1I next line prefetcher
Off-chip DRAM Size: 4 GiB Channels: 1 Width: 64-bit Data Rate: 3200 MT/s
Heartbeat CPU 0 instructions: 10000001 cycles: 2500708 heartbeat IPC: 3.99887 cumulative IPC: 3.99887 (Simulation time: 0 hr 0 min 39 sec) 
Heartbeat CPU 0 instructions: 20000000 cycles: 5001063 heartbeat IPC: 3.99944 cumulative IPC: 3.99915 (Simulation time: 0 hr 1 min 21 sec) 
Heartbeat CPU 0 instructions: 30000002 cycles: 7501371 heartbeat IPC: 3.99951 cumulative IPC: 3.99927 (Simulation time: 0 hr 2 min 3 sec) 
Heartbeat CPU 0 instructions: 40000001 cycles: 10001731 heartbeat IPC: 3.99943 cumulative IPC: 3.99931 (Simulation time: 0 hr 2 min 45 sec) 
Heartbeat CPU 0 instructions: 50000000 cycles: 12502040 heartbeat IPC: 3.99951 cumulative IPC: 3.99935 (Simulation time: 0 hr 3 min 29 sec) 
Warmup finished CPU 0 instructions: 50000000 cycles: 12502041 cumulative IPC: 3.99935 (Simulation time: 0 hr 3 min 29 sec) 

Warmup complete CPU 0 instructions: 50000000 cycles: 12502041 (Simulation time: 0 hr 3 min 29 sec) 

Heartbeat CPU 0 instructions: 60000000 cycles: 40471587 heartbeat IPC: 0.357532 cumulative IPC: 0.357532 (Simulation time: 0 hr 4 min 57 sec) 
Heartbeat CPU 0 instructions: 70000001 cycles: 69469133 heartbeat IPC: 0.344857 cumulative IPC: 0.35108 (Simulation time: 0 hr 6 min 23 sec) 
Heartbeat CPU 0 instructions: 80000000 cycles: 97320711 heartbeat IPC: 0.359047 cumulative IPC: 0.353696 (Simulation time: 0 hr 7 min 48 sec) 
Heartbeat CPU 0 instructions: 90000000 cycles: 124887360 heartbeat IPC: 0.362758 cumulative IPC: 0.355919 (Simulation time: 0 hr 9 min 12 sec) 
Heartbeat CPU 0 instructions: 100000003 cycles: 152939962 heartbeat IPC: 0.356474 cumulative IPC: 0.35603 (Simulation time: 0 hr 10 min 37 sec) 
Heartbeat CPU 0 instructions: 110000000 cycles: 180809930 heartbeat IPC: 0.35881 cumulative IPC: 0.35649 (Simulation time: 0 hr 12 min 2 sec) 
Heartbeat CPU 0 instructions: 120000000 cycles: 204576207 heartbeat IPC: 0.420765 cumulative IPC: 0.364443 (Simulation time: 0 hr 13 min 23 sec) 
Heartbeat CPU 0 instructions: 130000000 cycles: 220605560 heartbeat IPC: 0.623856 cumulative IPC: 0.384425 (Simulation time: 0 hr 14 min 36 sec) 
Heartbeat CPU 0 instructions: 140000000 cycles: 237983375 heartbeat IPC: 0.575447 cumulative IPC: 0.399147 (Simulation time: 0 hr 15 min 50 sec) 
Heartbeat CPU 0 instructions: 150000002 cycles: 266491573 heartbeat IPC: 0.350777 cumulative IPC: 0.393718 (Simulation time: 0 hr 17 min 15 sec) 
Simulation finished CPU 0 instructions: 100000002 cycles: 253989533 cumulative IPC: 0.393718 (Simulation time: 0 hr 17 min 15 sec) 

Simulation complete CPU 0 instructions: 100000002 cycles: 253989533 (Simulation time: 0 hr 17 min 15 sec) 


ChampSim completed all CPUs

Saving instructions large page distribution to /home/bsc/bsc018186/scratch/itp_asplos25_AE/dump/smt_srv537_ap_srv551_ap_1024i.pdst...
Saving data large page distribution to /home/bsc/bsc018186/scratch/itp_asplos25_AE/dump/smt_srv537_ap_srv551_ap_1024i.pdst...
=== Simulation ===
CPU 0 runs /gpfs/projects/bsc18/MN4/bsc18/romol/ChampSim/traces/qualcomm_srv/smt_srv537_ap_srv551_ap_1024i.champsimtrace.xz

Region of Interest Statistics

CPU 0 cumulative IPC: 0.393718 instructions: 100000002 cycles: 253989533
CPU 0 Branch Prediction Accuracy: 77.9643% MPKI: 42.5818 Average ROB Occupancy at Mispredict: 11.2579
Branch type MPKI
BRANCH_DIRECT_JUMP: 1.24462
BRANCH_INDIRECT: 22.852
BRANCH_CONDITIONAL: 11.7124
BRANCH_DIRECT_CALL: 2.38076
BRANCH_INDIRECT_CALL: 1.08293
BRANCH_RETURN: 3.30916

Instructions large pages: 0
Instructions small pages: 10737
Large page distribution for instructions: 0%

Data large pages: 0
Data small pages: 9299
Large page distribution for data: 0%

cpu0_L1I TOTAL       ACCESS:   40297814  HIT:   32115151  MISS:    8182663  iACCESS:   40297814  iHIT:   32115151  iMISS:    8182663  dACCESS:          0  dHIT:          0  dMISS:          0  itACCESS:          0  itHIT:          0  itMISS:          0  dtACCESS:          0  dtHIT:          0  dtMISS:          0
cpu0_L1I LOAD         ACCESS:   11534781  HIT:    9314738  MISS:    2220043  iACCESS:   11534781  iHIT:    9314738  iMISS:    2220043  dACCESS:          0  dHIT:          0  dMISS:          0  itACCESS:          0  itHIT:          0  itMISS:          0  dtACCESS:          0  dtHIT:          0  dtMISS:          0
cpu0_L1I RFO          ACCESS:          0  HIT:          0  MISS:          0  iACCESS:          0  iHIT:          0  iMISS:          0  dACCESS:          0  dHIT:          0  dMISS:          0  itACCESS:          0  itHIT:          0  itMISS:          0  dtACCESS:          0  dtHIT:          0  dtMISS:          0
cpu0_L1I PREFETCH     ACCESS:   28763033  HIT:   22800413  MISS:    5962620  iACCESS:   28763033  iHIT:   22800413  iMISS:    5962620  dACCESS:          0  dHIT:          0  dMISS:          0  itACCESS:          0  itHIT:          0  itMISS:          0  dtACCESS:          0  dtHIT:          0  dtMISS:          0
cpu0_L1I WRITE        ACCESS:          0  HIT:          0  MISS:          0  iACCESS:          0  iHIT:          0  iMISS:          0  dACCESS:          0  dHIT:          0  dMISS:          0  itACCESS:          0  itHIT:          0  itMISS:          0  dtACCESS:          0  dtHIT:          0  dtMISS:          0
cpu0_L1I TRANSLATION  ACCESS:          0  HIT:          0  MISS:          0  iACCESS:          0  iHIT:          0  iMISS:          0  dACCESS:          0  dHIT:          0  dMISS:          0  itACCESS:          0  itHIT:          0  itMISS:          0  dtACCESS:          0  dtHIT:          0  dtMISS:          0
cpu0_L1I PREFETCH  REQUESTED:   31332095  ISSUED:   31330874  CROSSED:          0  USEFUL:    1982359  USELESS:     684164
cpu0_L1I AVERAGE iMISS LATENCY: 23.8527 cycles
cpu0_L1I AVERAGE dMISS LATENCY: 0 cycles
cpu0_L1I AVERAGE itMISS LATENCY: 0 cycles
cpu0_L1I AVERAGE dtMISS LATENCY: 0 cycles
cpu0_L1I PAGE CROSSINGS (TLB HIT):         0 
cpu0_L1I PAGE CROSSINGS (TLB MISS):         0 
cpu0_L1I AVERAGE MISS LATENCY: 23.8527 cycles
cpu0_ITLB TOTAL       ACCESS:   33699735  HIT:   31713285  MISS:    1986450  iACCESS:   33699735  iHIT:   31713285  iMISS:    1986450  dACCESS:          0  dHIT:          0  dMISS:          0  itACCESS:          0  itHIT:          0  itMISS:          0  dtACCESS:          0  dtHIT:          0  dtMISS:          0
cpu0_ITLB LOAD         ACCESS:   33699735  HIT:   31713285  MISS:    1986450  iACCESS:   33699735  iHIT:   31713285  iMISS:    1986450  dACCESS:          0  dHIT:          0  dMISS:          0  itACCESS:          0  itHIT:          0  itMISS:          0  dtACCESS:          0  dtHIT:          0  dtMISS:          0
cpu0_ITLB RFO          ACCESS:          0  HIT:          0  MISS:          0  iACCESS:          0  iHIT:          0  iMISS:          0  dACCESS:          0  dHIT:          0  dMISS:          0  itACCESS:          0  itHIT:          0  itMISS:          0  dtACCESS:          0  dtHIT:          0  dtMISS:          0
cpu0_ITLB PREFETCH     ACCESS:          0  HIT:          0  MISS:          0  iACCESS:          0  iHIT:          0  iMISS:          0  dACCESS:          0  dHIT:          0  dMISS:          0  itACCESS:          0  itHIT:          0  itMISS:          0  dtACCESS:          0  dtHIT:          0  dtMISS:          0
cpu0_ITLB WRITE        ACCESS:          0  HIT:          0  MISS:          0  iACCESS:          0  iHIT:          0  iMISS:          0  dACCESS:          0  dHIT:          0  dMISS:          0  itACCESS:          0  itHIT:          0  itMISS:          0  dtACCESS:          0  dtHIT:          0  dtMISS:          0
cpu0_ITLB TRANSLATION  ACCESS:          0  HIT:          0  MISS:          0  iACCESS:          0  iHIT:          0  iMISS:          0  dACCESS:          0  dHIT:          0  dMISS:          0  itACCESS:          0  itHIT:          0  itMISS:          0  dtACCESS:          0  dtHIT:          0  dtMISS:          0
cpu0_ITLB PREFETCH  REQUESTED:          0  ISSUED:          0  CROSSED:          0  USEFUL:     349346  USELESS:      70941
cpu0_ITLB AVERAGE iMISS LATENCY: 7.62591 cycles
cpu0_ITLB AVERAGE dMISS LATENCY: 0 cycles
cpu0_ITLB AVERAGE itMISS LATENCY: 0 cycles
cpu0_ITLB AVERAGE dtMISS LATENCY: 0 cycles
cpu0_ITLB PAGE CROSSINGS (TLB HIT):         0 
cpu0_ITLB PAGE CROSSINGS (TLB MISS):         0 
cpu0_ITLB AVERAGE MISS LATENCY: 7.62591 cycles
cpu0_DTLB TOTAL       ACCESS:   30781770  HIT:   24899388  MISS:    5882382  iACCESS:          0  iHIT:          0  iMISS:          0  dACCESS:   30781770  dHIT:   24899388  dMISS:    5882382  itACCESS:          0  itHIT:          0  itMISS:          0  dtACCESS:          0  dtHIT:          0  dtMISS:          0
cpu0_DTLB LOAD         ACCESS:   30781770  HIT:   24899388  MISS:    5882382  iACCESS:          0  iHIT:          0  iMISS:          0  dACCESS:   30781770  dHIT:   24899388  dMISS:    5882382  itACCESS:          0  itHIT:          0  itMISS:          0  dtACCESS:          0  dtHIT:          0  dtMISS:          0
cpu0_DTLB RFO          ACCESS:          0  HIT:          0  MISS:          0  iACCESS:          0  iHIT:          0  iMISS:          0  dACCESS:          0  dHIT:          0  dMISS:          0  itACCESS:          0  itHIT:          0  itMISS:          0  dtACCESS:          0  dtHIT:          0  dtMISS:          0
cpu0_DTLB PREFETCH     ACCESS:          0  HIT:          0  MISS:          0  iACCESS:          0  iHIT:          0  iMISS:          0  dACCESS:          0  dHIT:          0  dMISS:          0  itACCESS:          0  itHIT:          0  itMISS:          0  dtACCESS:          0  dtHIT:          0  dtMISS:          0
cpu0_DTLB WRITE        ACCESS:          0  HIT:          0  MISS:          0  iACCESS:          0  iHIT:          0  iMISS:          0  dACCESS:          0  dHIT:          0  dMISS:          0  itACCESS:          0  itHIT:          0  itMISS:          0  dtACCESS:          0  dtHIT:          0  dtMISS:          0
cpu0_DTLB TRANSLATION  ACCESS:          0  HIT:          0  MISS:          0  iACCESS:          0  iHIT:          0  iMISS:          0  dACCESS:          0  dHIT:          0  dMISS:          0  itACCESS:          0  itHIT:          0  itMISS:          0  dtACCESS:          0  dtHIT:          0  dtMISS:          0
cpu0_DTLB PREFETCH  REQUESTED:          0  ISSUED:          0  CROSSED:          0  USEFUL:          0  USELESS:          0
cpu0_DTLB AVERAGE iMISS LATENCY: 0 cycles
cpu0_DTLB AVERAGE dMISS LATENCY: 10.659 cycles
cpu0_DTLB AVERAGE itMISS LATENCY: 0 cycles
cpu0_DTLB AVERAGE dtMISS LATENCY: 0 cycles
cpu0_DTLB PAGE CROSSINGS (TLB HIT):         0 
cpu0_DTLB PAGE CROSSINGS (TLB MISS):         0 
cpu0_DTLB AVERAGE MISS LATENCY: 10.659 cycles
cpu0_STLB TOTAL       ACCESS:    3539348  HIT:    3221618  MISS:     317730  iACCESS:     420295  iHIT:     316924  iMISS:     103371  dACCESS:    3119053  dHIT:    2904694  dMISS:     214359  itACCESS:          0  itHIT:          0  itMISS:          0  dtACCESS:          0  dtHIT:          0  dtMISS:          0
cpu0_STLB LOAD         ACCESS:    3539348  HIT:    3221618  MISS:     317730  iACCESS:     420295  iHIT:     316924  iMISS:     103371  dACCESS:    3119053  dHIT:    2904694  dMISS:     214359  itACCESS:          0  itHIT:          0  itMISS:          0  dtACCESS:          0  dtHIT:          0  dtMISS:          0
cpu0_STLB RFO          ACCESS:          0  HIT:          0  MISS:          0  iACCESS:          0  iHIT:          0  iMISS:          0  dACCESS:          0  dHIT:          0  dMISS:          0  itACCESS:          0  itHIT:          0  itMISS:          0  dtACCESS:          0  dtHIT:          0  dtMISS:          0
cpu0_STLB PREFETCH     ACCESS:          0  HIT:          0  MISS:          0  iACCESS:          0  iHIT:          0  iMISS:          0  dACCESS:          0  dHIT:          0  dMISS:          0  itACCESS:          0  itHIT:          0  itMISS:          0  dtACCESS:          0  dtHIT:          0  dtMISS:          0
cpu0_STLB WRITE        ACCESS:          0  HIT:          0  MISS:          0  iACCESS:          0  iHIT:          0  iMISS:          0  dACCESS:          0  dHIT:          0  dMISS:          0  itACCESS:          0  itHIT:          0  itMISS:          0  dtACCESS:          0  dtHIT:          0  dtMISS:          0
cpu0_STLB TRANSLATION  ACCESS:          0  HIT:          0  MISS:          0  iACCESS:          0  iHIT:          0  iMISS:          0  dACCESS:          0  dHIT:          0  dMISS:          0  itACCESS:          0  itHIT:          0  itMISS:          0  dtACCESS:          0  dtHIT:          0  dtMISS:          0
cpu0_STLB PREFETCH  REQUESTED:          0  ISSUED:          0  CROSSED:          0  USEFUL:          0  USELESS:          0
cpu0_STLB AVERAGE iMISS LATENCY: 37.1009 cycles
cpu0_STLB AVERAGE dMISS LATENCY: 117.991 cycles
cpu0_STLB AVERAGE itMISS LATENCY: 0 cycles
cpu0_STLB AVERAGE dtMISS LATENCY: 0 cycles
cpu0_STLB PAGE CROSSINGS (TLB HIT):         0 
cpu0_STLB PAGE CROSSINGS (TLB MISS):         0 
cpu0_STLB AVERAGE MISS LATENCY: 155.092 cycles
cpu0_L1D TOTAL       ACCESS:   49502089  HIT:   39722492  MISS:    9779597  iACCESS:          0  iHIT:          0  iMISS:          0  dACCESS:   49034751  dHIT:   39694700  dMISS:    9340051  itACCESS:     114509  itHIT:      13587  itMISS:     100922  dtACCESS:     352829  dtHIT:      14205  dtMISS:     338624
cpu0_L1D LOAD         ACCESS:   23602265  HIT:   18404569  MISS:    5197696  iACCESS:          0  iHIT:          0  iMISS:          0  dACCESS:   23602265  dHIT:   18404569  dMISS:    5197696  itACCESS:          0  itHIT:          0  itMISS:          0  dtACCESS:          0  dtHIT:          0  dtMISS:          0
cpu0_L1D RFO          ACCESS:          0  HIT:          0  MISS:          0  iACCESS:          0  iHIT:          0  iMISS:          0  dACCESS:          0  dHIT:          0  dMISS:          0  itACCESS:          0  itHIT:          0  itMISS:          0  dtACCESS:          0  dtHIT:          0  dtMISS:          0
cpu0_L1D PREFETCH     ACCESS:   15622121  HIT:   12048351  MISS:    3573770  iACCESS:          0  iHIT:          0  iMISS:          0  dACCESS:   15622121  dHIT:   12048351  dMISS:    3573770  itACCESS:          0  itHIT:          0  itMISS:          0  dtACCESS:          0  dtHIT:          0  dtMISS:          0
cpu0_L1D WRITE        ACCESS:    9810365  HIT:    9241780  MISS:     568585  iACCESS:          0  iHIT:          0  iMISS:          0  dACCESS:    9810365  dHIT:    9241780  dMISS:     568585  itACCESS:          0  itHIT:          0  itMISS:          0  dtACCESS:          0  dtHIT:          0  dtMISS:          0
cpu0_L1D TRANSLATION  ACCESS:     467338  HIT:      27792  MISS:     439546  iACCESS:          0  iHIT:          0  iMISS:          0  dACCESS:          0  dHIT:          0  dMISS:          0  itACCESS:     114509  itHIT:      13587  itMISS:     100922  dtACCESS:     352829  dtHIT:      14205  dtMISS:     338624
cpu0_L1D PREFETCH  REQUESTED:   23602265  ISSUED:   18899925  CROSSED:          0  USEFUL:     340917  USELESS:    1014345
cpu0_L1D AVERAGE iMISS LATENCY: 0 cycles
cpu0_L1D AVERAGE dMISS LATENCY: 30.2551 cycles
cpu0_L1D AVERAGE itMISS LATENCY: 1.10441 cycles
cpu0_L1D AVERAGE dtMISS LATENCY: 3.41412 cycles
cpu0_L1D PAGE CROSSINGS (TLB HIT):         0 
cpu0_L1D PAGE CROSSINGS (TLB MISS):         0 
cpu0_L1D AVERAGE MISS LATENCY: 34.7736 cycles
cpu0_L2C TOTAL       ACCESS:    9743502  HIT:    2172283  MISS:    7571219  iACCESS:    3381092  iHIT:     752003  iMISS:    2629089  dACCESS:    5955160  dHIT:    1259956  dMISS:    4695204  itACCESS:     100864  itHIT:      36090  itMISS:      64774  dtACCESS:     306386  dtHIT:     124234  dtMISS:     182152
cpu0_L2C LOAD         ACCESS:    3615295  HIT:     847840  MISS:    2767455  iACCESS:     746405  iHIT:     114974  iMISS:     631431  dACCESS:    2868890  dHIT:     732866  dMISS:    2136024  itACCESS:          0  itHIT:          0  itMISS:          0  dtACCESS:          0  dtHIT:          0  dtMISS:          0
cpu0_L2C RFO          ACCESS:     226388  HIT:      40478  MISS:     185910  iACCESS:          0  iHIT:          0  iMISS:          0  dACCESS:     226388  dHIT:      40478  dMISS:     185910  itACCESS:          0  itHIT:          0  itMISS:          0  dtACCESS:          0  dtHIT:          0  dtMISS:          0
cpu0_L2C PREFETCH     ACCESS:    5167457  HIT:    1017378  MISS:    4150079  iACCESS:    2634687  iHIT:     637029  iMISS:    1997658  dACCESS:    2532770  dHIT:     380349  dMISS:    2152421  itACCESS:          0  itHIT:          0  itMISS:          0  dtACCESS:          0  dtHIT:          0  dtMISS:          0
cpu0_L2C WRITE        ACCESS:     327112  HIT:     106263  MISS:     220849  iACCESS:          0  iHIT:          0  iMISS:          0  dACCESS:     327112  dHIT:     106263  dMISS:     220849  itACCESS:          0  itHIT:          0  itMISS:          0  dtACCESS:          0  dtHIT:          0  dtMISS:          0
cpu0_L2C TRANSLATION  ACCESS:     407250  HIT:     160324  MISS:     246926  iACCESS:          0  iHIT:          0  iMISS:          0  dACCESS:          0  dHIT:          0  dMISS:          0  itACCESS:     100864  itHIT:      36090  itMISS:      64774  dtACCESS:     306386  dtHIT:     124234  dtMISS:     182152
cpu0_L2C PREFETCH  REQUESTED:    1392719  ISSUED:    1392719  CROSSED:          0  USEFUL:     368727  USELESS:     436454
cpu0_L2C AVERAGE iMISS LATENCY: 21.9778 cycles
cpu0_L2C AVERAGE dMISS LATENCY: 44.0719 cycles
cpu0_L2C AVERAGE itMISS LATENCY: 1.29774 cycles
cpu0_L2C AVERAGE dtMISS LATENCY: 4.01999 cycles
cpu0_L2C PAGE CROSSINGS (TLB HIT):         0 
cpu0_L2C PAGE CROSSINGS (TLB MISS):         0 
cpu0_L2C AVERAGE MISS LATENCY: 71.3674 cycles
LLC TOTAL       ACCESS:    7396248  HIT:    5027339  MISS:    2368909  iACCESS:    2549220  iHIT:    1797071  iMISS:     752149  dACCESS:    4600102  dHIT:    3171386  dMISS:    1428716  itACCESS:      64774  itHIT:      16588  itMISS:      48186  dtACCESS:     182152  dtHIT:      42294  dtMISS:     139858
LLC LOAD         ACCESS:    2760024  HIT:    2193672  MISS:     566352  iACCESS:     630251  iHIT:     473356  iMISS:     156895  dACCESS:    2129773  dHIT:    1720316  dMISS:     409457  itACCESS:          0  itHIT:          0  itMISS:          0  dtACCESS:          0  dtHIT:          0  dtMISS:          0
LLC RFO          ACCESS:     185886  HIT:     106035  MISS:      79851  iACCESS:          0  iHIT:          0  iMISS:          0  dACCESS:     185886  dHIT:     106035  dMISS:      79851  itACCESS:          0  itHIT:          0  itMISS:          0  dtACCESS:          0  dtHIT:          0  dtMISS:          0
LLC PREFETCH     ACCESS:    3955322  HIT:    2427216  MISS:    1528106  iACCESS:    1918969  iHIT:    1323715  iMISS:     595254  dACCESS:    2036353  dHIT:    1103501  dMISS:     932852  itACCESS:          0  itHIT:          0  itMISS:          0  dtACCESS:          0  dtHIT:          0  dtMISS:          0
LLC WRITE        ACCESS:     248090  HIT:     241534  MISS:       6556  iACCESS:          0  iHIT:          0  iMISS:          0  dACCESS:     248090  dHIT:     241534  dMISS:       6556  itACCESS:          0  itHIT:          0  itMISS:          0  dtACCESS:          0  dtHIT:          0  dtMISS:          0
LLC TRANSLATION  ACCESS:     246926  HIT:      58882  MISS:     188044  iACCESS:          0  iHIT:          0  iMISS:          0  dACCESS:          0  dHIT:          0  dMISS:          0  itACCESS:      64774  itHIT:      16588  itMISS:      48186  dtACCESS:     182152  dtHIT:      42294  dtMISS:     139858
LLC PREFETCH  REQUESTED:          0  ISSUED:          0  CROSSED:          0  USEFUL:          0  USELESS:          0
LLC AVERAGE iMISS LATENCY: 49.3478 cycles
LLC AVERAGE dMISS LATENCY: 106.005 cycles
LLC AVERAGE itMISS LATENCY: 3.60939 cycles
LLC AVERAGE dtMISS LATENCY: 11.334 cycles
LLC PAGE CROSSINGS (TLB HIT):         0 
LLC PAGE CROSSINGS (TLB MISS):         0 
LLC AVERAGE MISS LATENCY: 170.296 cycles

PageTableWalker TOTAL       ACCESS:     183736  
PageTableWalker AVERAGE LATENCY: 5.82099 cycles
PageTableWalker TOTAL LATENCY: 1069525 cycles

DRAM Statistics
Channel 0
 RQ ROW_BUFFER_HIT:     547821
  ROW_BUFFER_MISS:    1797714
 AVG DBUS CONGESTED CYCLE:     3.6552
 WQ ROW_BUFFER_HIT:      57544
  ROW_BUFFER_MISS:      53815  FULL:          0

