last_page:0x200000000000000
VMEM_RES_CAP:0x100000
PAGE_SIZE:4096
LOG2_PAGE_SIZE:12
LOG2_PAGE_TABLE_SIZE:9
page_table_levels:5
WARNING: physical memory size is smaller than virtual memory size
FDiP enabled with aggresivity 16

*** ChampSim Multicore Out-of-Order Simulator ***

Warmup Instructions: 50000000
Simulation Instructions: 100000000
Number of CPUs: 1
Small page size: 4096
Large page size: 2097152

CPU 0 Bimodal branch predictor
Basic BTB sets: 1024 ways: 8 indirect buffer size: 4096 RAS size: 64
Instruction page size distrubution: 0
Loading instruction page size distribution from /home/bsc/bsc018186/scratch/itp_asplos25_AE/dump/smt_srv540_ap_srv259_ap_1024i.pdst
Data page size distrubution: 0
Loading data page size distribution from /home/bsc/bsc018186/scratch/itp_asplos25_AE/dump/smt_srv540_ap_srv259_ap_1024i.pdst
cpu0_L2C IP-based stride prefetcher
cpu0_L2C is using PTP replacement policy:
	TLB_STRESS_THRESHOLD:0
	PTE_EVICTION_RATIO:0
cpu0_L1D next line prefetcher
CHiRPing...
cpu0_L1I next line prefetcher
Off-chip DRAM Size: 4 GiB Channels: 1 Width: 64-bit Data Rate: 3200 MT/s
Heartbeat CPU 0 instructions: 10000002 cycles: 2500424 heartbeat IPC: 3.99933 cumulative IPC: 3.99933 (Simulation time: 0 hr 0 min 36 sec) 
Heartbeat CPU 0 instructions: 20000002 cycles: 5000644 heartbeat IPC: 3.99965 cumulative IPC: 3.99949 (Simulation time: 0 hr 1 min 14 sec) 
Heartbeat CPU 0 instructions: 30000003 cycles: 7500821 heartbeat IPC: 3.99972 cumulative IPC: 3.99957 (Simulation time: 0 hr 1 min 52 sec) 
Heartbeat CPU 0 instructions: 40000001 cycles: 10000976 heartbeat IPC: 3.99976 cumulative IPC: 3.99961 (Simulation time: 0 hr 2 min 30 sec) 
Heartbeat CPU 0 instructions: 50000001 cycles: 12501474 heartbeat IPC: 3.99921 cumulative IPC: 3.99953 (Simulation time: 0 hr 3 min 9 sec) 
Warmup finished CPU 0 instructions: 50000001 cycles: 12501475 cumulative IPC: 3.99953 (Simulation time: 0 hr 3 min 9 sec) 

Warmup complete CPU 0 instructions: 50000001 cycles: 12501475 (Simulation time: 0 hr 3 min 9 sec) 

Heartbeat CPU 0 instructions: 60000000 cycles: 40322276 heartbeat IPC: 0.359444 cumulative IPC: 0.359444 (Simulation time: 0 hr 4 min 28 sec) 
Heartbeat CPU 0 instructions: 70000002 cycles: 68354412 heartbeat IPC: 0.356734 cumulative IPC: 0.358084 (Simulation time: 0 hr 5 min 47 sec) 
Heartbeat CPU 0 instructions: 80000002 cycles: 97414915 heartbeat IPC: 0.34411 cumulative IPC: 0.353301 (Simulation time: 0 hr 7 min 8 sec) 
Heartbeat CPU 0 instructions: 90000000 cycles: 125348536 heartbeat IPC: 0.357992 cumulative IPC: 0.354463 (Simulation time: 0 hr 8 min 27 sec) 
Heartbeat CPU 0 instructions: 100000001 cycles: 155262758 heartbeat IPC: 0.33429 cumulative IPC: 0.350236 (Simulation time: 0 hr 9 min 49 sec) 
Heartbeat CPU 0 instructions: 110000002 cycles: 183755201 heartbeat IPC: 0.350971 cumulative IPC: 0.350358 (Simulation time: 0 hr 11 min 9 sec) 
Heartbeat CPU 0 instructions: 120000001 cycles: 213163090 heartbeat IPC: 0.340045 cumulative IPC: 0.348846 (Simulation time: 0 hr 12 min 30 sec) 
Heartbeat CPU 0 instructions: 130000003 cycles: 242182919 heartbeat IPC: 0.344593 cumulative IPC: 0.348309 (Simulation time: 0 hr 13 min 51 sec) 
Heartbeat CPU 0 instructions: 140000002 cycles: 269655778 heartbeat IPC: 0.363996 cumulative IPC: 0.349985 (Simulation time: 0 hr 15 min 10 sec) 
Heartbeat CPU 0 instructions: 150000001 cycles: 296937797 heartbeat IPC: 0.366542 cumulative IPC: 0.351573 (Simulation time: 0 hr 16 min 29 sec) 
Simulation finished CPU 0 instructions: 100000000 cycles: 284436323 cumulative IPC: 0.351573 (Simulation time: 0 hr 16 min 29 sec) 

Simulation complete CPU 0 instructions: 100000000 cycles: 284436323 (Simulation time: 0 hr 16 min 29 sec) 


ChampSim completed all CPUs

Saving instructions large page distribution to /home/bsc/bsc018186/scratch/itp_asplos25_AE/dump/smt_srv540_ap_srv259_ap_1024i.pdst...
Saving data large page distribution to /home/bsc/bsc018186/scratch/itp_asplos25_AE/dump/smt_srv540_ap_srv259_ap_1024i.pdst...
=== Simulation ===
CPU 0 runs /gpfs/projects/bsc18/MN4/bsc18/romol/ChampSim/traces/qualcomm_srv/smt_srv540_ap_srv259_ap_1024i.champsimtrace.xz

Region of Interest Statistics

CPU 0 cumulative IPC: 0.351573 instructions: 100000000 cycles: 284436323
CPU 0 Branch Prediction Accuracy: 76.8629% MPKI: 41.689 Average ROB Occupancy at Mispredict: 11.6469
Branch type MPKI
BRANCH_DIRECT_JUMP: 1.25099
BRANCH_INDIRECT: 22.2396
BRANCH_CONDITIONAL: 11.5272
BRANCH_DIRECT_CALL: 2.33414
BRANCH_INDIRECT_CALL: 0.979531
BRANCH_RETURN: 3.35764

Instructions large pages: 0
Instructions small pages: 9359
Large page distribution for instructions: 0%

Data large pages: 0
Data small pages: 8207
Large page distribution for data: 0%

cpu0_L1I TOTAL       ACCESS:   38539870  HIT:   29899657  MISS:    8640213  iACCESS:   38539870  iHIT:   29899657  iMISS:    8640213  dACCESS:          0  dHIT:          0  dMISS:          0  itACCESS:          0  itHIT:          0  itMISS:          0  dtACCESS:          0  dtHIT:          0  dtMISS:          0
cpu0_L1I LOAD         ACCESS:   11546638  HIT:    9165722  MISS:    2380916  iACCESS:   11546638  iHIT:    9165722  iMISS:    2380916  dACCESS:          0  dHIT:          0  dMISS:          0  itACCESS:          0  itHIT:          0  itMISS:          0  dtACCESS:          0  dtHIT:          0  dtMISS:          0
cpu0_L1I RFO          ACCESS:          0  HIT:          0  MISS:          0  iACCESS:          0  iHIT:          0  iMISS:          0  dACCESS:          0  dHIT:          0  dMISS:          0  itACCESS:          0  itHIT:          0  itMISS:          0  dtACCESS:          0  dtHIT:          0  dtMISS:          0
cpu0_L1I PREFETCH     ACCESS:   26993232  HIT:   20733935  MISS:    6259297  iACCESS:   26993232  iHIT:   20733935  iMISS:    6259297  dACCESS:          0  dHIT:          0  dMISS:          0  itACCESS:          0  itHIT:          0  itMISS:          0  dtACCESS:          0  dtHIT:          0  dtMISS:          0
cpu0_L1I WRITE        ACCESS:          0  HIT:          0  MISS:          0  iACCESS:          0  iHIT:          0  iMISS:          0  dACCESS:          0  dHIT:          0  dMISS:          0  itACCESS:          0  itHIT:          0  itMISS:          0  dtACCESS:          0  dtHIT:          0  dtMISS:          0
cpu0_L1I TRANSLATION  ACCESS:          0  HIT:          0  MISS:          0  iACCESS:          0  iHIT:          0  iMISS:          0  dACCESS:          0  dHIT:          0  dMISS:          0  itACCESS:          0  itHIT:          0  itMISS:          0  dtACCESS:          0  dtHIT:          0  dtMISS:          0
cpu0_L1I PREFETCH  REQUESTED:   29833037  ISSUED:   29832868  CROSSED:          0  USEFUL:    2169070  USELESS:     752121
cpu0_L1I AVERAGE iMISS LATENCY: 21.9281 cycles
cpu0_L1I AVERAGE dMISS LATENCY: 0 cycles
cpu0_L1I AVERAGE itMISS LATENCY: 0 cycles
cpu0_L1I AVERAGE dtMISS LATENCY: 0 cycles
cpu0_L1I PAGE CROSSINGS (TLB HIT):         0 
cpu0_L1I PAGE CROSSINGS (TLB MISS):         0 
cpu0_L1I AVERAGE MISS LATENCY: 21.9281 cycles
cpu0_ITLB TOTAL       ACCESS:   32516865  HIT:   30277674  MISS:    2239191  iACCESS:   32516865  iHIT:   30277674  iMISS:    2239191  dACCESS:          0  dHIT:          0  dMISS:          0  itACCESS:          0  itHIT:          0  itMISS:          0  dtACCESS:          0  dtHIT:          0  dtMISS:          0
cpu0_ITLB LOAD         ACCESS:   32516865  HIT:   30277674  MISS:    2239191  iACCESS:   32516865  iHIT:   30277674  iMISS:    2239191  dACCESS:          0  dHIT:          0  dMISS:          0  itACCESS:          0  itHIT:          0  itMISS:          0  dtACCESS:          0  dtHIT:          0  dtMISS:          0
cpu0_ITLB RFO          ACCESS:          0  HIT:          0  MISS:          0  iACCESS:          0  iHIT:          0  iMISS:          0  dACCESS:          0  dHIT:          0  dMISS:          0  itACCESS:          0  itHIT:          0  itMISS:          0  dtACCESS:          0  dtHIT:          0  dtMISS:          0
cpu0_ITLB PREFETCH     ACCESS:          0  HIT:          0  MISS:          0  iACCESS:          0  iHIT:          0  iMISS:          0  dACCESS:          0  dHIT:          0  dMISS:          0  itACCESS:          0  itHIT:          0  itMISS:          0  dtACCESS:          0  dtHIT:          0  dtMISS:          0
cpu0_ITLB WRITE        ACCESS:          0  HIT:          0  MISS:          0  iACCESS:          0  iHIT:          0  iMISS:          0  dACCESS:          0  dHIT:          0  dMISS:          0  itACCESS:          0  itHIT:          0  itMISS:          0  dtACCESS:          0  dtHIT:          0  dtMISS:          0
cpu0_ITLB TRANSLATION  ACCESS:          0  HIT:          0  MISS:          0  iACCESS:          0  iHIT:          0  iMISS:          0  dACCESS:          0  dHIT:          0  dMISS:          0  itACCESS:          0  itHIT:          0  itMISS:          0  dtACCESS:          0  dtHIT:          0  dtMISS:          0
cpu0_ITLB PREFETCH  REQUESTED:          0  ISSUED:          0  CROSSED:          0  USEFUL:     378966  USELESS:      80705
cpu0_ITLB AVERAGE iMISS LATENCY: 9.79864 cycles
cpu0_ITLB AVERAGE dMISS LATENCY: 0 cycles
cpu0_ITLB AVERAGE itMISS LATENCY: 0 cycles
cpu0_ITLB AVERAGE dtMISS LATENCY: 0 cycles
cpu0_ITLB PAGE CROSSINGS (TLB HIT):         0 
cpu0_ITLB PAGE CROSSINGS (TLB MISS):         0 
cpu0_ITLB AVERAGE MISS LATENCY: 9.79864 cycles
cpu0_DTLB TOTAL       ACCESS:   28736425  HIT:   25049902  MISS:    3686523  iACCESS:          0  iHIT:          0  iMISS:          0  dACCESS:   28736425  dHIT:   25049902  dMISS:    3686523  itACCESS:          0  itHIT:          0  itMISS:          0  dtACCESS:          0  dtHIT:          0  dtMISS:          0
cpu0_DTLB LOAD         ACCESS:   28736425  HIT:   25049902  MISS:    3686523  iACCESS:          0  iHIT:          0  iMISS:          0  dACCESS:   28736425  dHIT:   25049902  dMISS:    3686523  itACCESS:          0  itHIT:          0  itMISS:          0  dtACCESS:          0  dtHIT:          0  dtMISS:          0
cpu0_DTLB RFO          ACCESS:          0  HIT:          0  MISS:          0  iACCESS:          0  iHIT:          0  iMISS:          0  dACCESS:          0  dHIT:          0  dMISS:          0  itACCESS:          0  itHIT:          0  itMISS:          0  dtACCESS:          0  dtHIT:          0  dtMISS:          0
cpu0_DTLB PREFETCH     ACCESS:          0  HIT:          0  MISS:          0  iACCESS:          0  iHIT:          0  iMISS:          0  dACCESS:          0  dHIT:          0  dMISS:          0  itACCESS:          0  itHIT:          0  itMISS:          0  dtACCESS:          0  dtHIT:          0  dtMISS:          0
cpu0_DTLB WRITE        ACCESS:          0  HIT:          0  MISS:          0  iACCESS:          0  iHIT:          0  iMISS:          0  dACCESS:          0  dHIT:          0  dMISS:          0  itACCESS:          0  itHIT:          0  itMISS:          0  dtACCESS:          0  dtHIT:          0  dtMISS:          0
cpu0_DTLB TRANSLATION  ACCESS:          0  HIT:          0  MISS:          0  iACCESS:          0  iHIT:          0  iMISS:          0  dACCESS:          0  dHIT:          0  dMISS:          0  itACCESS:          0  itHIT:          0  itMISS:          0  dtACCESS:          0  dtHIT:          0  dtMISS:          0
cpu0_DTLB PREFETCH  REQUESTED:          0  ISSUED:          0  CROSSED:          0  USEFUL:          0  USELESS:          0
cpu0_DTLB AVERAGE iMISS LATENCY: 0 cycles
cpu0_DTLB AVERAGE dMISS LATENCY: 24.4014 cycles
cpu0_DTLB AVERAGE itMISS LATENCY: 0 cycles
cpu0_DTLB AVERAGE dtMISS LATENCY: 0 cycles
cpu0_DTLB PAGE CROSSINGS (TLB HIT):         0 
cpu0_DTLB PAGE CROSSINGS (TLB MISS):         0 
cpu0_DTLB AVERAGE MISS LATENCY: 24.4014 cycles
cpu0_STLB TOTAL       ACCESS:    2581218  HIT:    2213410  MISS:     367808  iACCESS:     459669  iHIT:     355032  iMISS:     104637  dACCESS:    2121549  dHIT:    1858378  dMISS:     263171  itACCESS:          0  itHIT:          0  itMISS:          0  dtACCESS:          0  dtHIT:          0  dtMISS:          0
cpu0_STLB LOAD         ACCESS:    2581218  HIT:    2213410  MISS:     367808  iACCESS:     459669  iHIT:     355032  iMISS:     104637  dACCESS:    2121549  dHIT:    1858378  dMISS:     263171  itACCESS:          0  itHIT:          0  itMISS:          0  dtACCESS:          0  dtHIT:          0  dtMISS:          0
cpu0_STLB RFO          ACCESS:          0  HIT:          0  MISS:          0  iACCESS:          0  iHIT:          0  iMISS:          0  dACCESS:          0  dHIT:          0  dMISS:          0  itACCESS:          0  itHIT:          0  itMISS:          0  dtACCESS:          0  dtHIT:          0  dtMISS:          0
cpu0_STLB PREFETCH     ACCESS:          0  HIT:          0  MISS:          0  iACCESS:          0  iHIT:          0  iMISS:          0  dACCESS:          0  dHIT:          0  dMISS:          0  itACCESS:          0  itHIT:          0  itMISS:          0  dtACCESS:          0  dtHIT:          0  dtMISS:          0
cpu0_STLB WRITE        ACCESS:          0  HIT:          0  MISS:          0  iACCESS:          0  iHIT:          0  iMISS:          0  dACCESS:          0  dHIT:          0  dMISS:          0  itACCESS:          0  itHIT:          0  itMISS:          0  dtACCESS:          0  dtHIT:          0  dtMISS:          0
cpu0_STLB TRANSLATION  ACCESS:          0  HIT:          0  MISS:          0  iACCESS:          0  iHIT:          0  iMISS:          0  dACCESS:          0  dHIT:          0  dMISS:          0  itACCESS:          0  itHIT:          0  itMISS:          0  dtACCESS:          0  dtHIT:          0  dtMISS:          0
cpu0_STLB PREFETCH  REQUESTED:          0  ISSUED:          0  CROSSED:          0  USEFUL:          0  USELESS:          0
cpu0_STLB AVERAGE iMISS LATENCY: 49.6742 cycles
cpu0_STLB AVERAGE dMISS LATENCY: 198.125 cycles
cpu0_STLB AVERAGE itMISS LATENCY: 0 cycles
cpu0_STLB AVERAGE dtMISS LATENCY: 0 cycles
cpu0_STLB PAGE CROSSINGS (TLB HIT):         0 
cpu0_STLB PAGE CROSSINGS (TLB MISS):         0 
cpu0_STLB AVERAGE MISS LATENCY: 247.799 cycles
cpu0_L1D TOTAL       ACCESS:   44627227  HIT:   38864403  MISS:    5762824  iACCESS:          0  iHIT:          0  iMISS:          0  dACCESS:   44081999  dHIT:   38833081  dMISS:    5248918  itACCESS:     118013  itHIT:      11879  itMISS:     106134  dtACCESS:     427215  dtHIT:      19443  dtMISS:     407772
cpu0_L1D LOAD         ACCESS:   20177737  HIT:   17821310  MISS:    2356427  iACCESS:          0  iHIT:          0  iMISS:          0  dACCESS:   20177737  dHIT:   17821310  dMISS:    2356427  itACCESS:          0  itHIT:          0  itMISS:          0  dtACCESS:          0  dtHIT:          0  dtMISS:          0
cpu0_L1D RFO          ACCESS:          0  HIT:          0  MISS:          0  iACCESS:          0  iHIT:          0  iMISS:          0  dACCESS:          0  dHIT:          0  dMISS:          0  itACCESS:          0  itHIT:          0  itMISS:          0  dtACCESS:          0  dtHIT:          0  dtMISS:          0
cpu0_L1D PREFETCH     ACCESS:   13787834  HIT:   11464169  MISS:    2323665  iACCESS:          0  iHIT:          0  iMISS:          0  dACCESS:   13787834  dHIT:   11464169  dMISS:    2323665  itACCESS:          0  itHIT:          0  itMISS:          0  dtACCESS:          0  dtHIT:          0  dtMISS:          0
cpu0_L1D WRITE        ACCESS:   10116428  HIT:    9547602  MISS:     568826  iACCESS:          0  iHIT:          0  iMISS:          0  dACCESS:   10116428  dHIT:    9547602  dMISS:     568826  itACCESS:          0  itHIT:          0  itMISS:          0  dtACCESS:          0  dtHIT:          0  dtMISS:          0
cpu0_L1D TRANSLATION  ACCESS:     545228  HIT:      31322  MISS:     513906  iACCESS:          0  iHIT:          0  iMISS:          0  dACCESS:          0  dHIT:          0  dMISS:          0  itACCESS:     118013  itHIT:      11879  itMISS:     106134  dtACCESS:     427215  dtHIT:      19443  dtMISS:     407772
cpu0_L1D PREFETCH  REQUESTED:   20177737  ISSUED:   18306409  CROSSED:          0  USEFUL:     354279  USELESS:     919583
cpu0_L1D AVERAGE iMISS LATENCY: 0 cycles
cpu0_L1D AVERAGE dMISS LATENCY: 49.4163 cycles
cpu0_L1D AVERAGE itMISS LATENCY: 3.0015 cycles
cpu0_L1D AVERAGE dtMISS LATENCY: 11.8596 cycles
cpu0_L1D PAGE CROSSINGS (TLB HIT):         0 
cpu0_L1D PAGE CROSSINGS (TLB MISS):         0 
cpu0_L1D AVERAGE MISS LATENCY: 64.2773 cycles
cpu0_L2C TOTAL       ACCESS:    8486545  HIT:    4156918  MISS:    4329627  iACCESS:    3733731  iHIT:    2311992  iMISS:    1421739  dACCESS:    4272822  dHIT:    1784634  dMISS:    2488188  itACCESS:     105996  itHIT:      18197  itMISS:      87799  dtACCESS:     373996  dtHIT:      42095  dtMISS:     331901
cpu0_L2C LOAD         ACCESS:    2041858  HIT:     995474  MISS:    1046384  iACCESS:     850170  iHIT:     545967  iMISS:     304203  dACCESS:    1191688  dHIT:     449507  dMISS:     742181  itACCESS:          0  itHIT:          0  itMISS:          0  dtACCESS:          0  dtHIT:          0  dtMISS:          0
cpu0_L2C RFO          ACCESS:     218181  HIT:      84265  MISS:     133916  iACCESS:          0  iHIT:          0  iMISS:          0  dACCESS:     218181  dHIT:      84265  dMISS:     133916  itACCESS:          0  itHIT:          0  itMISS:          0  dtACCESS:          0  dtHIT:          0  dtMISS:          0
cpu0_L2C PREFETCH     ACCESS:    5404780  HIT:    2689137  MISS:    2715643  iACCESS:    2883561  iHIT:    1766025  iMISS:    1117536  dACCESS:    2521219  dHIT:     923112  dMISS:    1598107  itACCESS:          0  itHIT:          0  itMISS:          0  dtACCESS:          0  dtHIT:          0  dtMISS:          0
cpu0_L2C WRITE        ACCESS:     341734  HIT:     327750  MISS:      13984  iACCESS:          0  iHIT:          0  iMISS:          0  dACCESS:     341734  dHIT:     327750  dMISS:      13984  itACCESS:          0  itHIT:          0  itMISS:          0  dtACCESS:          0  dtHIT:          0  dtMISS:          0
cpu0_L2C TRANSLATION  ACCESS:     479992  HIT:      60292  MISS:     419700  iACCESS:          0  iHIT:          0  iMISS:          0  dACCESS:          0  dHIT:          0  dMISS:          0  itACCESS:     105996  itHIT:      18197  itMISS:      87799  dtACCESS:     373996  dtHIT:      42095  dtMISS:     331901
cpu0_L2C PREFETCH  REQUESTED:    1508630  ISSUED:    1508628  CROSSED:          0  USEFUL:     347734  USELESS:     299996
cpu0_L2C AVERAGE iMISS LATENCY: 36.3091 cycles
cpu0_L2C AVERAGE dMISS LATENCY: 79.2429 cycles
cpu0_L2C AVERAGE itMISS LATENCY: 3.75375 cycles
cpu0_L2C AVERAGE dtMISS LATENCY: 14.9261 cycles
cpu0_L2C PAGE CROSSINGS (TLB HIT):         0 
cpu0_L2C PAGE CROSSINGS (TLB MISS):         0 
cpu0_L2C AVERAGE MISS LATENCY: 134.232 cycles
LLC TOTAL       ACCESS:    4331419  HIT:    1470984  MISS:    2860435  iACCESS:    1341267  iHIT:     516863  iMISS:     824404  dACCESS:    2570452  dHIT:     912981  dMISS:    1657471  itACCESS:      87799  itHIT:       6562  itMISS:      81237  dtACCESS:     331901  dtHIT:      34578  dtMISS:     297323
LLC LOAD         ACCESS:    1038922  HIT:     360189  MISS:     678733  iACCESS:     303016  iHIT:     125503  iMISS:     177513  dACCESS:     735906  dHIT:     234686  dMISS:     501220  itACCESS:          0  itHIT:          0  itMISS:          0  dtACCESS:          0  dtHIT:          0  dtMISS:          0
LLC RFO          ACCESS:     133904  HIT:      42016  MISS:      91888  iACCESS:          0  iHIT:          0  iMISS:          0  dACCESS:     133904  dHIT:      42016  dMISS:      91888  itACCESS:          0  itHIT:          0  itMISS:          0  dtACCESS:          0  dtHIT:          0  dtMISS:          0
LLC PREFETCH     ACCESS:    2529905  HIT:     828067  MISS:    1701838  iACCESS:    1038251  iHIT:     391360  iMISS:     646891  dACCESS:    1491654  dHIT:     436707  dMISS:    1054947  itACCESS:          0  itHIT:          0  itMISS:          0  dtACCESS:          0  dtHIT:          0  dtMISS:          0
LLC WRITE        ACCESS:     208988  HIT:     199572  MISS:       9416  iACCESS:          0  iHIT:          0  iMISS:          0  dACCESS:     208988  dHIT:     199572  dMISS:       9416  itACCESS:          0  itHIT:          0  itMISS:          0  dtACCESS:          0  dtHIT:          0  dtMISS:          0
LLC TRANSLATION  ACCESS:     419700  HIT:      41140  MISS:     378560  iACCESS:          0  iHIT:          0  iMISS:          0  dACCESS:          0  dHIT:          0  dMISS:          0  itACCESS:      87799  itHIT:       6562  itMISS:      81237  dtACCESS:     331901  dtHIT:      34578  dtMISS:     297323
LLC PREFETCH  REQUESTED:          0  ISSUED:          0  CROSSED:          0  USEFUL:          0  USELESS:          0
LLC AVERAGE iMISS LATENCY: 45.7433 cycles
LLC AVERAGE dMISS LATENCY: 104.796 cycles
LLC AVERAGE itMISS LATENCY: 5.0729 cycles
LLC AVERAGE dtMISS LATENCY: 20.2985 cycles
LLC PAGE CROSSINGS (TLB HIT):         0 
LLC PAGE CROSSINGS (TLB MISS):         0 
LLC AVERAGE MISS LATENCY: 175.911 cycles

PageTableWalker TOTAL       ACCESS:     187261  
PageTableWalker AVERAGE LATENCY: 6.2547 cycles
PageTableWalker TOTAL LATENCY: 1171261 cycles

DRAM Statistics
Channel 0
 RQ ROW_BUFFER_HIT:     567269
  ROW_BUFFER_MISS:    2262884
 AVG DBUS CONGESTED CYCLE:    3.65197
 WQ ROW_BUFFER_HIT:      63732
  ROW_BUFFER_MISS:      56539  FULL:          0

