last_page:0x200000000000000
VMEM_RES_CAP:0x100000
PAGE_SIZE:4096
LOG2_PAGE_SIZE:12
LOG2_PAGE_TABLE_SIZE:9
page_table_levels:5
WARNING: physical memory size is smaller than virtual memory size
FDiP enabled with aggresivity 16

*** ChampSim Multicore Out-of-Order Simulator ***

Warmup Instructions: 50000000
Simulation Instructions: 100000000
Number of CPUs: 1
Small page size: 4096
Large page size: 2097152

CPU 0 Bimodal branch predictor
Basic BTB sets: 1024 ways: 8 indirect buffer size: 4096 RAS size: 64
Instruction page size distrubution: 0
Loading instruction page size distribution from /home/bsc/bsc018186/scratch/itp_asplos25_AE/dump/smt_srv540_ap_srv582_ap_1024i.pdst
Data page size distrubution: 0
Loading data page size distribution from /home/bsc/bsc018186/scratch/itp_asplos25_AE/dump/smt_srv540_ap_srv582_ap_1024i.pdst
cpu0_L2C IP-based stride prefetcher
cpu0_L1D next line prefetcher
CHiRPing...
cpu0_L1I next line prefetcher
Off-chip DRAM Size: 4 GiB Channels: 1 Width: 64-bit Data Rate: 3200 MT/s
Heartbeat CPU 0 instructions: 10000001 cycles: 2500475 heartbeat IPC: 3.99925 cumulative IPC: 3.99925 (Simulation time: 0 hr 0 min 44 sec) 
Heartbeat CPU 0 instructions: 20000002 cycles: 5000642 heartbeat IPC: 3.99974 cumulative IPC: 3.99949 (Simulation time: 0 hr 1 min 33 sec) 
Heartbeat CPU 0 instructions: 30000001 cycles: 7500804 heartbeat IPC: 3.99975 cumulative IPC: 3.99958 (Simulation time: 0 hr 2 min 20 sec) 
Heartbeat CPU 0 instructions: 40000002 cycles: 10000948 heartbeat IPC: 3.99978 cumulative IPC: 3.99963 (Simulation time: 0 hr 3 min 9 sec) 
Heartbeat CPU 0 instructions: 50000000 cycles: 12501384 heartbeat IPC: 3.99931 cumulative IPC: 3.99956 (Simulation time: 0 hr 3 min 57 sec) 
Warmup finished CPU 0 instructions: 50000000 cycles: 12501385 cumulative IPC: 3.99956 (Simulation time: 0 hr 3 min 57 sec) 

Warmup complete CPU 0 instructions: 50000000 cycles: 12501385 (Simulation time: 0 hr 3 min 57 sec) 

Heartbeat CPU 0 instructions: 60000002 cycles: 42671482 heartbeat IPC: 0.331455 cumulative IPC: 0.331455 (Simulation time: 0 hr 5 min 34 sec) 
Heartbeat CPU 0 instructions: 70000000 cycles: 73273137 heartbeat IPC: 0.32678 cumulative IPC: 0.329101 (Simulation time: 0 hr 7 min 13 sec) 
Heartbeat CPU 0 instructions: 80000002 cycles: 103044194 heartbeat IPC: 0.335897 cumulative IPC: 0.331336 (Simulation time: 0 hr 8 min 50 sec) 
Heartbeat CPU 0 instructions: 90000000 cycles: 133399836 heartbeat IPC: 0.329428 cumulative IPC: 0.330857 (Simulation time: 0 hr 10 min 23 sec) 
Heartbeat CPU 0 instructions: 100000004 cycles: 164992519 heartbeat IPC: 0.31653 cumulative IPC: 0.327888 (Simulation time: 0 hr 11 min 56 sec) 
Heartbeat CPU 0 instructions: 110000004 cycles: 195284303 heartbeat IPC: 0.330123 cumulative IPC: 0.328259 (Simulation time: 0 hr 13 min 28 sec) 
Heartbeat CPU 0 instructions: 120000004 cycles: 225995250 heartbeat IPC: 0.325617 cumulative IPC: 0.327879 (Simulation time: 0 hr 15 min 4 sec) 
Heartbeat CPU 0 instructions: 130000000 cycles: 255942898 heartbeat IPC: 0.333916 cumulative IPC: 0.328622 (Simulation time: 0 hr 16 min 45 sec) 
Heartbeat CPU 0 instructions: 140000002 cycles: 285975423 heartbeat IPC: 0.332973 cumulative IPC: 0.329099 (Simulation time: 0 hr 18 min 26 sec) 
Heartbeat CPU 0 instructions: 150000002 cycles: 314650811 heartbeat IPC: 0.348732 cumulative IPC: 0.330963 (Simulation time: 0 hr 20 min 4 sec) 
Simulation finished CPU 0 instructions: 100000002 cycles: 302149427 cumulative IPC: 0.330963 (Simulation time: 0 hr 20 min 4 sec) 

Simulation complete CPU 0 instructions: 100000002 cycles: 302149427 (Simulation time: 0 hr 20 min 4 sec) 


ChampSim completed all CPUs

Saving instructions large page distribution to /home/bsc/bsc018186/scratch/itp_asplos25_AE/dump/smt_srv540_ap_srv582_ap_1024i.pdst...
Saving data large page distribution to /home/bsc/bsc018186/scratch/itp_asplos25_AE/dump/smt_srv540_ap_srv582_ap_1024i.pdst...
=== Simulation ===
CPU 0 runs /gpfs/projects/bsc18/MN4/bsc18/romol/ChampSim/traces/qualcomm_srv/smt_srv540_ap_srv582_ap_1024i.champsimtrace.xz

Region of Interest Statistics

CPU 0 cumulative IPC: 0.330963 instructions: 100000002 cycles: 302149427
CPU 0 Branch Prediction Accuracy: 75.1418% MPKI: 44.8326 Average ROB Occupancy at Mispredict: 10.8128
Branch type MPKI
BRANCH_DIRECT_JUMP: 1.39703
BRANCH_INDIRECT: 23.1452
BRANCH_CONDITIONAL: 13.0321
BRANCH_DIRECT_CALL: 2.68798
BRANCH_INDIRECT_CALL: 1.02458
BRANCH_RETURN: 3.54574

Instructions large pages: 0
Instructions small pages: 9622
Large page distribution for instructions: 0%

Data large pages: 0
Data small pages: 8277
Large page distribution for data: 0%

cpu0_L1I TOTAL       ACCESS:   39255146  HIT:   30584964  MISS:    8670182  iACCESS:   39255146  iHIT:   30584964  iMISS:    8670182  dACCESS:          0  dHIT:          0  dMISS:          0  itACCESS:          0  itHIT:          0  itMISS:          0  dtACCESS:          0  dtHIT:          0  dtMISS:          0
cpu0_L1I LOAD         ACCESS:   11752503  HIT:    9395060  MISS:    2357443  iACCESS:   11752503  iHIT:    9395060  iMISS:    2357443  dACCESS:          0  dHIT:          0  dMISS:          0  itACCESS:          0  itHIT:          0  itMISS:          0  dtACCESS:          0  dtHIT:          0  dtMISS:          0
cpu0_L1I RFO          ACCESS:          0  HIT:          0  MISS:          0  iACCESS:          0  iHIT:          0  iMISS:          0  dACCESS:          0  dHIT:          0  dMISS:          0  itACCESS:          0  itHIT:          0  itMISS:          0  dtACCESS:          0  dtHIT:          0  dtMISS:          0
cpu0_L1I PREFETCH     ACCESS:   27502643  HIT:   21189904  MISS:    6312739  iACCESS:   27502643  iHIT:   21189904  iMISS:    6312739  dACCESS:          0  dHIT:          0  dMISS:          0  itACCESS:          0  itHIT:          0  itMISS:          0  dtACCESS:          0  dtHIT:          0  dtMISS:          0
cpu0_L1I WRITE        ACCESS:          0  HIT:          0  MISS:          0  iACCESS:          0  iHIT:          0  iMISS:          0  dACCESS:          0  dHIT:          0  dMISS:          0  itACCESS:          0  itHIT:          0  itMISS:          0  dtACCESS:          0  dtHIT:          0  dtMISS:          0
cpu0_L1I TRANSLATION  ACCESS:          0  HIT:          0  MISS:          0  iACCESS:          0  iHIT:          0  iMISS:          0  dACCESS:          0  dHIT:          0  dMISS:          0  itACCESS:          0  itHIT:          0  itMISS:          0  dtACCESS:          0  dtHIT:          0  dtMISS:          0
cpu0_L1I PREFETCH  REQUESTED:   30336053  ISSUED:   30336049  CROSSED:          0  USEFUL:    2205963  USELESS:     766278
cpu0_L1I AVERAGE iMISS LATENCY: 24.6757 cycles
cpu0_L1I AVERAGE dMISS LATENCY: 0 cycles
cpu0_L1I AVERAGE itMISS LATENCY: 0 cycles
cpu0_L1I AVERAGE dtMISS LATENCY: 0 cycles
cpu0_L1I PAGE CROSSINGS (TLB HIT):         0 
cpu0_L1I PAGE CROSSINGS (TLB MISS):         0 
cpu0_L1I AVERAGE MISS LATENCY: 24.6757 cycles
cpu0_ITLB TOTAL       ACCESS:   33230951  HIT:   31002296  MISS:    2228655  iACCESS:   33230951  iHIT:   31002296  iMISS:    2228655  dACCESS:          0  dHIT:          0  dMISS:          0  itACCESS:          0  itHIT:          0  itMISS:          0  dtACCESS:          0  dtHIT:          0  dtMISS:          0
cpu0_ITLB LOAD         ACCESS:   33230951  HIT:   31002296  MISS:    2228655  iACCESS:   33230951  iHIT:   31002296  iMISS:    2228655  dACCESS:          0  dHIT:          0  dMISS:          0  itACCESS:          0  itHIT:          0  itMISS:          0  dtACCESS:          0  dtHIT:          0  dtMISS:          0
cpu0_ITLB RFO          ACCESS:          0  HIT:          0  MISS:          0  iACCESS:          0  iHIT:          0  iMISS:          0  dACCESS:          0  dHIT:          0  dMISS:          0  itACCESS:          0  itHIT:          0  itMISS:          0  dtACCESS:          0  dtHIT:          0  dtMISS:          0
cpu0_ITLB PREFETCH     ACCESS:          0  HIT:          0  MISS:          0  iACCESS:          0  iHIT:          0  iMISS:          0  dACCESS:          0  dHIT:          0  dMISS:          0  itACCESS:          0  itHIT:          0  itMISS:          0  dtACCESS:          0  dtHIT:          0  dtMISS:          0
cpu0_ITLB WRITE        ACCESS:          0  HIT:          0  MISS:          0  iACCESS:          0  iHIT:          0  iMISS:          0  dACCESS:          0  dHIT:          0  dMISS:          0  itACCESS:          0  itHIT:          0  itMISS:          0  dtACCESS:          0  dtHIT:          0  dtMISS:          0
cpu0_ITLB TRANSLATION  ACCESS:          0  HIT:          0  MISS:          0  iACCESS:          0  iHIT:          0  iMISS:          0  dACCESS:          0  dHIT:          0  dMISS:          0  itACCESS:          0  itHIT:          0  itMISS:          0  dtACCESS:          0  dtHIT:          0  dtMISS:          0
cpu0_ITLB PREFETCH  REQUESTED:          0  ISSUED:          0  CROSSED:          0  USEFUL:     388998  USELESS:      79464
cpu0_ITLB AVERAGE iMISS LATENCY: 10.5567 cycles
cpu0_ITLB AVERAGE dMISS LATENCY: 0 cycles
cpu0_ITLB AVERAGE itMISS LATENCY: 0 cycles
cpu0_ITLB AVERAGE dtMISS LATENCY: 0 cycles
cpu0_ITLB PAGE CROSSINGS (TLB HIT):         0 
cpu0_ITLB PAGE CROSSINGS (TLB MISS):         0 
cpu0_ITLB AVERAGE MISS LATENCY: 10.5567 cycles
cpu0_DTLB TOTAL       ACCESS:   28837315  HIT:   25222436  MISS:    3614879  iACCESS:          0  iHIT:          0  iMISS:          0  dACCESS:   28837315  dHIT:   25222436  dMISS:    3614879  itACCESS:          0  itHIT:          0  itMISS:          0  dtACCESS:          0  dtHIT:          0  dtMISS:          0
cpu0_DTLB LOAD         ACCESS:   28837315  HIT:   25222436  MISS:    3614879  iACCESS:          0  iHIT:          0  iMISS:          0  dACCESS:   28837315  dHIT:   25222436  dMISS:    3614879  itACCESS:          0  itHIT:          0  itMISS:          0  dtACCESS:          0  dtHIT:          0  dtMISS:          0
cpu0_DTLB RFO          ACCESS:          0  HIT:          0  MISS:          0  iACCESS:          0  iHIT:          0  iMISS:          0  dACCESS:          0  dHIT:          0  dMISS:          0  itACCESS:          0  itHIT:          0  itMISS:          0  dtACCESS:          0  dtHIT:          0  dtMISS:          0
cpu0_DTLB PREFETCH     ACCESS:          0  HIT:          0  MISS:          0  iACCESS:          0  iHIT:          0  iMISS:          0  dACCESS:          0  dHIT:          0  dMISS:          0  itACCESS:          0  itHIT:          0  itMISS:          0  dtACCESS:          0  dtHIT:          0  dtMISS:          0
cpu0_DTLB WRITE        ACCESS:          0  HIT:          0  MISS:          0  iACCESS:          0  iHIT:          0  iMISS:          0  dACCESS:          0  dHIT:          0  dMISS:          0  itACCESS:          0  itHIT:          0  itMISS:          0  dtACCESS:          0  dtHIT:          0  dtMISS:          0
cpu0_DTLB TRANSLATION  ACCESS:          0  HIT:          0  MISS:          0  iACCESS:          0  iHIT:          0  iMISS:          0  dACCESS:          0  dHIT:          0  dMISS:          0  itACCESS:          0  itHIT:          0  itMISS:          0  dtACCESS:          0  dtHIT:          0  dtMISS:          0
cpu0_DTLB PREFETCH  REQUESTED:          0  ISSUED:          0  CROSSED:          0  USEFUL:          0  USELESS:          0
cpu0_DTLB AVERAGE iMISS LATENCY: 0 cycles
cpu0_DTLB AVERAGE dMISS LATENCY: 24.9957 cycles
cpu0_DTLB AVERAGE itMISS LATENCY: 0 cycles
cpu0_DTLB AVERAGE dtMISS LATENCY: 0 cycles
cpu0_DTLB PAGE CROSSINGS (TLB HIT):         0 
cpu0_DTLB PAGE CROSSINGS (TLB MISS):         0 
cpu0_DTLB AVERAGE MISS LATENCY: 24.9957 cycles
cpu0_STLB TOTAL       ACCESS:    2573989  HIT:    2191682  MISS:     382307  iACCESS:     468462  iHIT:     349905  iMISS:     118557  dACCESS:    2105527  dHIT:    1841777  dMISS:     263750  itACCESS:          0  itHIT:          0  itMISS:          0  dtACCESS:          0  dtHIT:          0  dtMISS:          0
cpu0_STLB LOAD         ACCESS:    2573989  HIT:    2191682  MISS:     382307  iACCESS:     468462  iHIT:     349905  iMISS:     118557  dACCESS:    2105527  dHIT:    1841777  dMISS:     263750  itACCESS:          0  itHIT:          0  itMISS:          0  dtACCESS:          0  dtHIT:          0  dtMISS:          0
cpu0_STLB RFO          ACCESS:          0  HIT:          0  MISS:          0  iACCESS:          0  iHIT:          0  iMISS:          0  dACCESS:          0  dHIT:          0  dMISS:          0  itACCESS:          0  itHIT:          0  itMISS:          0  dtACCESS:          0  dtHIT:          0  dtMISS:          0
cpu0_STLB PREFETCH     ACCESS:          0  HIT:          0  MISS:          0  iACCESS:          0  iHIT:          0  iMISS:          0  dACCESS:          0  dHIT:          0  dMISS:          0  itACCESS:          0  itHIT:          0  itMISS:          0  dtACCESS:          0  dtHIT:          0  dtMISS:          0
cpu0_STLB WRITE        ACCESS:          0  HIT:          0  MISS:          0  iACCESS:          0  iHIT:          0  iMISS:          0  dACCESS:          0  dHIT:          0  dMISS:          0  itACCESS:          0  itHIT:          0  itMISS:          0  dtACCESS:          0  dtHIT:          0  dtMISS:          0
cpu0_STLB TRANSLATION  ACCESS:          0  HIT:          0  MISS:          0  iACCESS:          0  iHIT:          0  iMISS:          0  dACCESS:          0  dHIT:          0  dMISS:          0  itACCESS:          0  itHIT:          0  itMISS:          0  dtACCESS:          0  dtHIT:          0  dtMISS:          0
cpu0_STLB PREFETCH  REQUESTED:          0  ISSUED:          0  CROSSED:          0  USEFUL:          0  USELESS:          0
cpu0_STLB AVERAGE iMISS LATENCY: 51.7244 cycles
cpu0_STLB AVERAGE dMISS LATENCY: 192.003 cycles
cpu0_STLB AVERAGE itMISS LATENCY: 0 cycles
cpu0_STLB AVERAGE dtMISS LATENCY: 0 cycles
cpu0_STLB PAGE CROSSINGS (TLB HIT):         0 
cpu0_STLB PAGE CROSSINGS (TLB MISS):         0 
cpu0_STLB AVERAGE MISS LATENCY: 243.728 cycles
cpu0_L1D TOTAL       ACCESS:   44864844  HIT:   39084833  MISS:    5780011  iACCESS:          0  iHIT:          0  iMISS:          0  dACCESS:   44310257  dHIT:   39050845  dMISS:    5259412  itACCESS:     132627  itHIT:      14470  itMISS:     118157  dtACCESS:     421960  dtHIT:      19518  dtMISS:     402442
cpu0_L1D LOAD         ACCESS:   20238239  HIT:   17884171  MISS:    2354068  iACCESS:          0  iHIT:          0  iMISS:          0  dACCESS:   20238239  dHIT:   17884171  dMISS:    2354068  itACCESS:          0  itHIT:          0  itMISS:          0  dtACCESS:          0  dtHIT:          0  dtMISS:          0
cpu0_L1D RFO          ACCESS:          0  HIT:          0  MISS:          0  iACCESS:          0  iHIT:          0  iMISS:          0  dACCESS:          0  dHIT:          0  dMISS:          0  itACCESS:          0  itHIT:          0  itMISS:          0  dtACCESS:          0  dtHIT:          0  dtMISS:          0
cpu0_L1D PREFETCH     ACCESS:   13922770  HIT:   11588039  MISS:    2334731  iACCESS:          0  iHIT:          0  iMISS:          0  dACCESS:   13922770  dHIT:   11588039  dMISS:    2334731  itACCESS:          0  itHIT:          0  itMISS:          0  dtACCESS:          0  dtHIT:          0  dtMISS:          0
cpu0_L1D WRITE        ACCESS:   10149248  HIT:    9578635  MISS:     570613  iACCESS:          0  iHIT:          0  iMISS:          0  dACCESS:   10149248  dHIT:    9578635  dMISS:     570613  itACCESS:          0  itHIT:          0  itMISS:          0  dtACCESS:          0  dtHIT:          0  dtMISS:          0
cpu0_L1D TRANSLATION  ACCESS:     554587  HIT:      33988  MISS:     520599  iACCESS:          0  iHIT:          0  iMISS:          0  dACCESS:          0  dHIT:          0  dMISS:          0  itACCESS:     132627  itHIT:      14470  itMISS:     118157  dtACCESS:     421960  dtHIT:      19518  dtMISS:     402442
cpu0_L1D PREFETCH  REQUESTED:   20238239  ISSUED:   18404382  CROSSED:          0  USEFUL:     358934  USELESS:     927258
cpu0_L1D AVERAGE iMISS LATENCY: 0 cycles
cpu0_L1D AVERAGE dMISS LATENCY: 49.6169 cycles
cpu0_L1D AVERAGE itMISS LATENCY: 3.23326 cycles
cpu0_L1D AVERAGE dtMISS LATENCY: 11.9129 cycles
cpu0_L1D PAGE CROSSINGS (TLB HIT):         0 
cpu0_L1D PAGE CROSSINGS (TLB MISS):         0 
cpu0_L1D AVERAGE MISS LATENCY: 64.763 cycles
cpu0_L2C TOTAL       ACCESS:    8620964  HIT:    4185463  MISS:    4435501  iACCESS:    3779447  iHIT:    2296763  iMISS:    1482684  dACCESS:    4351250  dHIT:    1828045  dMISS:    2523205  itACCESS:     117407  itHIT:      22220  itMISS:      95187  dtACCESS:     372860  dtHIT:      38435  dtMISS:     334425
cpu0_L2C LOAD         ACCESS:    2042360  HIT:     997744  MISS:    1044616  iACCESS:     845330  iHIT:     536312  iMISS:     309018  dACCESS:    1197030  dHIT:     461432  dMISS:     735598  itACCESS:          0  itHIT:          0  itMISS:          0  dtACCESS:          0  dtHIT:          0  dtMISS:          0
cpu0_L2C RFO          ACCESS:     219574  HIT:      84443  MISS:     135131  iACCESS:          0  iHIT:          0  iMISS:          0  dACCESS:     219574  dHIT:      84443  dMISS:     135131  itACCESS:          0  itHIT:          0  itMISS:          0  dtACCESS:          0  dtHIT:          0  dtMISS:          0
cpu0_L2C PREFETCH     ACCESS:    5523111  HIT:    2701055  MISS:    2822056  iACCESS:    2934117  iHIT:    1760451  iMISS:    1173666  dACCESS:    2588994  dHIT:     940604  dMISS:    1648390  itACCESS:          0  itHIT:          0  itMISS:          0  dtACCESS:          0  dtHIT:          0  dtMISS:          0
cpu0_L2C WRITE        ACCESS:     345652  HIT:     341566  MISS:       4086  iACCESS:          0  iHIT:          0  iMISS:          0  dACCESS:     345652  dHIT:     341566  dMISS:       4086  itACCESS:          0  itHIT:          0  itMISS:          0  dtACCESS:          0  dtHIT:          0  dtMISS:          0
cpu0_L2C TRANSLATION  ACCESS:     490267  HIT:      60655  MISS:     429612  iACCESS:          0  iHIT:          0  iMISS:          0  dACCESS:          0  dHIT:          0  dMISS:          0  itACCESS:     117407  itHIT:      22220  itMISS:      95187  dtACCESS:     372860  dtHIT:      38435  dtMISS:     334425
cpu0_L2C PREFETCH  REQUESTED:    1544949  ISSUED:    1544946  CROSSED:          0  USEFUL:     360168  USELESS:     325415
cpu0_L2C AVERAGE iMISS LATENCY: 41.1328 cycles
cpu0_L2C AVERAGE dMISS LATENCY: 80.6543 cycles
cpu0_L2C AVERAGE itMISS LATENCY: 3.95287 cycles
cpu0_L2C AVERAGE dtMISS LATENCY: 14.6873 cycles
cpu0_L2C PAGE CROSSINGS (TLB HIT):         0 
cpu0_L2C PAGE CROSSINGS (TLB MISS):         0 
cpu0_L2C AVERAGE MISS LATENCY: 140.428 cycles
LLC TOTAL       ACCESS:    4419407  HIT:    1284337  MISS:    3135070  iACCESS:    1390591  iHIT:     411540  iMISS:     979051  dACCESS:    2599204  dHIT:     832346  dMISS:    1766858  itACCESS:      95187  itHIT:       7442  itMISS:      87745  dtACCESS:     334425  dtHIT:      33009  dtMISS:     301416
LLC LOAD         ACCESS:    1037620  HIT:     318064  MISS:     719556  iACCESS:     307766  iHIT:      96680  iMISS:     211086  dACCESS:     729854  dHIT:     221384  dMISS:     508470  itACCESS:          0  itHIT:          0  itMISS:          0  dtACCESS:          0  dtHIT:          0  dtMISS:          0
LLC RFO          ACCESS:     135125  HIT:      39877  MISS:      95248  iACCESS:          0  iHIT:          0  iMISS:          0  dACCESS:     135125  dHIT:      39877  dMISS:      95248  itACCESS:          0  itHIT:          0  itMISS:          0  dtACCESS:          0  dtHIT:          0  dtMISS:          0
LLC PREFETCH     ACCESS:    2605388  HIT:     685045  MISS:    1920343  iACCESS:    1082825  iHIT:     314860  iMISS:     767965  dACCESS:    1522563  dHIT:     370185  dMISS:    1152378  itACCESS:          0  itHIT:          0  itMISS:          0  dtACCESS:          0  dtHIT:          0  dtMISS:          0
LLC WRITE        ACCESS:     211662  HIT:     200900  MISS:      10762  iACCESS:          0  iHIT:          0  iMISS:          0  dACCESS:     211662  dHIT:     200900  dMISS:      10762  itACCESS:          0  itHIT:          0  itMISS:          0  dtACCESS:          0  dtHIT:          0  dtMISS:          0
LLC TRANSLATION  ACCESS:     429612  HIT:      40451  MISS:     389161  iACCESS:          0  iHIT:          0  iMISS:          0  dACCESS:          0  dHIT:          0  dMISS:          0  itACCESS:      95187  itHIT:       7442  itMISS:      87745  dtACCESS:     334425  dtHIT:      33009  dtMISS:     301416
LLC PREFETCH  REQUESTED:          0  ISSUED:          0  CROSSED:          0  USEFUL:          0  USELESS:          0
LLC AVERAGE iMISS LATENCY: 49.4504 cycles
LLC AVERAGE dMISS LATENCY: 100.14 cycles
LLC AVERAGE itMISS LATENCY: 4.99038 cycles
LLC AVERAGE dtMISS LATENCY: 18.6704 cycles
LLC PAGE CROSSINGS (TLB HIT):         0 
LLC PAGE CROSSINGS (TLB MISS):         0 
LLC AVERAGE MISS LATENCY: 173.251 cycles

PageTableWalker TOTAL       ACCESS:     195960  
PageTableWalker AVERAGE LATENCY: 6.41728 cycles
PageTableWalker TOTAL LATENCY: 1257529 cycles

DRAM Statistics
Channel 0
 RQ ROW_BUFFER_HIT:     650722
  ROW_BUFFER_MISS:    2452786
 AVG DBUS CONGESTED CYCLE:    3.65158
 WQ ROW_BUFFER_HIT:      66418
  ROW_BUFFER_MISS:      56258  FULL:          0

