last_page:0x200000000000000
VMEM_RES_CAP:0x100000
PAGE_SIZE:4096
LOG2_PAGE_SIZE:12
LOG2_PAGE_TABLE_SIZE:9
page_table_levels:5
WARNING: physical memory size is smaller than virtual memory size
FDiP enabled with aggresivity 16

*** ChampSim Multicore Out-of-Order Simulator ***

Warmup Instructions: 50000000
Simulation Instructions: 100000000
Number of CPUs: 1
Small page size: 4096
Large page size: 2097152

CPU 0 Bimodal branch predictor
Basic BTB sets: 1024 ways: 8 indirect buffer size: 4096 RAS size: 64
Instruction page size distrubution: 0
Loading instruction page size distribution from /home/bsc/bsc018186/scratch/itp_asplos25_AE/dump/smt_srv540_ap_srv551_ap_1024i.pdst
Data page size distrubution: 0
Loading data page size distribution from /home/bsc/bsc018186/scratch/itp_asplos25_AE/dump/smt_srv540_ap_srv551_ap_1024i.pdst
cpu0_L2C IP-based stride prefetcher
cpu0_L1D next line prefetcher
cpu0_L1I next line prefetcher
Off-chip DRAM Size: 4 GiB Channels: 1 Width: 64-bit Data Rate: 3200 MT/s
Heartbeat CPU 0 instructions: 10000002 cycles: 2500477 heartbeat IPC: 3.99924 cumulative IPC: 3.99924 (Simulation time: 0 hr 0 min 47 sec) 
Heartbeat CPU 0 instructions: 20000003 cycles: 5000674 heartbeat IPC: 3.99969 cumulative IPC: 3.99947 (Simulation time: 0 hr 1 min 36 sec) 
Heartbeat CPU 0 instructions: 30000001 cycles: 7500945 heartbeat IPC: 3.99957 cumulative IPC: 3.9995 (Simulation time: 0 hr 2 min 25 sec) 
Heartbeat CPU 0 instructions: 40000002 cycles: 10001303 heartbeat IPC: 3.99943 cumulative IPC: 3.99948 (Simulation time: 0 hr 3 min 15 sec) 
Heartbeat CPU 0 instructions: 50000000 cycles: 12501795 heartbeat IPC: 3.99922 cumulative IPC: 3.99943 (Simulation time: 0 hr 4 min 5 sec) 
Warmup finished CPU 0 instructions: 50000000 cycles: 12501796 cumulative IPC: 3.99943 (Simulation time: 0 hr 4 min 5 sec) 

Warmup complete CPU 0 instructions: 50000000 cycles: 12501796 (Simulation time: 0 hr 4 min 5 sec) 

Heartbeat CPU 0 instructions: 60000000 cycles: 40481846 heartbeat IPC: 0.357398 cumulative IPC: 0.357398 (Simulation time: 0 hr 5 min 42 sec) 
Heartbeat CPU 0 instructions: 70000000 cycles: 68867065 heartbeat IPC: 0.352297 cumulative IPC: 0.354829 (Simulation time: 0 hr 7 min 22 sec) 
Heartbeat CPU 0 instructions: 80000002 cycles: 96834394 heartbeat IPC: 0.357561 cumulative IPC: 0.355735 (Simulation time: 0 hr 9 min 2 sec) 
Heartbeat CPU 0 instructions: 90000000 cycles: 124716567 heartbeat IPC: 0.358653 cumulative IPC: 0.35646 (Simulation time: 0 hr 10 min 42 sec) 
Heartbeat CPU 0 instructions: 100000003 cycles: 153544145 heartbeat IPC: 0.346891 cumulative IPC: 0.354504 (Simulation time: 0 hr 12 min 20 sec) 
Heartbeat CPU 0 instructions: 110000000 cycles: 180405242 heartbeat IPC: 0.372286 cumulative IPC: 0.357349 (Simulation time: 0 hr 13 min 58 sec) 
Heartbeat CPU 0 instructions: 120000000 cycles: 204979084 heartbeat IPC: 0.406937 cumulative IPC: 0.36368 (Simulation time: 0 hr 15 min 31 sec) 
Heartbeat CPU 0 instructions: 130000000 cycles: 222059035 heartbeat IPC: 0.585482 cumulative IPC: 0.381758 (Simulation time: 0 hr 16 min 48 sec) 
Heartbeat CPU 0 instructions: 140000002 cycles: 239838856 heartbeat IPC: 0.562436 cumulative IPC: 0.395888 (Simulation time: 0 hr 18 min 3 sec) 
Heartbeat CPU 0 instructions: 150000001 cycles: 268089034 heartbeat IPC: 0.353981 cumulative IPC: 0.391256 (Simulation time: 0 hr 19 min 30 sec) 
Simulation finished CPU 0 instructions: 100000001 cycles: 255587239 cumulative IPC: 0.391256 (Simulation time: 0 hr 19 min 30 sec) 

Simulation complete CPU 0 instructions: 100000001 cycles: 255587239 (Simulation time: 0 hr 19 min 30 sec) 


ChampSim completed all CPUs

Saving instructions large page distribution to /home/bsc/bsc018186/scratch/itp_asplos25_AE/dump/smt_srv540_ap_srv551_ap_1024i.pdst...
Saving data large page distribution to /home/bsc/bsc018186/scratch/itp_asplos25_AE/dump/smt_srv540_ap_srv551_ap_1024i.pdst...
=== Simulation ===
CPU 0 runs /gpfs/projects/bsc18/MN4/bsc18/romol/ChampSim/traces/qualcomm_srv/smt_srv540_ap_srv551_ap_1024i.champsimtrace.xz

Region of Interest Statistics

CPU 0 cumulative IPC: 0.391256 instructions: 100000001 cycles: 255587239
CPU 0 Branch Prediction Accuracy: 77.9969% MPKI: 42.4508 Average ROB Occupancy at Mispredict: 11.4261
Branch type MPKI
BRANCH_DIRECT_JUMP: 1.23399
BRANCH_INDIRECT: 22.826
BRANCH_CONDITIONAL: 11.6402
BRANCH_DIRECT_CALL: 2.36679
BRANCH_INDIRECT_CALL: 1.07038
BRANCH_RETURN: 3.31346

Instructions large pages: 0
Instructions small pages: 10131
Large page distribution for instructions: 0%

Data large pages: 0
Data small pages: 8688
Large page distribution for data: 0%

cpu0_L1I TOTAL       ACCESS:   40021842  HIT:   31898520  MISS:    8123322  iACCESS:   40021842  iHIT:   31898520  iMISS:    8123322  dACCESS:          0  dHIT:          0  dMISS:          0  itACCESS:          0  itHIT:          0  itMISS:          0  dtACCESS:          0  dtHIT:          0  dtMISS:          0
cpu0_L1I LOAD         ACCESS:   11411485  HIT:    9208664  MISS:    2202821  iACCESS:   11411485  iHIT:    9208664  iMISS:    2202821  dACCESS:          0  dHIT:          0  dMISS:          0  itACCESS:          0  itHIT:          0  itMISS:          0  dtACCESS:          0  dtHIT:          0  dtMISS:          0
cpu0_L1I RFO          ACCESS:          0  HIT:          0  MISS:          0  iACCESS:          0  iHIT:          0  iMISS:          0  dACCESS:          0  dHIT:          0  dMISS:          0  itACCESS:          0  itHIT:          0  itMISS:          0  dtACCESS:          0  dtHIT:          0  dtMISS:          0
cpu0_L1I PREFETCH     ACCESS:   28610357  HIT:   22689856  MISS:    5920501  iACCESS:   28610357  iHIT:   22689856  iMISS:    5920501  dACCESS:          0  dHIT:          0  dMISS:          0  itACCESS:          0  itHIT:          0  itMISS:          0  dtACCESS:          0  dtHIT:          0  dtMISS:          0
cpu0_L1I WRITE        ACCESS:          0  HIT:          0  MISS:          0  iACCESS:          0  iHIT:          0  iMISS:          0  dACCESS:          0  dHIT:          0  dMISS:          0  itACCESS:          0  itHIT:          0  itMISS:          0  dtACCESS:          0  dtHIT:          0  dtMISS:          0
cpu0_L1I TRANSLATION  ACCESS:          0  HIT:          0  MISS:          0  iACCESS:          0  iHIT:          0  iMISS:          0  dACCESS:          0  dHIT:          0  dMISS:          0  itACCESS:          0  itHIT:          0  itMISS:          0  dtACCESS:          0  dtHIT:          0  dtMISS:          0
cpu0_L1I PREFETCH  REQUESTED:   31115128  ISSUED:   31113911  CROSSED:          0  USEFUL:    1962292  USELESS:     677059
cpu0_L1I AVERAGE iMISS LATENCY: 24.1891 cycles
cpu0_L1I AVERAGE dMISS LATENCY: 0 cycles
cpu0_L1I AVERAGE itMISS LATENCY: 0 cycles
cpu0_L1I AVERAGE dtMISS LATENCY: 0 cycles
cpu0_L1I PAGE CROSSINGS (TLB HIT):         0 
cpu0_L1I PAGE CROSSINGS (TLB MISS):         0 
cpu0_L1I AVERAGE MISS LATENCY: 24.1891 cycles
cpu0_ITLB TOTAL       ACCESS:   33479932  HIT:   31513167  MISS:    1966765  iACCESS:   33479932  iHIT:   31513167  iMISS:    1966765  dACCESS:          0  dHIT:          0  dMISS:          0  itACCESS:          0  itHIT:          0  itMISS:          0  dtACCESS:          0  dtHIT:          0  dtMISS:          0
cpu0_ITLB LOAD         ACCESS:   33479932  HIT:   31513167  MISS:    1966765  iACCESS:   33479932  iHIT:   31513167  iMISS:    1966765  dACCESS:          0  dHIT:          0  dMISS:          0  itACCESS:          0  itHIT:          0  itMISS:          0  dtACCESS:          0  dtHIT:          0  dtMISS:          0
cpu0_ITLB RFO          ACCESS:          0  HIT:          0  MISS:          0  iACCESS:          0  iHIT:          0  iMISS:          0  dACCESS:          0  dHIT:          0  dMISS:          0  itACCESS:          0  itHIT:          0  itMISS:          0  dtACCESS:          0  dtHIT:          0  dtMISS:          0
cpu0_ITLB PREFETCH     ACCESS:          0  HIT:          0  MISS:          0  iACCESS:          0  iHIT:          0  iMISS:          0  dACCESS:          0  dHIT:          0  dMISS:          0  itACCESS:          0  itHIT:          0  itMISS:          0  dtACCESS:          0  dtHIT:          0  dtMISS:          0
cpu0_ITLB WRITE        ACCESS:          0  HIT:          0  MISS:          0  iACCESS:          0  iHIT:          0  iMISS:          0  dACCESS:          0  dHIT:          0  dMISS:          0  itACCESS:          0  itHIT:          0  itMISS:          0  dtACCESS:          0  dtHIT:          0  dtMISS:          0
cpu0_ITLB TRANSLATION  ACCESS:          0  HIT:          0  MISS:          0  iACCESS:          0  iHIT:          0  iMISS:          0  dACCESS:          0  dHIT:          0  dMISS:          0  itACCESS:          0  itHIT:          0  itMISS:          0  dtACCESS:          0  dtHIT:          0  dtMISS:          0
cpu0_ITLB PREFETCH  REQUESTED:          0  ISSUED:          0  CROSSED:          0  USEFUL:     345682  USELESS:      70471
cpu0_ITLB AVERAGE iMISS LATENCY: 7.90728 cycles
cpu0_ITLB AVERAGE dMISS LATENCY: 0 cycles
cpu0_ITLB AVERAGE itMISS LATENCY: 0 cycles
cpu0_ITLB AVERAGE dtMISS LATENCY: 0 cycles
cpu0_ITLB PAGE CROSSINGS (TLB HIT):         0 
cpu0_ITLB PAGE CROSSINGS (TLB MISS):         0 
cpu0_ITLB AVERAGE MISS LATENCY: 7.90728 cycles
cpu0_DTLB TOTAL       ACCESS:   30751074  HIT:   24692849  MISS:    6058225  iACCESS:          0  iHIT:          0  iMISS:          0  dACCESS:   30751074  dHIT:   24692849  dMISS:    6058225  itACCESS:          0  itHIT:          0  itMISS:          0  dtACCESS:          0  dtHIT:          0  dtMISS:          0
cpu0_DTLB LOAD         ACCESS:   30751074  HIT:   24692849  MISS:    6058225  iACCESS:          0  iHIT:          0  iMISS:          0  dACCESS:   30751074  dHIT:   24692849  dMISS:    6058225  itACCESS:          0  itHIT:          0  itMISS:          0  dtACCESS:          0  dtHIT:          0  dtMISS:          0
cpu0_DTLB RFO          ACCESS:          0  HIT:          0  MISS:          0  iACCESS:          0  iHIT:          0  iMISS:          0  dACCESS:          0  dHIT:          0  dMISS:          0  itACCESS:          0  itHIT:          0  itMISS:          0  dtACCESS:          0  dtHIT:          0  dtMISS:          0
cpu0_DTLB PREFETCH     ACCESS:          0  HIT:          0  MISS:          0  iACCESS:          0  iHIT:          0  iMISS:          0  dACCESS:          0  dHIT:          0  dMISS:          0  itACCESS:          0  itHIT:          0  itMISS:          0  dtACCESS:          0  dtHIT:          0  dtMISS:          0
cpu0_DTLB WRITE        ACCESS:          0  HIT:          0  MISS:          0  iACCESS:          0  iHIT:          0  iMISS:          0  dACCESS:          0  dHIT:          0  dMISS:          0  itACCESS:          0  itHIT:          0  itMISS:          0  dtACCESS:          0  dtHIT:          0  dtMISS:          0
cpu0_DTLB TRANSLATION  ACCESS:          0  HIT:          0  MISS:          0  iACCESS:          0  iHIT:          0  iMISS:          0  dACCESS:          0  dHIT:          0  dMISS:          0  itACCESS:          0  itHIT:          0  itMISS:          0  dtACCESS:          0  dtHIT:          0  dtMISS:          0
cpu0_DTLB PREFETCH  REQUESTED:          0  ISSUED:          0  CROSSED:          0  USEFUL:          0  USELESS:          0
cpu0_DTLB AVERAGE iMISS LATENCY: 0 cycles
cpu0_DTLB AVERAGE dMISS LATENCY: 10.5315 cycles
cpu0_DTLB AVERAGE itMISS LATENCY: 0 cycles
cpu0_DTLB AVERAGE dtMISS LATENCY: 0 cycles
cpu0_DTLB PAGE CROSSINGS (TLB HIT):         0 
cpu0_DTLB PAGE CROSSINGS (TLB MISS):         0 
cpu0_DTLB AVERAGE MISS LATENCY: 10.5315 cycles
cpu0_STLB TOTAL       ACCESS:    3673441  HIT:    3344728  MISS:     328713  iACCESS:     416164  iHIT:     312517  iMISS:     103647  dACCESS:    3257277  dHIT:    3032211  dMISS:     225066  itACCESS:          0  itHIT:          0  itMISS:          0  dtACCESS:          0  dtHIT:          0  dtMISS:          0
cpu0_STLB LOAD         ACCESS:    3673441  HIT:    3344728  MISS:     328713  iACCESS:     416164  iHIT:     312517  iMISS:     103647  dACCESS:    3257277  dHIT:    3032211  dMISS:     225066  itACCESS:          0  itHIT:          0  itMISS:          0  dtACCESS:          0  dtHIT:          0  dtMISS:          0
cpu0_STLB RFO          ACCESS:          0  HIT:          0  MISS:          0  iACCESS:          0  iHIT:          0  iMISS:          0  dACCESS:          0  dHIT:          0  dMISS:          0  itACCESS:          0  itHIT:          0  itMISS:          0  dtACCESS:          0  dtHIT:          0  dtMISS:          0
cpu0_STLB PREFETCH     ACCESS:          0  HIT:          0  MISS:          0  iACCESS:          0  iHIT:          0  iMISS:          0  dACCESS:          0  dHIT:          0  dMISS:          0  itACCESS:          0  itHIT:          0  itMISS:          0  dtACCESS:          0  dtHIT:          0  dtMISS:          0
cpu0_STLB WRITE        ACCESS:          0  HIT:          0  MISS:          0  iACCESS:          0  iHIT:          0  iMISS:          0  dACCESS:          0  dHIT:          0  dMISS:          0  itACCESS:          0  itHIT:          0  itMISS:          0  dtACCESS:          0  dtHIT:          0  dtMISS:          0
cpu0_STLB TRANSLATION  ACCESS:          0  HIT:          0  MISS:          0  iACCESS:          0  iHIT:          0  iMISS:          0  dACCESS:          0  dHIT:          0  dMISS:          0  itACCESS:          0  itHIT:          0  itMISS:          0  dtACCESS:          0  dtHIT:          0  dtMISS:          0
cpu0_STLB PREFETCH  REQUESTED:          0  ISSUED:          0  CROSSED:          0  USEFUL:          0  USELESS:          0
cpu0_STLB AVERAGE iMISS LATENCY: 37.1857 cycles
cpu0_STLB AVERAGE dMISS LATENCY: 114.019 cycles
cpu0_STLB AVERAGE itMISS LATENCY: 0 cycles
cpu0_STLB AVERAGE dtMISS LATENCY: 0 cycles
cpu0_STLB PAGE CROSSINGS (TLB HIT):         0 
cpu0_STLB PAGE CROSSINGS (TLB MISS):         0 
cpu0_STLB AVERAGE MISS LATENCY: 151.204 cycles
cpu0_L1D TOTAL       ACCESS:   49551720  HIT:   39464245  MISS:   10087475  iACCESS:          0  iHIT:          0  iMISS:          0  dACCESS:   49081807  dHIT:   39435395  dMISS:    9646412  itACCESS:     115571  itHIT:      12483  itMISS:     103088  dtACCESS:     354342  dtHIT:      16367  dtMISS:     337975
cpu0_L1D LOAD         ACCESS:   23669454  HIT:   18336310  MISS:    5333144  iACCESS:          0  iHIT:          0  iMISS:          0  dACCESS:   23669454  dHIT:   18336310  dMISS:    5333144  itACCESS:          0  itHIT:          0  itMISS:          0  dtACCESS:          0  dtHIT:          0  dtMISS:          0
cpu0_L1D RFO          ACCESS:          0  HIT:          0  MISS:          0  iACCESS:          0  iHIT:          0  iMISS:          0  dACCESS:          0  dHIT:          0  dMISS:          0  itACCESS:          0  itHIT:          0  itMISS:          0  dtACCESS:          0  dtHIT:          0  dtMISS:          0
cpu0_L1D PREFETCH     ACCESS:   15636195  HIT:   11888028  MISS:    3748167  iACCESS:          0  iHIT:          0  iMISS:          0  dACCESS:   15636195  dHIT:   11888028  dMISS:    3748167  itACCESS:          0  itHIT:          0  itMISS:          0  dtACCESS:          0  dtHIT:          0  dtMISS:          0
cpu0_L1D WRITE        ACCESS:    9776158  HIT:    9211057  MISS:     565101  iACCESS:          0  iHIT:          0  iMISS:          0  dACCESS:    9776158  dHIT:    9211057  dMISS:     565101  itACCESS:          0  itHIT:          0  itMISS:          0  dtACCESS:          0  dtHIT:          0  dtMISS:          0
cpu0_L1D TRANSLATION  ACCESS:     469913  HIT:      28850  MISS:     441063  iACCESS:          0  iHIT:          0  iMISS:          0  dACCESS:          0  dHIT:          0  dMISS:          0  itACCESS:     115571  itHIT:      12483  itMISS:     103088  dtACCESS:     354342  dtHIT:      16367  dtMISS:     337975
cpu0_L1D PREFETCH  REQUESTED:   23669454  ISSUED:   18934433  CROSSED:          0  USEFUL:     327211  USELESS:    1091653
cpu0_L1D AVERAGE iMISS LATENCY: 0 cycles
cpu0_L1D AVERAGE dMISS LATENCY: 29.9849 cycles
cpu0_L1D AVERAGE itMISS LATENCY: 1.11448 cycles
cpu0_L1D AVERAGE dtMISS LATENCY: 3.3244 cycles
cpu0_L1D PAGE CROSSINGS (TLB HIT):         0 
cpu0_L1D PAGE CROSSINGS (TLB MISS):         0 
cpu0_L1D AVERAGE MISS LATENCY: 34.4237 cycles
cpu0_L2C TOTAL       ACCESS:    9801756  HIT:    2052179  MISS:    7749577  iACCESS:    3345225  iHIT:     703512  iMISS:    2641713  dACCESS:    6035819  dHIT:    1180824  dMISS:    4854995  itACCESS:     102947  itHIT:      35870  itMISS:      67077  dtACCESS:     317765  dtHIT:     131973  dtMISS:     185792
cpu0_L2C LOAD         ACCESS:    3625749  HIT:     747507  MISS:    2878242  iACCESS:     737627  iHIT:      96992  iMISS:     640635  dACCESS:    2888122  dHIT:     650515  dMISS:    2237607  itACCESS:          0  itHIT:          0  itMISS:          0  dtACCESS:          0  dtHIT:          0  dtMISS:          0
cpu0_L2C RFO          ACCESS:     226686  HIT:      47034  MISS:     179652  iACCESS:          0  iHIT:          0  iMISS:          0  dACCESS:     226686  dHIT:      47034  dMISS:     179652  itACCESS:          0  itHIT:          0  itMISS:          0  dtACCESS:          0  dtHIT:          0  dtMISS:          0
cpu0_L2C PREFETCH     ACCESS:    5203496  HIT:     986820  MISS:    4216676  iACCESS:    2607598  iHIT:     606520  iMISS:    2001078  dACCESS:    2595898  dHIT:     380300  dMISS:    2215598  itACCESS:          0  itHIT:          0  itMISS:          0  dtACCESS:          0  dtHIT:          0  dtMISS:          0
cpu0_L2C WRITE        ACCESS:     325113  HIT:     102975  MISS:     222138  iACCESS:          0  iHIT:          0  iMISS:          0  dACCESS:     325113  dHIT:     102975  dMISS:     222138  itACCESS:          0  itHIT:          0  itMISS:          0  dtACCESS:          0  dtHIT:          0  dtMISS:          0
cpu0_L2C TRANSLATION  ACCESS:     420712  HIT:     167843  MISS:     252869  iACCESS:          0  iHIT:          0  iMISS:          0  dACCESS:          0  dHIT:          0  dMISS:          0  itACCESS:     102947  itHIT:      35870  itMISS:      67077  dtACCESS:     317765  dtHIT:     131973  dtMISS:     185792
cpu0_L2C PREFETCH  REQUESTED:    1390199  ISSUED:    1390196  CROSSED:          0  USEFUL:     369396  USELESS:     436509
cpu0_L2C AVERAGE iMISS LATENCY: 21.6871 cycles
cpu0_L2C AVERAGE dMISS LATENCY: 43.7753 cycles
cpu0_L2C AVERAGE itMISS LATENCY: 1.32214 cycles
cpu0_L2C AVERAGE dtMISS LATENCY: 3.93252 cycles
cpu0_L2C PAGE CROSSINGS (TLB HIT):         0 
cpu0_L2C PAGE CROSSINGS (TLB MISS):         0 
cpu0_L2C AVERAGE MISS LATENCY: 70.717 cycles
LLC TOTAL       ACCESS:    7564272  HIT:    5183309  MISS:    2380963  iACCESS:    2560142  iHIT:    1805212  iMISS:     754930  dACCESS:    4751261  dHIT:    3315985  dMISS:    1435276  itACCESS:      67077  itHIT:      16984  itMISS:      50093  dtACCESS:     185792  dtHIT:      45128  dtMISS:     140664
LLC LOAD         ACCESS:    2869193  HIT:    2293742  MISS:     575451  iACCESS:     639373  iHIT:     478846  iMISS:     160527  dACCESS:    2229820  dHIT:    1814896  dMISS:     414924  itACCESS:          0  itHIT:          0  itMISS:          0  dtACCESS:          0  dtHIT:          0  dtMISS:          0
LLC RFO          ACCESS:     179633  HIT:      98424  MISS:      81209  iACCESS:          0  iHIT:          0  iMISS:          0  dACCESS:     179633  dHIT:      98424  dMISS:      81209  itACCESS:          0  itHIT:          0  itMISS:          0  dtACCESS:          0  dtHIT:          0  dtMISS:          0
LLC PREFETCH     ACCESS:    4007512  HIT:    2478962  MISS:    1528550  iACCESS:    1920769  iHIT:    1326366  iMISS:     594403  dACCESS:    2086743  dHIT:    1152596  dMISS:     934147  itACCESS:          0  itHIT:          0  itMISS:          0  dtACCESS:          0  dtHIT:          0  dtMISS:          0
LLC WRITE        ACCESS:     255065  HIT:     250069  MISS:       4996  iACCESS:          0  iHIT:          0  iMISS:          0  dACCESS:     255065  dHIT:     250069  dMISS:       4996  itACCESS:          0  itHIT:          0  itMISS:          0  dtACCESS:          0  dtHIT:          0  dtMISS:          0
LLC TRANSLATION  ACCESS:     252869  HIT:      62112  MISS:     190757  iACCESS:          0  iHIT:          0  iMISS:          0  dACCESS:          0  dHIT:          0  dMISS:          0  itACCESS:      67077  itHIT:      16984  itMISS:      50093  dtACCESS:     185792  dtHIT:      45128  dtMISS:     140664
LLC PREFETCH  REQUESTED:          0  ISSUED:          0  CROSSED:          0  USEFUL:          0  USELESS:          0
LLC AVERAGE iMISS LATENCY: 49.707 cycles
LLC AVERAGE dMISS LATENCY: 106.741 cycles
LLC AVERAGE itMISS LATENCY: 3.74871 cycles
LLC AVERAGE dtMISS LATENCY: 11.2635 cycles
LLC PAGE CROSSINGS (TLB HIT):         0 
LLC PAGE CROSSINGS (TLB MISS):         0 
LLC AVERAGE MISS LATENCY: 171.46 cycles

PageTableWalker TOTAL       ACCESS:     194756  
PageTableWalker AVERAGE LATENCY: 5.76434 cycles
PageTableWalker TOTAL LATENCY: 1122639 cycles

DRAM Statistics
Channel 0
 RQ ROW_BUFFER_HIT:     532100
  ROW_BUFFER_MISS:    1825244
 AVG DBUS CONGESTED CYCLE:    3.65298
 WQ ROW_BUFFER_HIT:      57793
  ROW_BUFFER_MISS:      55630  FULL:          0

