last_page:0x200000000000000
VMEM_RES_CAP:0x100000
PAGE_SIZE:4096
LOG2_PAGE_SIZE:12
LOG2_PAGE_TABLE_SIZE:9
page_table_levels:5
WARNING: physical memory size is smaller than virtual memory size
FDiP enabled with aggresivity 16

*** ChampSim Multicore Out-of-Order Simulator ***

Warmup Instructions: 50000000
Simulation Instructions: 100000000
Number of CPUs: 1
Small page size: 4096
Large page size: 2097152

CPU 0 Bimodal branch predictor
Basic BTB sets: 1024 ways: 8 indirect buffer size: 4096 RAS size: 64
Instruction page size distrubution: 0
Loading instruction page size distribution from /home/bsc/bsc018186/scratch/itp_asplos25_AE/dump/smt_srv537_ap_srv194_ap_1024i.pdst
Data page size distrubution: 0
Loading data page size distribution from /home/bsc/bsc018186/scratch/itp_asplos25_AE/dump/smt_srv537_ap_srv194_ap_1024i.pdst
cpu0_L2C IP-based stride prefetcher
cpu0_L1D next line prefetcher
cpu0_L1I next line prefetcher
Off-chip DRAM Size: 4 GiB Channels: 1 Width: 64-bit Data Rate: 3200 MT/s
Heartbeat CPU 0 instructions: 10000003 cycles: 2500660 heartbeat IPC: 3.99895 cumulative IPC: 3.99895 (Simulation time: 0 hr 0 min 39 sec) 
Heartbeat CPU 0 instructions: 20000000 cycles: 5001213 heartbeat IPC: 3.99912 cumulative IPC: 3.99903 (Simulation time: 0 hr 1 min 20 sec) 
Heartbeat CPU 0 instructions: 30000001 cycles: 7501655 heartbeat IPC: 3.9993 cumulative IPC: 3.99912 (Simulation time: 0 hr 2 min 2 sec) 
Heartbeat CPU 0 instructions: 40000000 cycles: 10002614 heartbeat IPC: 3.99847 cumulative IPC: 3.99896 (Simulation time: 0 hr 2 min 45 sec) 
Heartbeat CPU 0 instructions: 50000001 cycles: 12581036 heartbeat IPC: 3.87835 cumulative IPC: 3.97424 (Simulation time: 0 hr 3 min 26 sec) 
Warmup finished CPU 0 instructions: 50000001 cycles: 12581037 cumulative IPC: 3.97424 (Simulation time: 0 hr 3 min 26 sec) 

Warmup complete CPU 0 instructions: 50000001 cycles: 12581037 (Simulation time: 0 hr 3 min 26 sec) 

Heartbeat CPU 0 instructions: 60000004 cycles: 29822685 heartbeat IPC: 0.579992 cumulative IPC: 0.579992 (Simulation time: 0 hr 4 min 39 sec) 
Heartbeat CPU 0 instructions: 70000002 cycles: 51029998 heartbeat IPC: 0.471536 cumulative IPC: 0.520171 (Simulation time: 0 hr 5 min 57 sec) 
Heartbeat CPU 0 instructions: 80000003 cycles: 80750416 heartbeat IPC: 0.33647 cumulative IPC: 0.440081 (Simulation time: 0 hr 7 min 23 sec) 
Heartbeat CPU 0 instructions: 90000000 cycles: 109466772 heartbeat IPC: 0.348234 cumulative IPC: 0.412858 (Simulation time: 0 hr 8 min 49 sec) 
Heartbeat CPU 0 instructions: 100000003 cycles: 138326047 heartbeat IPC: 0.34651 cumulative IPC: 0.397631 (Simulation time: 0 hr 10 min 15 sec) 
Heartbeat CPU 0 instructions: 110000000 cycles: 167469225 heartbeat IPC: 0.343134 cumulative IPC: 0.387377 (Simulation time: 0 hr 11 min 42 sec) 
Heartbeat CPU 0 instructions: 120000000 cycles: 196751136 heartbeat IPC: 0.341508 cumulative IPC: 0.380084 (Simulation time: 0 hr 13 min 11 sec) 
Heartbeat CPU 0 instructions: 130000001 cycles: 225657867 heartbeat IPC: 0.345941 cumulative IPC: 0.375452 (Simulation time: 0 hr 14 min 41 sec) 
Heartbeat CPU 0 instructions: 140000004 cycles: 255463024 heartbeat IPC: 0.335513 cumulative IPC: 0.370551 (Simulation time: 0 hr 16 min 13 sec) 
Heartbeat CPU 0 instructions: 150000003 cycles: 285593462 heartbeat IPC: 0.331891 cumulative IPC: 0.366284 (Simulation time: 0 hr 17 min 41 sec) 
Simulation finished CPU 0 instructions: 100000002 cycles: 273012426 cumulative IPC: 0.366284 (Simulation time: 0 hr 17 min 41 sec) 

Simulation complete CPU 0 instructions: 100000002 cycles: 273012426 (Simulation time: 0 hr 17 min 41 sec) 


ChampSim completed all CPUs

Saving instructions large page distribution to /home/bsc/bsc018186/scratch/itp_asplos25_AE/dump/smt_srv537_ap_srv194_ap_1024i.pdst...
Saving data large page distribution to /home/bsc/bsc018186/scratch/itp_asplos25_AE/dump/smt_srv537_ap_srv194_ap_1024i.pdst...
=== Simulation ===
CPU 0 runs /gpfs/projects/bsc18/MN4/bsc18/romol/ChampSim/traces/qualcomm_srv/smt_srv537_ap_srv194_ap_1024i.champsimtrace.xz

Region of Interest Statistics

CPU 0 cumulative IPC: 0.366284 instructions: 100000002 cycles: 273012426
CPU 0 Branch Prediction Accuracy: 76.883% MPKI: 44.0864 Average ROB Occupancy at Mispredict: 10.4678
Branch type MPKI
BRANCH_DIRECT_JUMP: 1.38074
BRANCH_INDIRECT: 23.1592
BRANCH_CONDITIONAL: 12.3292
BRANCH_DIRECT_CALL: 2.63955
BRANCH_INDIRECT_CALL: 1.12195
BRANCH_RETURN: 3.45581

Instructions large pages: 0
Instructions small pages: 11612
Large page distribution for instructions: 0%

Data large pages: 0
Data small pages: 9842
Large page distribution for data: 0%

cpu0_L1I TOTAL       ACCESS:   40274013  HIT:   31411442  MISS:    8862571  iACCESS:   40274013  iHIT:   31411442  iMISS:    8862571  dACCESS:          0  dHIT:          0  dMISS:          0  itACCESS:          0  itHIT:          0  itMISS:          0  dtACCESS:          0  dtHIT:          0  dtMISS:          0
cpu0_L1I LOAD         ACCESS:   11575332  HIT:    9155781  MISS:    2419551  iACCESS:   11575332  iHIT:    9155781  iMISS:    2419551  dACCESS:          0  dHIT:          0  dMISS:          0  itACCESS:          0  itHIT:          0  itMISS:          0  dtACCESS:          0  dtHIT:          0  dtMISS:          0
cpu0_L1I RFO          ACCESS:          0  HIT:          0  MISS:          0  iACCESS:          0  iHIT:          0  iMISS:          0  dACCESS:          0  dHIT:          0  dMISS:          0  itACCESS:          0  itHIT:          0  itMISS:          0  dtACCESS:          0  dtHIT:          0  dtMISS:          0
cpu0_L1I PREFETCH     ACCESS:   28698681  HIT:   22255661  MISS:    6443020  iACCESS:   28698681  iHIT:   22255661  iMISS:    6443020  dACCESS:          0  dHIT:          0  dMISS:          0  itACCESS:          0  itHIT:          0  itMISS:          0  dtACCESS:          0  dtHIT:          0  dtMISS:          0
cpu0_L1I WRITE        ACCESS:          0  HIT:          0  MISS:          0  iACCESS:          0  iHIT:          0  iMISS:          0  dACCESS:          0  dHIT:          0  dMISS:          0  itACCESS:          0  itHIT:          0  itMISS:          0  dtACCESS:          0  dtHIT:          0  dtMISS:          0
cpu0_L1I TRANSLATION  ACCESS:          0  HIT:          0  MISS:          0  iACCESS:          0  iHIT:          0  iMISS:          0  dACCESS:          0  dHIT:          0  dMISS:          0  itACCESS:          0  itHIT:          0  itMISS:          0  dtACCESS:          0  dtHIT:          0  dtMISS:          0
cpu0_L1I PREFETCH  REQUESTED:   31139760  ISSUED:   31138409  CROSSED:          0  USEFUL:    2104013  USELESS:     751425
cpu0_L1I AVERAGE iMISS LATENCY: 24.6001 cycles
cpu0_L1I AVERAGE dMISS LATENCY: 0 cycles
cpu0_L1I AVERAGE itMISS LATENCY: 0 cycles
cpu0_L1I AVERAGE dtMISS LATENCY: 0 cycles
cpu0_L1I PAGE CROSSINGS (TLB HIT):         0 
cpu0_L1I PAGE CROSSINGS (TLB MISS):         0 
cpu0_L1I AVERAGE MISS LATENCY: 24.6001 cycles
cpu0_ITLB TOTAL       ACCESS:   33821277  HIT:   31652785  MISS:    2168492  iACCESS:   33821277  iHIT:   31652785  iMISS:    2168492  dACCESS:          0  dHIT:          0  dMISS:          0  itACCESS:          0  itHIT:          0  itMISS:          0  dtACCESS:          0  dtHIT:          0  dtMISS:          0
cpu0_ITLB LOAD         ACCESS:   33821277  HIT:   31652785  MISS:    2168492  iACCESS:   33821277  iHIT:   31652785  iMISS:    2168492  dACCESS:          0  dHIT:          0  dMISS:          0  itACCESS:          0  itHIT:          0  itMISS:          0  dtACCESS:          0  dtHIT:          0  dtMISS:          0
cpu0_ITLB RFO          ACCESS:          0  HIT:          0  MISS:          0  iACCESS:          0  iHIT:          0  iMISS:          0  dACCESS:          0  dHIT:          0  dMISS:          0  itACCESS:          0  itHIT:          0  itMISS:          0  dtACCESS:          0  dtHIT:          0  dtMISS:          0
cpu0_ITLB PREFETCH     ACCESS:          0  HIT:          0  MISS:          0  iACCESS:          0  iHIT:          0  iMISS:          0  dACCESS:          0  dHIT:          0  dMISS:          0  itACCESS:          0  itHIT:          0  itMISS:          0  dtACCESS:          0  dtHIT:          0  dtMISS:          0
cpu0_ITLB WRITE        ACCESS:          0  HIT:          0  MISS:          0  iACCESS:          0  iHIT:          0  iMISS:          0  dACCESS:          0  dHIT:          0  dMISS:          0  itACCESS:          0  itHIT:          0  itMISS:          0  dtACCESS:          0  dtHIT:          0  dtMISS:          0
cpu0_ITLB TRANSLATION  ACCESS:          0  HIT:          0  MISS:          0  iACCESS:          0  iHIT:          0  iMISS:          0  dACCESS:          0  dHIT:          0  dMISS:          0  itACCESS:          0  itHIT:          0  itMISS:          0  dtACCESS:          0  dtHIT:          0  dtMISS:          0
cpu0_ITLB PREFETCH  REQUESTED:          0  ISSUED:          0  CROSSED:          0  USEFUL:     381017  USELESS:      82003
cpu0_ITLB AVERAGE iMISS LATENCY: 7.94239 cycles
cpu0_ITLB AVERAGE dMISS LATENCY: 0 cycles
cpu0_ITLB AVERAGE itMISS LATENCY: 0 cycles
cpu0_ITLB AVERAGE dtMISS LATENCY: 0 cycles
cpu0_ITLB PAGE CROSSINGS (TLB HIT):         0 
cpu0_ITLB PAGE CROSSINGS (TLB MISS):         0 
cpu0_ITLB AVERAGE MISS LATENCY: 7.94239 cycles
cpu0_DTLB TOTAL       ACCESS:   30331509  HIT:   25346169  MISS:    4985340  iACCESS:          0  iHIT:          0  iMISS:          0  dACCESS:   30331509  dHIT:   25346169  dMISS:    4985340  itACCESS:          0  itHIT:          0  itMISS:          0  dtACCESS:          0  dtHIT:          0  dtMISS:          0
cpu0_DTLB LOAD         ACCESS:   30331509  HIT:   25346169  MISS:    4985340  iACCESS:          0  iHIT:          0  iMISS:          0  dACCESS:   30331509  dHIT:   25346169  dMISS:    4985340  itACCESS:          0  itHIT:          0  itMISS:          0  dtACCESS:          0  dtHIT:          0  dtMISS:          0
cpu0_DTLB RFO          ACCESS:          0  HIT:          0  MISS:          0  iACCESS:          0  iHIT:          0  iMISS:          0  dACCESS:          0  dHIT:          0  dMISS:          0  itACCESS:          0  itHIT:          0  itMISS:          0  dtACCESS:          0  dtHIT:          0  dtMISS:          0
cpu0_DTLB PREFETCH     ACCESS:          0  HIT:          0  MISS:          0  iACCESS:          0  iHIT:          0  iMISS:          0  dACCESS:          0  dHIT:          0  dMISS:          0  itACCESS:          0  itHIT:          0  itMISS:          0  dtACCESS:          0  dtHIT:          0  dtMISS:          0
cpu0_DTLB WRITE        ACCESS:          0  HIT:          0  MISS:          0  iACCESS:          0  iHIT:          0  iMISS:          0  dACCESS:          0  dHIT:          0  dMISS:          0  itACCESS:          0  itHIT:          0  itMISS:          0  dtACCESS:          0  dtHIT:          0  dtMISS:          0
cpu0_DTLB TRANSLATION  ACCESS:          0  HIT:          0  MISS:          0  iACCESS:          0  iHIT:          0  iMISS:          0  dACCESS:          0  dHIT:          0  dMISS:          0  itACCESS:          0  itHIT:          0  itMISS:          0  dtACCESS:          0  dtHIT:          0  dtMISS:          0
cpu0_DTLB PREFETCH  REQUESTED:          0  ISSUED:          0  CROSSED:          0  USEFUL:          0  USELESS:          0
cpu0_DTLB AVERAGE iMISS LATENCY: 0 cycles
cpu0_DTLB AVERAGE dMISS LATENCY: 12.8473 cycles
cpu0_DTLB AVERAGE itMISS LATENCY: 0 cycles
cpu0_DTLB AVERAGE dtMISS LATENCY: 0 cycles
cpu0_DTLB PAGE CROSSINGS (TLB HIT):         0 
cpu0_DTLB PAGE CROSSINGS (TLB MISS):         0 
cpu0_DTLB AVERAGE MISS LATENCY: 12.8473 cycles
cpu0_STLB TOTAL       ACCESS:    3176603  HIT:    2825903  MISS:     350700  iACCESS:     463031  iHIT:     347756  iMISS:     115275  dACCESS:    2713572  dHIT:    2478147  dMISS:     235425  itACCESS:          0  itHIT:          0  itMISS:          0  dtACCESS:          0  dtHIT:          0  dtMISS:          0
cpu0_STLB LOAD         ACCESS:    3176603  HIT:    2825903  MISS:     350700  iACCESS:     463031  iHIT:     347756  iMISS:     115275  dACCESS:    2713572  dHIT:    2478147  dMISS:     235425  itACCESS:          0  itHIT:          0  itMISS:          0  dtACCESS:          0  dtHIT:          0  dtMISS:          0
cpu0_STLB RFO          ACCESS:          0  HIT:          0  MISS:          0  iACCESS:          0  iHIT:          0  iMISS:          0  dACCESS:          0  dHIT:          0  dMISS:          0  itACCESS:          0  itHIT:          0  itMISS:          0  dtACCESS:          0  dtHIT:          0  dtMISS:          0
cpu0_STLB PREFETCH     ACCESS:          0  HIT:          0  MISS:          0  iACCESS:          0  iHIT:          0  iMISS:          0  dACCESS:          0  dHIT:          0  dMISS:          0  itACCESS:          0  itHIT:          0  itMISS:          0  dtACCESS:          0  dtHIT:          0  dtMISS:          0
cpu0_STLB WRITE        ACCESS:          0  HIT:          0  MISS:          0  iACCESS:          0  iHIT:          0  iMISS:          0  dACCESS:          0  dHIT:          0  dMISS:          0  itACCESS:          0  itHIT:          0  itMISS:          0  dtACCESS:          0  dtHIT:          0  dtMISS:          0
cpu0_STLB TRANSLATION  ACCESS:          0  HIT:          0  MISS:          0  iACCESS:          0  iHIT:          0  iMISS:          0  dACCESS:          0  dHIT:          0  dMISS:          0  itACCESS:          0  itHIT:          0  itMISS:          0  dtACCESS:          0  dtHIT:          0  dtMISS:          0
cpu0_STLB PREFETCH  REQUESTED:          0  ISSUED:          0  CROSSED:          0  USEFUL:          0  USELESS:          0
cpu0_STLB AVERAGE iMISS LATENCY: 38.5517 cycles
cpu0_STLB AVERAGE dMISS LATENCY: 120.123 cycles
cpu0_STLB AVERAGE itMISS LATENCY: 0 cycles
cpu0_STLB AVERAGE dtMISS LATENCY: 0 cycles
cpu0_STLB PAGE CROSSINGS (TLB HIT):         0 
cpu0_STLB PAGE CROSSINGS (TLB MISS):         0 
cpu0_STLB AVERAGE MISS LATENCY: 158.674 cycles
cpu0_L1D TOTAL       ACCESS:   48294537  HIT:   39796288  MISS:    8498249  iACCESS:          0  iHIT:          0  iMISS:          0  dACCESS:   47779493  dHIT:   39765937  dMISS:    8013556  itACCESS:     128201  itHIT:      14675  itMISS:     113526  dtACCESS:     386843  dtHIT:      15676  dtMISS:     371167
cpu0_L1D LOAD         ACCESS:   22542163  HIT:   18264402  MISS:    4277761  iACCESS:          0  iHIT:          0  iMISS:          0  dACCESS:   22542163  dHIT:   18264402  dMISS:    4277761  itACCESS:          0  itHIT:          0  itMISS:          0  dtACCESS:          0  dtHIT:          0  dtMISS:          0
cpu0_L1D RFO          ACCESS:          0  HIT:          0  MISS:          0  iACCESS:          0  iHIT:          0  iMISS:          0  dACCESS:          0  dHIT:          0  dMISS:          0  itACCESS:          0  itHIT:          0  itMISS:          0  dtACCESS:          0  dtHIT:          0  dtMISS:          0
cpu0_L1D PREFETCH     ACCESS:   15148542  HIT:   12025052  MISS:    3123490  iACCESS:          0  iHIT:          0  iMISS:          0  dACCESS:   15148542  dHIT:   12025052  dMISS:    3123490  itACCESS:          0  itHIT:          0  itMISS:          0  dtACCESS:          0  dtHIT:          0  dtMISS:          0
cpu0_L1D WRITE        ACCESS:   10088788  HIT:    9476483  MISS:     612305  iACCESS:          0  iHIT:          0  iMISS:          0  dACCESS:   10088788  dHIT:    9476483  dMISS:     612305  itACCESS:          0  itHIT:          0  itMISS:          0  dtACCESS:          0  dtHIT:          0  dtMISS:          0
cpu0_L1D TRANSLATION  ACCESS:     515044  HIT:      30351  MISS:     484693  iACCESS:          0  iHIT:          0  iMISS:          0  dACCESS:          0  dHIT:          0  dMISS:          0  itACCESS:     128201  itHIT:      14675  itMISS:     113526  dtACCESS:     386843  dtHIT:      15676  dtMISS:     371167
cpu0_L1D PREFETCH  REQUESTED:   22542163  ISSUED:   18818260  CROSSED:          0  USEFUL:     345326  USELESS:     958730
cpu0_L1D AVERAGE iMISS LATENCY: 0 cycles
cpu0_L1D AVERAGE dMISS LATENCY: 36.0733 cycles
cpu0_L1D AVERAGE itMISS LATENCY: 1.46341 cycles
cpu0_L1D AVERAGE dtMISS LATENCY: 4.46314 cycles
cpu0_L1D PAGE CROSSINGS (TLB HIT):         0 
cpu0_L1D PAGE CROSSINGS (TLB MISS):         0 
cpu0_L1D AVERAGE MISS LATENCY: 41.9999 cycles
cpu0_L2C TOTAL       ACCESS:    9499515  HIT:    1930124  MISS:    7569391  iACCESS:    3641070  iHIT:     743901  iMISS:    2897169  dACCESS:    5408218  dHIT:    1014122  dMISS:    4394096  itACCESS:     113177  itHIT:      40652  itMISS:      72525  dtACCESS:     337050  dtHIT:     131449  dtMISS:     205601
cpu0_L2C LOAD         ACCESS:    3146033  HIT:     668774  MISS:    2477259  iACCESS:     817227  iHIT:     113224  iMISS:     704003  dACCESS:    2328806  dHIT:     555550  dMISS:    1773256  itACCESS:          0  itHIT:          0  itMISS:          0  dtACCESS:          0  dtHIT:          0  dtMISS:          0
cpu0_L2C RFO          ACCESS:     238995  HIT:      35293  MISS:     203702  iACCESS:          0  iHIT:          0  iMISS:          0  dACCESS:     238995  dHIT:      35293  dMISS:     203702  itACCESS:          0  itHIT:          0  itMISS:          0  dtACCESS:          0  dtHIT:          0  dtMISS:          0
cpu0_L2C PREFETCH     ACCESS:    5328242  HIT:     952539  MISS:    4375703  iACCESS:    2823843  iHIT:     630677  iMISS:    2193166  dACCESS:    2504399  dHIT:     321862  dMISS:    2182537  itACCESS:          0  itHIT:          0  itMISS:          0  dtACCESS:          0  dtHIT:          0  dtMISS:          0
cpu0_L2C WRITE        ACCESS:     336018  HIT:     101417  MISS:     234601  iACCESS:          0  iHIT:          0  iMISS:          0  dACCESS:     336018  dHIT:     101417  dMISS:     234601  itACCESS:          0  itHIT:          0  itMISS:          0  dtACCESS:          0  dtHIT:          0  dtMISS:          0
cpu0_L2C TRANSLATION  ACCESS:     450227  HIT:     172101  MISS:     278126  iACCESS:          0  iHIT:          0  iMISS:          0  dACCESS:          0  dHIT:          0  dMISS:          0  itACCESS:     113177  itHIT:      40652  itMISS:      72525  dtACCESS:     337050  dtHIT:     131449  dtMISS:     205601
cpu0_L2C PREFETCH  REQUESTED:    1418130  ISSUED:    1418130  CROSSED:          0  USEFUL:     374231  USELESS:     465116
cpu0_L2C AVERAGE iMISS LATENCY: 24.6818 cycles
cpu0_L2C AVERAGE dMISS LATENCY: 47.1081 cycles
cpu0_L2C AVERAGE itMISS LATENCY: 1.49846 cycles
cpu0_L2C AVERAGE dtMISS LATENCY: 4.58095 cycles
cpu0_L2C PAGE CROSSINGS (TLB HIT):         0 
cpu0_L2C PAGE CROSSINGS (TLB MISS):         0 
cpu0_L2C AVERAGE MISS LATENCY: 77.8692 cycles
LLC TOTAL       ACCESS:    7383416  HIT:    4759527  MISS:    2623889  iACCESS:    2813854  iHIT:    1978590  iMISS:     835264  dACCESS:    4291436  dHIT:    2717326  dMISS:    1574110  itACCESS:      72525  itHIT:      16829  itMISS:      55696  dtACCESS:     205601  dtHIT:      46782  dtMISS:     158819
LLC LOAD         ACCESS:    2469497  HIT:    1834357  MISS:     635140  iACCESS:     702846  iHIT:     529518  iMISS:     173328  dACCESS:    1766651  dHIT:    1304839  dMISS:     461812  itACCESS:          0  itHIT:          0  itMISS:          0  dtACCESS:          0  dtHIT:          0  dtMISS:          0
LLC RFO          ACCESS:     203671  HIT:     111003  MISS:      92668  iACCESS:          0  iHIT:          0  iMISS:          0  dACCESS:     203671  dHIT:     111003  dMISS:      92668  itACCESS:          0  itHIT:          0  itMISS:          0  dtACCESS:          0  dtHIT:          0  dtMISS:          0
LLC PREFETCH     ACCESS:    4171445  HIT:    2496191  MISS:    1675254  iACCESS:    2111008  iHIT:    1449072  iMISS:     661936  dACCESS:    2060437  dHIT:    1047119  dMISS:    1013318  itACCESS:          0  itHIT:          0  itMISS:          0  dtACCESS:          0  dtHIT:          0  dtMISS:          0
LLC WRITE        ACCESS:     260677  HIT:     254365  MISS:       6312  iACCESS:          0  iHIT:          0  iMISS:          0  dACCESS:     260677  dHIT:     254365  dMISS:       6312  itACCESS:          0  itHIT:          0  itMISS:          0  dtACCESS:          0  dtHIT:          0  dtMISS:          0
LLC TRANSLATION  ACCESS:     278126  HIT:      63611  MISS:     214515  iACCESS:          0  iHIT:          0  iMISS:          0  dACCESS:          0  dHIT:          0  dMISS:          0  itACCESS:      72525  itHIT:      16829  itMISS:      55696  dtACCESS:     205601  dtHIT:      46782  dtMISS:     158819
LLC PREFETCH  REQUESTED:          0  ISSUED:          0  CROSSED:          0  USEFUL:          0  USELESS:          0
LLC AVERAGE iMISS LATENCY: 50.3762 cycles
LLC AVERAGE dMISS LATENCY: 106.811 cycles
LLC AVERAGE itMISS LATENCY: 3.77803 cycles
LLC AVERAGE dtMISS LATENCY: 11.6719 cycles
LLC PAGE CROSSINGS (TLB HIT):         0 
LLC PAGE CROSSINGS (TLB MISS):         0 
LLC AVERAGE MISS LATENCY: 172.637 cycles

PageTableWalker TOTAL       ACCESS:     169899  
PageTableWalker AVERAGE LATENCY: 5.90767 cycles
PageTableWalker TOTAL LATENCY: 1003706 cycles

DRAM Statistics
Channel 0
 RQ ROW_BUFFER_HIT:     562511
  ROW_BUFFER_MISS:    2038011
 AVG DBUS CONGESTED CYCLE:    3.65468
 WQ ROW_BUFFER_HIT:      63601
  ROW_BUFFER_MISS:      61857  FULL:          0

