last_page:0x200000000000000
VMEM_RES_CAP:0x100000
PAGE_SIZE:4096
LOG2_PAGE_SIZE:12
LOG2_PAGE_TABLE_SIZE:9
page_table_levels:5
WARNING: physical memory size is smaller than virtual memory size
FDiP enabled with aggresivity 16

*** ChampSim Multicore Out-of-Order Simulator ***

Warmup Instructions: 50000000
Simulation Instructions: 100000000
Number of CPUs: 1
Small page size: 4096
Large page size: 2097152

CPU 0 Bimodal branch predictor
Basic BTB sets: 1024 ways: 8 indirect buffer size: 4096 RAS size: 64
Instruction page size distrubution: 0
Loading instruction page size distribution from /home/bsc/bsc018186/scratch/itp_asplos25_AE/dump/smt_srv12_ap_srv128_ap_1024i.pdst
Data page size distrubution: 0
Loading data page size distribution from /home/bsc/bsc018186/scratch/itp_asplos25_AE/dump/smt_srv12_ap_srv128_ap_1024i.pdst
cpu0_L2C IP-based stride prefetcher
cpu0_L1D next line prefetcher
cpu0_L1I next line prefetcher
Off-chip DRAM Size: 4 GiB Channels: 1 Width: 64-bit Data Rate: 3200 MT/s
Heartbeat CPU 0 instructions: 10000000 cycles: 2500645 heartbeat IPC: 3.99897 cumulative IPC: 3.99897 (Simulation time: 0 hr 0 min 47 sec) 
Heartbeat CPU 0 instructions: 20000000 cycles: 5082245 heartbeat IPC: 3.87357 cumulative IPC: 3.93527 (Simulation time: 0 hr 1 min 38 sec) 
Heartbeat CPU 0 instructions: 30000003 cycles: 7669399 heartbeat IPC: 3.86526 cumulative IPC: 3.91165 (Simulation time: 0 hr 2 min 26 sec) 
Heartbeat CPU 0 instructions: 40000000 cycles: 10212312 heartbeat IPC: 3.9325 cumulative IPC: 3.91685 (Simulation time: 0 hr 3 min 18 sec) 
Heartbeat CPU 0 instructions: 50000002 cycles: 12712570 heartbeat IPC: 3.99959 cumulative IPC: 3.93312 (Simulation time: 0 hr 4 min 9 sec) 
Warmup finished CPU 0 instructions: 50000002 cycles: 12712571 cumulative IPC: 3.93312 (Simulation time: 0 hr 4 min 9 sec) 

Warmup complete CPU 0 instructions: 50000002 cycles: 12712571 (Simulation time: 0 hr 4 min 9 sec) 

Heartbeat CPU 0 instructions: 60000000 cycles: 41621910 heartbeat IPC: 0.345909 cumulative IPC: 0.345909 (Simulation time: 0 hr 5 min 51 sec) 
Heartbeat CPU 0 instructions: 70000000 cycles: 70189125 heartbeat IPC: 0.350052 cumulative IPC: 0.347968 (Simulation time: 0 hr 7 min 29 sec) 
Heartbeat CPU 0 instructions: 80000001 cycles: 99823105 heartbeat IPC: 0.337451 cumulative IPC: 0.344391 (Simulation time: 0 hr 9 min 13 sec) 
Heartbeat CPU 0 instructions: 90000000 cycles: 125111367 heartbeat IPC: 0.395441 cumulative IPC: 0.355876 (Simulation time: 0 hr 10 min 46 sec) 
Heartbeat CPU 0 instructions: 100000001 cycles: 153944682 heartbeat IPC: 0.346822 cumulative IPC: 0.354028 (Simulation time: 0 hr 12 min 27 sec) 
Heartbeat CPU 0 instructions: 110000000 cycles: 182500939 heartbeat IPC: 0.350186 cumulative IPC: 0.353382 (Simulation time: 0 hr 14 min 7 sec) 
Heartbeat CPU 0 instructions: 120000000 cycles: 211139238 heartbeat IPC: 0.349183 cumulative IPC: 0.352776 (Simulation time: 0 hr 15 min 40 sec) 
Heartbeat CPU 0 instructions: 130000000 cycles: 239819207 heartbeat IPC: 0.348676 cumulative IPC: 0.352258 (Simulation time: 0 hr 17 min 17 sec) 
Heartbeat CPU 0 instructions: 140000000 cycles: 268250018 heartbeat IPC: 0.351732 cumulative IPC: 0.352199 (Simulation time: 0 hr 18 min 51 sec) 
Heartbeat CPU 0 instructions: 150000002 cycles: 297466721 heartbeat IPC: 0.342271 cumulative IPC: 0.351181 (Simulation time: 0 hr 20 min 22 sec) 
Simulation finished CPU 0 instructions: 100000000 cycles: 284754151 cumulative IPC: 0.351181 (Simulation time: 0 hr 20 min 22 sec) 

Simulation complete CPU 0 instructions: 100000000 cycles: 284754151 (Simulation time: 0 hr 20 min 22 sec) 


ChampSim completed all CPUs

Saving instructions large page distribution to /home/bsc/bsc018186/scratch/itp_asplos25_AE/dump/smt_srv12_ap_srv128_ap_1024i.pdst...
Saving data large page distribution to /home/bsc/bsc018186/scratch/itp_asplos25_AE/dump/smt_srv12_ap_srv128_ap_1024i.pdst...
=== Simulation ===
CPU 0 runs /gpfs/projects/bsc18/MN4/bsc18/romol/ChampSim/traces/qualcomm_srv/smt_srv12_ap_srv128_ap_1024i.champsimtrace.xz

Region of Interest Statistics

CPU 0 cumulative IPC: 0.351181 instructions: 100000000 cycles: 284754151
CPU 0 Branch Prediction Accuracy: 74.5693% MPKI: 46.1111 Average ROB Occupancy at Mispredict: 10.1287
Branch type MPKI
BRANCH_DIRECT_JUMP: 1.47275
BRANCH_INDIRECT: 23.5035
BRANCH_CONDITIONAL: 13.5821
BRANCH_DIRECT_CALL: 2.82674
BRANCH_INDIRECT_CALL: 1.14498
BRANCH_RETURN: 3.58121

Instructions large pages: 0
Instructions small pages: 11454
Large page distribution for instructions: 0%

Data large pages: 0
Data small pages: 9589
Large page distribution for data: 0%

cpu0_L1I TOTAL       ACCESS:   39683783  HIT:   30493323  MISS:    9190460  iACCESS:   39683783  iHIT:   30493323  iMISS:    9190460  dACCESS:          0  dHIT:          0  dMISS:          0  itACCESS:          0  itHIT:          0  itMISS:          0  dtACCESS:          0  dtHIT:          0  dtMISS:          0
cpu0_L1I LOAD         ACCESS:   11782686  HIT:    9298022  MISS:    2484664  iACCESS:   11782686  iHIT:    9298022  iMISS:    2484664  dACCESS:          0  dHIT:          0  dMISS:          0  itACCESS:          0  itHIT:          0  itMISS:          0  dtACCESS:          0  dtHIT:          0  dtMISS:          0
cpu0_L1I RFO          ACCESS:          0  HIT:          0  MISS:          0  iACCESS:          0  iHIT:          0  iMISS:          0  dACCESS:          0  dHIT:          0  dMISS:          0  itACCESS:          0  itHIT:          0  itMISS:          0  dtACCESS:          0  dtHIT:          0  dtMISS:          0
cpu0_L1I PREFETCH     ACCESS:   27901097  HIT:   21195301  MISS:    6705796  iACCESS:   27901097  iHIT:   21195301  iMISS:    6705796  dACCESS:          0  dHIT:          0  dMISS:          0  itACCESS:          0  itHIT:          0  itMISS:          0  dtACCESS:          0  dtHIT:          0  dtMISS:          0
cpu0_L1I WRITE        ACCESS:          0  HIT:          0  MISS:          0  iACCESS:          0  iHIT:          0  iMISS:          0  dACCESS:          0  dHIT:          0  dMISS:          0  itACCESS:          0  itHIT:          0  itMISS:          0  dtACCESS:          0  dtHIT:          0  dtMISS:          0
cpu0_L1I TRANSLATION  ACCESS:          0  HIT:          0  MISS:          0  iACCESS:          0  iHIT:          0  iMISS:          0  dACCESS:          0  dHIT:          0  dMISS:          0  itACCESS:          0  itHIT:          0  itMISS:          0  dtACCESS:          0  dtHIT:          0  dtMISS:          0
cpu0_L1I PREFETCH  REQUESTED:   30468234  ISSUED:   30466536  CROSSED:          0  USEFUL:    2224566  USELESS:     774113
cpu0_L1I AVERAGE iMISS LATENCY: 24.9424 cycles
cpu0_L1I AVERAGE dMISS LATENCY: 0 cycles
cpu0_L1I AVERAGE itMISS LATENCY: 0 cycles
cpu0_L1I AVERAGE dtMISS LATENCY: 0 cycles
cpu0_L1I PAGE CROSSINGS (TLB HIT):         0 
cpu0_L1I PAGE CROSSINGS (TLB MISS):         0 
cpu0_L1I AVERAGE MISS LATENCY: 24.9424 cycles
cpu0_ITLB TOTAL       ACCESS:   33472677  HIT:   31236636  MISS:    2236041  iACCESS:   33472677  iHIT:   31236636  iMISS:    2236041  dACCESS:          0  dHIT:          0  dMISS:          0  itACCESS:          0  itHIT:          0  itMISS:          0  dtACCESS:          0  dtHIT:          0  dtMISS:          0
cpu0_ITLB LOAD         ACCESS:   33472677  HIT:   31236636  MISS:    2236041  iACCESS:   33472677  iHIT:   31236636  iMISS:    2236041  dACCESS:          0  dHIT:          0  dMISS:          0  itACCESS:          0  itHIT:          0  itMISS:          0  dtACCESS:          0  dtHIT:          0  dtMISS:          0
cpu0_ITLB RFO          ACCESS:          0  HIT:          0  MISS:          0  iACCESS:          0  iHIT:          0  iMISS:          0  dACCESS:          0  dHIT:          0  dMISS:          0  itACCESS:          0  itHIT:          0  itMISS:          0  dtACCESS:          0  dtHIT:          0  dtMISS:          0
cpu0_ITLB PREFETCH     ACCESS:          0  HIT:          0  MISS:          0  iACCESS:          0  iHIT:          0  iMISS:          0  dACCESS:          0  dHIT:          0  dMISS:          0  itACCESS:          0  itHIT:          0  itMISS:          0  dtACCESS:          0  dtHIT:          0  dtMISS:          0
cpu0_ITLB WRITE        ACCESS:          0  HIT:          0  MISS:          0  iACCESS:          0  iHIT:          0  iMISS:          0  dACCESS:          0  dHIT:          0  dMISS:          0  itACCESS:          0  itHIT:          0  itMISS:          0  dtACCESS:          0  dtHIT:          0  dtMISS:          0
cpu0_ITLB TRANSLATION  ACCESS:          0  HIT:          0  MISS:          0  iACCESS:          0  iHIT:          0  iMISS:          0  dACCESS:          0  dHIT:          0  dMISS:          0  itACCESS:          0  itHIT:          0  itMISS:          0  dtACCESS:          0  dtHIT:          0  dtMISS:          0
cpu0_ITLB PREFETCH  REQUESTED:          0  ISSUED:          0  CROSSED:          0  USEFUL:     396788  USELESS:      80415
cpu0_ITLB AVERAGE iMISS LATENCY: 8.34994 cycles
cpu0_ITLB AVERAGE dMISS LATENCY: 0 cycles
cpu0_ITLB AVERAGE itMISS LATENCY: 0 cycles
cpu0_ITLB AVERAGE dtMISS LATENCY: 0 cycles
cpu0_ITLB PAGE CROSSINGS (TLB HIT):         0 
cpu0_ITLB PAGE CROSSINGS (TLB MISS):         0 
cpu0_ITLB AVERAGE MISS LATENCY: 8.34994 cycles
cpu0_DTLB TOTAL       ACCESS:   29016717  HIT:   25563777  MISS:    3452940  iACCESS:          0  iHIT:          0  iMISS:          0  dACCESS:   29016717  dHIT:   25563777  dMISS:    3452940  itACCESS:          0  itHIT:          0  itMISS:          0  dtACCESS:          0  dtHIT:          0  dtMISS:          0
cpu0_DTLB LOAD         ACCESS:   29016717  HIT:   25563777  MISS:    3452940  iACCESS:          0  iHIT:          0  iMISS:          0  dACCESS:   29016717  dHIT:   25563777  dMISS:    3452940  itACCESS:          0  itHIT:          0  itMISS:          0  dtACCESS:          0  dtHIT:          0  dtMISS:          0
cpu0_DTLB RFO          ACCESS:          0  HIT:          0  MISS:          0  iACCESS:          0  iHIT:          0  iMISS:          0  dACCESS:          0  dHIT:          0  dMISS:          0  itACCESS:          0  itHIT:          0  itMISS:          0  dtACCESS:          0  dtHIT:          0  dtMISS:          0
cpu0_DTLB PREFETCH     ACCESS:          0  HIT:          0  MISS:          0  iACCESS:          0  iHIT:          0  iMISS:          0  dACCESS:          0  dHIT:          0  dMISS:          0  itACCESS:          0  itHIT:          0  itMISS:          0  dtACCESS:          0  dtHIT:          0  dtMISS:          0
cpu0_DTLB WRITE        ACCESS:          0  HIT:          0  MISS:          0  iACCESS:          0  iHIT:          0  iMISS:          0  dACCESS:          0  dHIT:          0  dMISS:          0  itACCESS:          0  itHIT:          0  itMISS:          0  dtACCESS:          0  dtHIT:          0  dtMISS:          0
cpu0_DTLB TRANSLATION  ACCESS:          0  HIT:          0  MISS:          0  iACCESS:          0  iHIT:          0  iMISS:          0  dACCESS:          0  dHIT:          0  dMISS:          0  itACCESS:          0  itHIT:          0  itMISS:          0  dtACCESS:          0  dtHIT:          0  dtMISS:          0
cpu0_DTLB PREFETCH  REQUESTED:          0  ISSUED:          0  CROSSED:          0  USEFUL:          0  USELESS:          0
cpu0_DTLB AVERAGE iMISS LATENCY: 0 cycles
cpu0_DTLB AVERAGE dMISS LATENCY: 18.0158 cycles
cpu0_DTLB AVERAGE itMISS LATENCY: 0 cycles
cpu0_DTLB AVERAGE dtMISS LATENCY: 0 cycles
cpu0_DTLB PAGE CROSSINGS (TLB HIT):         0 
cpu0_DTLB PAGE CROSSINGS (TLB MISS):         0 
cpu0_DTLB AVERAGE MISS LATENCY: 18.0158 cycles
cpu0_STLB TOTAL       ACCESS:    2527766  HIT:    2147253  MISS:     380513  iACCESS:     477220  iHIT:     356162  iMISS:     121058  dACCESS:    2050546  dHIT:    1791091  dMISS:     259455  itACCESS:          0  itHIT:          0  itMISS:          0  dtACCESS:          0  dtHIT:          0  dtMISS:          0
cpu0_STLB LOAD         ACCESS:    2527766  HIT:    2147253  MISS:     380513  iACCESS:     477220  iHIT:     356162  iMISS:     121058  dACCESS:    2050546  dHIT:    1791091  dMISS:     259455  itACCESS:          0  itHIT:          0  itMISS:          0  dtACCESS:          0  dtHIT:          0  dtMISS:          0
cpu0_STLB RFO          ACCESS:          0  HIT:          0  MISS:          0  iACCESS:          0  iHIT:          0  iMISS:          0  dACCESS:          0  dHIT:          0  dMISS:          0  itACCESS:          0  itHIT:          0  itMISS:          0  dtACCESS:          0  dtHIT:          0  dtMISS:          0
cpu0_STLB PREFETCH     ACCESS:          0  HIT:          0  MISS:          0  iACCESS:          0  iHIT:          0  iMISS:          0  dACCESS:          0  dHIT:          0  dMISS:          0  itACCESS:          0  itHIT:          0  itMISS:          0  dtACCESS:          0  dtHIT:          0  dtMISS:          0
cpu0_STLB WRITE        ACCESS:          0  HIT:          0  MISS:          0  iACCESS:          0  iHIT:          0  iMISS:          0  dACCESS:          0  dHIT:          0  dMISS:          0  itACCESS:          0  itHIT:          0  itMISS:          0  dtACCESS:          0  dtHIT:          0  dtMISS:          0
cpu0_STLB TRANSLATION  ACCESS:          0  HIT:          0  MISS:          0  iACCESS:          0  iHIT:          0  iMISS:          0  dACCESS:          0  dHIT:          0  dMISS:          0  itACCESS:          0  itHIT:          0  itMISS:          0  dtACCESS:          0  dtHIT:          0  dtMISS:          0
cpu0_STLB PREFETCH  REQUESTED:          0  ISSUED:          0  CROSSED:          0  USEFUL:          0  USELESS:          0
cpu0_STLB AVERAGE iMISS LATENCY: 39.0325 cycles
cpu0_STLB AVERAGE dMISS LATENCY: 120.174 cycles
cpu0_STLB AVERAGE itMISS LATENCY: 0 cycles
cpu0_STLB AVERAGE dtMISS LATENCY: 0 cycles
cpu0_STLB PAGE CROSSINGS (TLB HIT):         0 
cpu0_STLB PAGE CROSSINGS (TLB MISS):         0 
cpu0_STLB AVERAGE MISS LATENCY: 159.207 cycles
cpu0_L1D TOTAL       ACCESS:   45245605  HIT:   39403126  MISS:    5842479  iACCESS:          0  iHIT:          0  iMISS:          0  dACCESS:   44686705  dHIT:   39369779  dMISS:    5316926  itACCESS:     136921  itHIT:      15163  itMISS:     121758  dtACCESS:     421979  dtHIT:      18184  dtMISS:     403795
cpu0_L1D LOAD         ACCESS:   20416299  HIT:   18045034  MISS:    2371265  iACCESS:          0  iHIT:          0  iMISS:          0  dACCESS:   20416299  dHIT:   18045034  dMISS:    2371265  itACCESS:          0  itHIT:          0  itMISS:          0  dtACCESS:          0  dtHIT:          0  dtMISS:          0
cpu0_L1D RFO          ACCESS:          0  HIT:          0  MISS:          0  iACCESS:          0  iHIT:          0  iMISS:          0  dACCESS:          0  dHIT:          0  dMISS:          0  itACCESS:          0  itHIT:          0  itMISS:          0  dtACCESS:          0  dtHIT:          0  dtMISS:          0
cpu0_L1D PREFETCH     ACCESS:   14078587  HIT:   11722381  MISS:    2356206  iACCESS:          0  iHIT:          0  iMISS:          0  dACCESS:   14078587  dHIT:   11722381  dMISS:    2356206  itACCESS:          0  itHIT:          0  itMISS:          0  dtACCESS:          0  dtHIT:          0  dtMISS:          0
cpu0_L1D WRITE        ACCESS:   10191819  HIT:    9602364  MISS:     589455  iACCESS:          0  iHIT:          0  iMISS:          0  dACCESS:   10191819  dHIT:    9602364  dMISS:     589455  itACCESS:          0  itHIT:          0  itMISS:          0  dtACCESS:          0  dtHIT:          0  dtMISS:          0
cpu0_L1D TRANSLATION  ACCESS:     558900  HIT:      33347  MISS:     525553  iACCESS:          0  iHIT:          0  iMISS:          0  dACCESS:          0  dHIT:          0  dMISS:          0  itACCESS:     136921  itHIT:      15163  itMISS:     121758  dtACCESS:     421979  dtHIT:      18184  dtMISS:     403795
cpu0_L1D PREFETCH  REQUESTED:   20416299  ISSUED:   18597225  CROSSED:          0  USEFUL:     362036  USELESS:     929039
cpu0_L1D AVERAGE iMISS LATENCY: 0 cycles
cpu0_L1D AVERAGE dMISS LATENCY: 50.0726 cycles
cpu0_L1D AVERAGE itMISS LATENCY: 2.33133 cycles
cpu0_L1D AVERAGE dtMISS LATENCY: 7.03783 cycles
cpu0_L1D PAGE CROSSINGS (TLB HIT):         0 
cpu0_L1D PAGE CROSSINGS (TLB MISS):         0 
cpu0_L1D AVERAGE MISS LATENCY: 59.4417 cycles
cpu0_L2C TOTAL       ACCESS:    8654920  HIT:    1526399  MISS:    7128521  iACCESS:    3803127  iHIT:     797771  iMISS:    3005356  dACCESS:    4361158  dHIT:     539362  dMISS:    3821796  itACCESS:     119752  itHIT:      40545  itMISS:      79207  dtACCESS:     370883  dtHIT:     148721  dtMISS:     222162
cpu0_L2C LOAD         ACCESS:    2040966  HIT:     204382  MISS:    1836584  iACCESS:     839654  iHIT:     109291  iMISS:     730363  dACCESS:    1201312  dHIT:      95091  dMISS:    1106221  itACCESS:          0  itHIT:          0  itMISS:          0  dtACCESS:          0  dtHIT:          0  dtMISS:          0
cpu0_L2C RFO          ACCESS:     215405  HIT:      28464  MISS:     186941  iACCESS:          0  iHIT:          0  iMISS:          0  dACCESS:     215405  dHIT:      28464  dMISS:     186941  itACCESS:          0  itHIT:          0  itMISS:          0  dtACCESS:          0  dtHIT:          0  dtMISS:          0
cpu0_L2C PREFETCH     ACCESS:    5568278  HIT:    1004151  MISS:    4564127  iACCESS:    2963473  iHIT:     688480  iMISS:    2274993  dACCESS:    2604805  dHIT:     315671  dMISS:    2289134  itACCESS:          0  itHIT:          0  itMISS:          0  dtACCESS:          0  dtHIT:          0  dtMISS:          0
cpu0_L2C WRITE        ACCESS:     339636  HIT:     100136  MISS:     239500  iACCESS:          0  iHIT:          0  iMISS:          0  dACCESS:     339636  dHIT:     100136  dMISS:     239500  itACCESS:          0  itHIT:          0  itMISS:          0  dtACCESS:          0  dtHIT:          0  dtMISS:          0
cpu0_L2C TRANSLATION  ACCESS:     490635  HIT:     189266  MISS:     301369  iACCESS:          0  iHIT:          0  iMISS:          0  dACCESS:          0  dHIT:          0  dMISS:          0  itACCESS:     119752  itHIT:      40545  itMISS:      79207  dtACCESS:     370883  dtHIT:     148721  dtMISS:     222162
cpu0_L2C PREFETCH  REQUESTED:    1549839  ISSUED:    1549837  CROSSED:          0  USEFUL:     421894  USELESS:     498239
cpu0_L2C AVERAGE iMISS LATENCY: 27.6088 cycles
cpu0_L2C AVERAGE dMISS LATENCY: 50.9412 cycles
cpu0_L2C AVERAGE itMISS LATENCY: 1.74801 cycles
cpu0_L2C AVERAGE dtMISS LATENCY: 5.26653 cycles
cpu0_L2C PAGE CROSSINGS (TLB HIT):         0 
cpu0_L2C PAGE CROSSINGS (TLB MISS):         0 
cpu0_L2C AVERAGE MISS LATENCY: 85.5645 cycles
LLC TOTAL       ACCESS:    6927596  HIT:    4102283  MISS:    2825313  iACCESS:    2910704  iHIT:    2012685  iMISS:     898019  dACCESS:    3715523  dHIT:    2022054  dMISS:    1693469  itACCESS:      79207  itHIT:      18099  itMISS:      61108  dtACCESS:     222162  dtHIT:      49445  dtMISS:     172717
LLC LOAD         ACCESS:    1829708  HIT:    1155642  MISS:     674066  iACCESS:     729119  iHIT:     540522  iMISS:     188597  dACCESS:    1100589  dHIT:     615120  dMISS:     485469  itACCESS:          0  itHIT:          0  itMISS:          0  dtACCESS:          0  dtHIT:          0  dtMISS:          0
LLC RFO          ACCESS:     186930  HIT:      92450  MISS:      94480  iACCESS:          0  iHIT:          0  iMISS:          0  dACCESS:     186930  dHIT:      92450  dMISS:      94480  itACCESS:          0  itHIT:          0  itMISS:          0  dtACCESS:          0  dtHIT:          0  dtMISS:          0
LLC PREFETCH     ACCESS:    4343231  HIT:    2528307  MISS:    1814924  iACCESS:    2181585  iHIT:    1472163  iMISS:     709422  dACCESS:    2161646  dHIT:    1056144  dMISS:    1105502  itACCESS:          0  itHIT:          0  itMISS:          0  dtACCESS:          0  dtHIT:          0  dtMISS:          0
LLC WRITE        ACCESS:     266358  HIT:     258340  MISS:       8018  iACCESS:          0  iHIT:          0  iMISS:          0  dACCESS:     266358  dHIT:     258340  dMISS:       8018  itACCESS:          0  itHIT:          0  itMISS:          0  dtACCESS:          0  dtHIT:          0  dtMISS:          0
LLC TRANSLATION  ACCESS:     301369  HIT:      67544  MISS:     233825  iACCESS:          0  iHIT:          0  iMISS:          0  dACCESS:          0  dHIT:          0  dMISS:          0  itACCESS:      79207  itHIT:      18099  itMISS:      61108  dtACCESS:     222162  dtHIT:      49445  dtMISS:     172717
LLC PREFETCH  REQUESTED:          0  ISSUED:          0  CROSSED:          0  USEFUL:          0  USELESS:          0
LLC AVERAGE iMISS LATENCY: 49.6476 cycles
LLC AVERAGE dMISS LATENCY: 105.715 cycles
LLC AVERAGE itMISS LATENCY: 3.85787 cycles
LLC AVERAGE dtMISS LATENCY: 11.7389 cycles
LLC PAGE CROSSINGS (TLB HIT):         0 
LLC PAGE CROSSINGS (TLB MISS):         0 
LLC AVERAGE MISS LATENCY: 170.959 cycles

PageTableWalker TOTAL       ACCESS:     139659  
PageTableWalker AVERAGE LATENCY: 5.91526 cycles
PageTableWalker TOTAL LATENCY: 826119 cycles

DRAM Statistics
Channel 0
 RQ ROW_BUFFER_HIT:     643733
  ROW_BUFFER_MISS:    2153621
 AVG DBUS CONGESTED CYCLE:    3.65281
 WQ ROW_BUFFER_HIT:      68642
  ROW_BUFFER_MISS:      61062  FULL:          0

