last_page:0x200000000000000
VMEM_RES_CAP:0x100000
PAGE_SIZE:4096
LOG2_PAGE_SIZE:12
LOG2_PAGE_TABLE_SIZE:9
page_table_levels:5
WARNING: physical memory size is smaller than virtual memory size
FDiP enabled with aggresivity 16

*** ChampSim Multicore Out-of-Order Simulator ***

Warmup Instructions: 50000000
Simulation Instructions: 100000000
Number of CPUs: 1
Small page size: 4096
Large page size: 2097152

CPU 0 Bimodal branch predictor
Basic BTB sets: 1024 ways: 8 indirect buffer size: 4096 RAS size: 64
Instruction page size distrubution: 0
Loading instruction page size distribution from /home/bsc/bsc018186/scratch/itp_asplos25_AE/dump/smt_srv537_ap_srv73_ap_1024i.pdst
Data page size distrubution: 0
Loading data page size distribution from /home/bsc/bsc018186/scratch/itp_asplos25_AE/dump/smt_srv537_ap_srv73_ap_1024i.pdst
cpu0_L2C IP-based stride prefetcher
cpu0_L1D next line prefetcher
cpu0_STLB using iTP with max lru@8
cpu0_STLB using iTP with instr@0 and data@2
Init sat counter with 3 bits (max:50).
cpu0_L1I next line prefetcher
Off-chip DRAM Size: 4 GiB Channels: 1 Width: 64-bit Data Rate: 3200 MT/s
Heartbeat CPU 0 instructions: 10000001 cycles: 2500537 heartbeat IPC: 3.99915 cumulative IPC: 3.99915 (Simulation time: 0 hr 0 min 39 sec) 
Heartbeat CPU 0 instructions: 20000001 cycles: 5000875 heartbeat IPC: 3.99946 cumulative IPC: 3.99931 (Simulation time: 0 hr 1 min 21 sec) 
Heartbeat CPU 0 instructions: 30000002 cycles: 7501049 heartbeat IPC: 3.99973 cumulative IPC: 3.99945 (Simulation time: 0 hr 2 min 2 sec) 
Heartbeat CPU 0 instructions: 40000002 cycles: 10001227 heartbeat IPC: 3.99972 cumulative IPC: 3.99951 (Simulation time: 0 hr 2 min 44 sec) 
Heartbeat CPU 0 instructions: 50000001 cycles: 12502304 heartbeat IPC: 3.99828 cumulative IPC: 3.99927 (Simulation time: 0 hr 3 min 27 sec) 
Warmup finished CPU 0 instructions: 50000001 cycles: 12502305 cumulative IPC: 3.99927 (Simulation time: 0 hr 3 min 27 sec) 

Warmup complete CPU 0 instructions: 50000001 cycles: 12502305 (Simulation time: 0 hr 3 min 27 sec) 

Heartbeat CPU 0 instructions: 60000004 cycles: 36414251 heartbeat IPC: 0.418202 cumulative IPC: 0.418202 (Simulation time: 0 hr 4 min 43 sec) 
Heartbeat CPU 0 instructions: 70000000 cycles: 58381105 heartbeat IPC: 0.455232 cumulative IPC: 0.435932 (Simulation time: 0 hr 5 min 57 sec) 
Heartbeat CPU 0 instructions: 80000003 cycles: 80847209 heartbeat IPC: 0.445116 cumulative IPC: 0.438951 (Simulation time: 0 hr 7 min 11 sec) 
Heartbeat CPU 0 instructions: 90000000 cycles: 110625512 heartbeat IPC: 0.335815 cumulative IPC: 0.407651 (Simulation time: 0 hr 8 min 35 sec) 
Heartbeat CPU 0 instructions: 100000003 cycles: 141523927 heartbeat IPC: 0.323642 cumulative IPC: 0.387532 (Simulation time: 0 hr 10 min 2 sec) 
Heartbeat CPU 0 instructions: 110000003 cycles: 173315305 heartbeat IPC: 0.314551 cumulative IPC: 0.373105 (Simulation time: 0 hr 11 min 31 sec) 
Heartbeat CPU 0 instructions: 120000001 cycles: 202368233 heartbeat IPC: 0.3442 cumulative IPC: 0.368682 (Simulation time: 0 hr 12 min 55 sec) 
Heartbeat CPU 0 instructions: 130000000 cycles: 218123402 heartbeat IPC: 0.634713 cumulative IPC: 0.389066 (Simulation time: 0 hr 14 min 4 sec) 
Heartbeat CPU 0 instructions: 140000002 cycles: 238425357 heartbeat IPC: 0.492564 cumulative IPC: 0.398366 (Simulation time: 0 hr 15 min 16 sec) 
Heartbeat CPU 0 instructions: 150000002 cycles: 269018166 heartbeat IPC: 0.326875 cumulative IPC: 0.38984 (Simulation time: 0 hr 16 min 40 sec) 
Simulation finished CPU 0 instructions: 100000001 cycles: 256515862 cumulative IPC: 0.38984 (Simulation time: 0 hr 16 min 40 sec) 

Simulation complete CPU 0 instructions: 100000001 cycles: 256515862 (Simulation time: 0 hr 16 min 40 sec) 


ChampSim completed all CPUs

Saving instructions large page distribution to /home/bsc/bsc018186/scratch/itp_asplos25_AE/dump/smt_srv537_ap_srv73_ap_1024i.pdst...
Saving data large page distribution to /home/bsc/bsc018186/scratch/itp_asplos25_AE/dump/smt_srv537_ap_srv73_ap_1024i.pdst...
=== Simulation ===
CPU 0 runs /gpfs/projects/bsc18/MN4/bsc18/romol/ChampSim/traces/qualcomm_srv/smt_srv537_ap_srv73_ap_1024i.champsimtrace.xz

Region of Interest Statistics

CPU 0 cumulative IPC: 0.38984 instructions: 100000001 cycles: 256515862
CPU 0 Branch Prediction Accuracy: 78.0605% MPKI: 42.6412 Average ROB Occupancy at Mispredict: 10.9673
Branch type MPKI
BRANCH_DIRECT_JUMP: 1.087
BRANCH_INDIRECT: 22.7445
BRANCH_CONDITIONAL: 12.2037
BRANCH_DIRECT_CALL: 2.01296
BRANCH_INDIRECT_CALL: 1.68504
BRANCH_RETURN: 2.90804

Instructions large pages: 0
Instructions small pages: 11665
Large page distribution for instructions: 0%

Data large pages: 0
Data small pages: 9807
Large page distribution for data: 0%

cpu0_L1I TOTAL       ACCESS:   38222138  HIT:   31131922  MISS:    7090216  iACCESS:   38222138  iHIT:   31131922  iMISS:    7090216  dACCESS:          0  dHIT:          0  dMISS:          0  itACCESS:          0  itHIT:          0  itMISS:          0  dtACCESS:          0  dtHIT:          0  dtMISS:          0
cpu0_L1I LOAD         ACCESS:   10601621  HIT:    8653846  MISS:    1947775  iACCESS:   10601621  iHIT:    8653846  iMISS:    1947775  dACCESS:          0  dHIT:          0  dMISS:          0  itACCESS:          0  itHIT:          0  itMISS:          0  dtACCESS:          0  dtHIT:          0  dtMISS:          0
cpu0_L1I RFO          ACCESS:          0  HIT:          0  MISS:          0  iACCESS:          0  iHIT:          0  iMISS:          0  dACCESS:          0  dHIT:          0  dMISS:          0  itACCESS:          0  itHIT:          0  itMISS:          0  dtACCESS:          0  dtHIT:          0  dtMISS:          0
cpu0_L1I PREFETCH     ACCESS:   27620517  HIT:   22478076  MISS:    5142441  iACCESS:   27620517  iHIT:   22478076  iMISS:    5142441  dACCESS:          0  dHIT:          0  dMISS:          0  itACCESS:          0  itHIT:          0  itMISS:          0  dtACCESS:          0  dtHIT:          0  dtMISS:          0
cpu0_L1I WRITE        ACCESS:          0  HIT:          0  MISS:          0  iACCESS:          0  iHIT:          0  iMISS:          0  dACCESS:          0  dHIT:          0  dMISS:          0  itACCESS:          0  itHIT:          0  itMISS:          0  dtACCESS:          0  dtHIT:          0  dtMISS:          0
cpu0_L1I TRANSLATION  ACCESS:          0  HIT:          0  MISS:          0  iACCESS:          0  iHIT:          0  iMISS:          0  dACCESS:          0  dHIT:          0  dMISS:          0  itACCESS:          0  itHIT:          0  itMISS:          0  dtACCESS:          0  dtHIT:          0  dtMISS:          0
cpu0_L1I PREFETCH  REQUESTED:   30070891  ISSUED:   30070765  CROSSED:          0  USEFUL:    1798176  USELESS:     646434
cpu0_L1I AVERAGE iMISS LATENCY: 23.8203 cycles
cpu0_L1I AVERAGE dMISS LATENCY: 0 cycles
cpu0_L1I AVERAGE itMISS LATENCY: 0 cycles
cpu0_L1I AVERAGE dtMISS LATENCY: 0 cycles
cpu0_L1I PAGE CROSSINGS (TLB HIT):         0 
cpu0_L1I PAGE CROSSINGS (TLB MISS):         0 
cpu0_L1I AVERAGE MISS LATENCY: 23.8203 cycles
cpu0_ITLB TOTAL       ACCESS:   32335496  HIT:   30487314  MISS:    1848182  iACCESS:   32335496  iHIT:   30487314  iMISS:    1848182  dACCESS:          0  dHIT:          0  dMISS:          0  itACCESS:          0  itHIT:          0  itMISS:          0  dtACCESS:          0  dtHIT:          0  dtMISS:          0
cpu0_ITLB LOAD         ACCESS:   32335496  HIT:   30487314  MISS:    1848182  iACCESS:   32335496  iHIT:   30487314  iMISS:    1848182  dACCESS:          0  dHIT:          0  dMISS:          0  itACCESS:          0  itHIT:          0  itMISS:          0  dtACCESS:          0  dtHIT:          0  dtMISS:          0
cpu0_ITLB RFO          ACCESS:          0  HIT:          0  MISS:          0  iACCESS:          0  iHIT:          0  iMISS:          0  dACCESS:          0  dHIT:          0  dMISS:          0  itACCESS:          0  itHIT:          0  itMISS:          0  dtACCESS:          0  dtHIT:          0  dtMISS:          0
cpu0_ITLB PREFETCH     ACCESS:          0  HIT:          0  MISS:          0  iACCESS:          0  iHIT:          0  iMISS:          0  dACCESS:          0  dHIT:          0  dMISS:          0  itACCESS:          0  itHIT:          0  itMISS:          0  dtACCESS:          0  dtHIT:          0  dtMISS:          0
cpu0_ITLB WRITE        ACCESS:          0  HIT:          0  MISS:          0  iACCESS:          0  iHIT:          0  iMISS:          0  dACCESS:          0  dHIT:          0  dMISS:          0  itACCESS:          0  itHIT:          0  itMISS:          0  dtACCESS:          0  dtHIT:          0  dtMISS:          0
cpu0_ITLB TRANSLATION  ACCESS:          0  HIT:          0  MISS:          0  iACCESS:          0  iHIT:          0  iMISS:          0  dACCESS:          0  dHIT:          0  dMISS:          0  itACCESS:          0  itHIT:          0  itMISS:          0  dtACCESS:          0  dtHIT:          0  dtMISS:          0
cpu0_ITLB PREFETCH  REQUESTED:          0  ISSUED:          0  CROSSED:          0  USEFUL:     324874  USELESS:      67558
cpu0_ITLB AVERAGE iMISS LATENCY: 6.82834 cycles
cpu0_ITLB AVERAGE dMISS LATENCY: 0 cycles
cpu0_ITLB AVERAGE itMISS LATENCY: 0 cycles
cpu0_ITLB AVERAGE dtMISS LATENCY: 0 cycles
cpu0_ITLB PAGE CROSSINGS (TLB HIT):         0 
cpu0_ITLB PAGE CROSSINGS (TLB MISS):         0 
cpu0_ITLB AVERAGE MISS LATENCY: 6.82834 cycles
cpu0_DTLB TOTAL       ACCESS:   31239283  HIT:   25952571  MISS:    5286712  iACCESS:          0  iHIT:          0  iMISS:          0  dACCESS:   31239283  dHIT:   25952571  dMISS:    5286712  itACCESS:          0  itHIT:          0  itMISS:          0  dtACCESS:          0  dtHIT:          0  dtMISS:          0
cpu0_DTLB LOAD         ACCESS:   31239283  HIT:   25952571  MISS:    5286712  iACCESS:          0  iHIT:          0  iMISS:          0  dACCESS:   31239283  dHIT:   25952571  dMISS:    5286712  itACCESS:          0  itHIT:          0  itMISS:          0  dtACCESS:          0  dtHIT:          0  dtMISS:          0
cpu0_DTLB RFO          ACCESS:          0  HIT:          0  MISS:          0  iACCESS:          0  iHIT:          0  iMISS:          0  dACCESS:          0  dHIT:          0  dMISS:          0  itACCESS:          0  itHIT:          0  itMISS:          0  dtACCESS:          0  dtHIT:          0  dtMISS:          0
cpu0_DTLB PREFETCH     ACCESS:          0  HIT:          0  MISS:          0  iACCESS:          0  iHIT:          0  iMISS:          0  dACCESS:          0  dHIT:          0  dMISS:          0  itACCESS:          0  itHIT:          0  itMISS:          0  dtACCESS:          0  dtHIT:          0  dtMISS:          0
cpu0_DTLB WRITE        ACCESS:          0  HIT:          0  MISS:          0  iACCESS:          0  iHIT:          0  iMISS:          0  dACCESS:          0  dHIT:          0  dMISS:          0  itACCESS:          0  itHIT:          0  itMISS:          0  dtACCESS:          0  dtHIT:          0  dtMISS:          0
cpu0_DTLB TRANSLATION  ACCESS:          0  HIT:          0  MISS:          0  iACCESS:          0  iHIT:          0  iMISS:          0  dACCESS:          0  dHIT:          0  dMISS:          0  itACCESS:          0  itHIT:          0  itMISS:          0  dtACCESS:          0  dtHIT:          0  dtMISS:          0
cpu0_DTLB PREFETCH  REQUESTED:          0  ISSUED:          0  CROSSED:          0  USEFUL:          0  USELESS:          0
cpu0_DTLB AVERAGE iMISS LATENCY: 0 cycles
cpu0_DTLB AVERAGE dMISS LATENCY: 15.5613 cycles
cpu0_DTLB AVERAGE itMISS LATENCY: 0 cycles
cpu0_DTLB AVERAGE dtMISS LATENCY: 0 cycles
cpu0_DTLB PAGE CROSSINGS (TLB HIT):         0 
cpu0_DTLB PAGE CROSSINGS (TLB MISS):         0 
cpu0_DTLB AVERAGE MISS LATENCY: 15.5613 cycles
cpu0_STLB TOTAL       ACCESS:    3164038  HIT:    2890441  MISS:     273597  iACCESS:     392438  iHIT:     341712  iMISS:      50726  dACCESS:    2771600  dHIT:    2548729  dMISS:     222871  itACCESS:          0  itHIT:          0  itMISS:          0  dtACCESS:          0  dtHIT:          0  dtMISS:          0
cpu0_STLB LOAD         ACCESS:    3164038  HIT:    2890441  MISS:     273597  iACCESS:     392438  iHIT:     341712  iMISS:      50726  dACCESS:    2771600  dHIT:    2548729  dMISS:     222871  itACCESS:          0  itHIT:          0  itMISS:          0  dtACCESS:          0  dtHIT:          0  dtMISS:          0
cpu0_STLB RFO          ACCESS:          0  HIT:          0  MISS:          0  iACCESS:          0  iHIT:          0  iMISS:          0  dACCESS:          0  dHIT:          0  dMISS:          0  itACCESS:          0  itHIT:          0  itMISS:          0  dtACCESS:          0  dtHIT:          0  dtMISS:          0
cpu0_STLB PREFETCH     ACCESS:          0  HIT:          0  MISS:          0  iACCESS:          0  iHIT:          0  iMISS:          0  dACCESS:          0  dHIT:          0  dMISS:          0  itACCESS:          0  itHIT:          0  itMISS:          0  dtACCESS:          0  dtHIT:          0  dtMISS:          0
cpu0_STLB WRITE        ACCESS:          0  HIT:          0  MISS:          0  iACCESS:          0  iHIT:          0  iMISS:          0  dACCESS:          0  dHIT:          0  dMISS:          0  itACCESS:          0  itHIT:          0  itMISS:          0  dtACCESS:          0  dtHIT:          0  dtMISS:          0
cpu0_STLB TRANSLATION  ACCESS:          0  HIT:          0  MISS:          0  iACCESS:          0  iHIT:          0  iMISS:          0  dACCESS:          0  dHIT:          0  dMISS:          0  itACCESS:          0  itHIT:          0  itMISS:          0  dtACCESS:          0  dtHIT:          0  dtMISS:          0
cpu0_STLB PREFETCH  REQUESTED:          0  ISSUED:          0  CROSSED:          0  USEFUL:          0  USELESS:          0
cpu0_STLB AVERAGE iMISS LATENCY: 34.8318 cycles
cpu0_STLB AVERAGE dMISS LATENCY: 218.731 cycles
cpu0_STLB AVERAGE itMISS LATENCY: 0 cycles
cpu0_STLB AVERAGE dtMISS LATENCY: 0 cycles
cpu0_STLB PAGE CROSSINGS (TLB HIT):         0 
cpu0_STLB PAGE CROSSINGS (TLB MISS):         0 
cpu0_STLB AVERAGE MISS LATENCY: 253.563 cycles
cpu0_L1D TOTAL       ACCESS:   48784535  HIT:   40757408  MISS:    8027127  iACCESS:          0  iHIT:          0  iMISS:          0  dACCESS:   48322022  dHIT:   40737783  dMISS:    7584239  itACCESS:      63080  itHIT:       4655  itMISS:      58425  dtACCESS:     399433  dtHIT:      14970  dtMISS:     384463
cpu0_L1D LOAD         ACCESS:   23304658  HIT:   19242278  MISS:    4062380  iACCESS:          0  iHIT:          0  iMISS:          0  dACCESS:   23304658  dHIT:   19242278  dMISS:    4062380  itACCESS:          0  itHIT:          0  itMISS:          0  dtACCESS:          0  dtHIT:          0  dtMISS:          0
cpu0_L1D RFO          ACCESS:          0  HIT:          0  MISS:          0  iACCESS:          0  iHIT:          0  iMISS:          0  dACCESS:          0  dHIT:          0  dMISS:          0  itACCESS:          0  itHIT:          0  itMISS:          0  dtACCESS:          0  dtHIT:          0  dtMISS:          0
cpu0_L1D PREFETCH     ACCESS:   15148751  HIT:   12406894  MISS:    2741857  iACCESS:          0  iHIT:          0  iMISS:          0  dACCESS:   15148751  dHIT:   12406894  dMISS:    2741857  itACCESS:          0  itHIT:          0  itMISS:          0  dtACCESS:          0  dtHIT:          0  dtMISS:          0
cpu0_L1D WRITE        ACCESS:    9868613  HIT:    9088611  MISS:     780002  iACCESS:          0  iHIT:          0  iMISS:          0  dACCESS:    9868613  dHIT:    9088611  dMISS:     780002  itACCESS:          0  itHIT:          0  itMISS:          0  dtACCESS:          0  dtHIT:          0  dtMISS:          0
cpu0_L1D TRANSLATION  ACCESS:     462513  HIT:      19625  MISS:     442888  iACCESS:          0  iHIT:          0  iMISS:          0  dACCESS:          0  dHIT:          0  dMISS:          0  itACCESS:      63080  itHIT:       4655  itMISS:      58425  dtACCESS:     399433  dtHIT:      14970  dtMISS:     384463
cpu0_L1D PREFETCH  REQUESTED:   23304658  ISSUED:   19663621  CROSSED:          0  USEFUL:     352946  USELESS:    1084391
cpu0_L1D AVERAGE iMISS LATENCY: 0 cycles
cpu0_L1D AVERAGE dMISS LATENCY: 32.7875 cycles
cpu0_L1D AVERAGE itMISS LATENCY: 1.11198 cycles
cpu0_L1D AVERAGE dtMISS LATENCY: 6.9382 cycles
cpu0_L1D PAGE CROSSINGS (TLB HIT):         0 
cpu0_L1D PAGE CROSSINGS (TLB MISS):         0 
cpu0_L1D AVERAGE MISS LATENCY: 40.8377 cycles
cpu0_L2C TOTAL       ACCESS:    9199964  HIT:    5622770  MISS:    3577194  iACCESS:    3116188  iHIT:    1947677  iMISS:    1168511  dACCESS:    5711896  dHIT:    3626223  dMISS:    2085673  itACCESS:      54316  itHIT:       8739  itMISS:      45577  dtACCESS:     317564  dtHIT:      40131  dtMISS:     277433
cpu0_L2C LOAD         ACCESS:    3359490  HIT:    2484847  MISS:     874643  iACCESS:     700065  iHIT:     459580  iMISS:     240485  dACCESS:    2659425  dHIT:    2025267  dMISS:     634158  itACCESS:          0  itHIT:          0  itMISS:          0  dtACCESS:          0  dtHIT:          0  dtMISS:          0
cpu0_L2C RFO          ACCESS:     239385  HIT:     109950  MISS:     129435  iACCESS:          0  iHIT:          0  iMISS:          0  dACCESS:     239385  dHIT:     109950  dMISS:     129435  itACCESS:          0  itHIT:          0  itMISS:          0  dtACCESS:          0  dtHIT:          0  dtMISS:          0
cpu0_L2C PREFETCH     ACCESS:    4889760  HIT:    2642035  MISS:    2247725  iACCESS:    2416123  iHIT:    1488097  iMISS:     928026  dACCESS:    2473637  dHIT:    1153938  dMISS:    1319699  itACCESS:          0  itHIT:          0  itMISS:          0  dtACCESS:          0  dtHIT:          0  dtMISS:          0
cpu0_L2C WRITE        ACCESS:     339449  HIT:     337068  MISS:       2381  iACCESS:          0  iHIT:          0  iMISS:          0  dACCESS:     339449  dHIT:     337068  dMISS:       2381  itACCESS:          0  itHIT:          0  itMISS:          0  dtACCESS:          0  dtHIT:          0  dtMISS:          0
cpu0_L2C TRANSLATION  ACCESS:     371880  HIT:      48870  MISS:     323010  iACCESS:          0  iHIT:          0  iMISS:          0  dACCESS:          0  dHIT:          0  dMISS:          0  itACCESS:      54316  itHIT:       8739  itMISS:      45577  dtACCESS:     317564  dtHIT:      40131  dtMISS:     277433
cpu0_L2C PREFETCH  REQUESTED:    1220974  ISSUED:    1220913  CROSSED:          0  USEFUL:     272938  USELESS:     249994
cpu0_L2C AVERAGE iMISS LATENCY: 39.9711 cycles
cpu0_L2C AVERAGE dMISS LATENCY: 80.8459 cycles
cpu0_L2C AVERAGE itMISS LATENCY: 2.34537 cycles
cpu0_L2C AVERAGE dtMISS LATENCY: 14.6876 cycles
cpu0_L2C PAGE CROSSINGS (TLB HIT):         0 
cpu0_L2C PAGE CROSSINGS (TLB MISS):         0 
cpu0_L2C AVERAGE MISS LATENCY: 137.85 cycles
LLC TOTAL       ACCESS:    3600556  HIT:    1137010  MISS:    2463546  iACCESS:    1102579  iHIT:     346484  iMISS:     756095  dACCESS:    2174967  dHIT:     752789  dMISS:    1422178  itACCESS:      45577  itHIT:       3343  itMISS:      42234  dtACCESS:     277433  dtHIT:      34394  dtMISS:     243039
LLC LOAD         ACCESS:     868604  HIT:     287220  MISS:     581384  iACCESS:     239673  iHIT:      80018  iMISS:     159655  dACCESS:     628931  dHIT:     207202  dMISS:     421729  itACCESS:          0  itHIT:          0  itMISS:          0  dtACCESS:          0  dtHIT:          0  dtMISS:          0
LLC RFO          ACCESS:     129425  HIT:      36765  MISS:      92660  iACCESS:          0  iHIT:          0  iMISS:          0  dACCESS:     129425  dHIT:      36765  dMISS:      92660  itACCESS:          0  itHIT:          0  itMISS:          0  dtACCESS:          0  dtHIT:          0  dtMISS:          0
LLC PREFETCH     ACCESS:    2090994  HIT:     594718  MISS:    1496276  iACCESS:     862906  iHIT:     266466  iMISS:     596440  dACCESS:    1228088  dHIT:     328252  dMISS:     899836  itACCESS:          0  itHIT:          0  itMISS:          0  dtACCESS:          0  dtHIT:          0  dtMISS:          0
LLC WRITE        ACCESS:     188523  HIT:     180570  MISS:       7953  iACCESS:          0  iHIT:          0  iMISS:          0  dACCESS:     188523  dHIT:     180570  dMISS:       7953  itACCESS:          0  itHIT:          0  itMISS:          0  dtACCESS:          0  dtHIT:          0  dtMISS:          0
LLC TRANSLATION  ACCESS:     323010  HIT:      37737  MISS:     285273  iACCESS:          0  iHIT:          0  iMISS:          0  dACCESS:          0  dHIT:          0  dMISS:          0  itACCESS:      45577  itHIT:       3343  itMISS:      42234  dtACCESS:     277433  dtHIT:      34394  dtMISS:     243039
LLC PREFETCH  REQUESTED:          0  ISSUED:          0  CROSSED:          0  USEFUL:          0  USELESS:          0
LLC AVERAGE iMISS LATENCY: 49.2291 cycles
LLC AVERAGE dMISS LATENCY: 102.231 cycles
LLC AVERAGE itMISS LATENCY: 3.03862 cycles
LLC AVERAGE dtMISS LATENCY: 19.102 cycles
LLC PAGE CROSSINGS (TLB HIT):         0 
LLC PAGE CROSSINGS (TLB MISS):         0 
LLC AVERAGE MISS LATENCY: 173.6 cycles

PageTableWalker TOTAL       ACCESS:     177375  
PageTableWalker AVERAGE LATENCY: 6.89074 cycles
PageTableWalker TOTAL LATENCY: 1222245 cycles

DRAM Statistics
Channel 0
 RQ ROW_BUFFER_HIT:     512955
  ROW_BUFFER_MISS:    1929172
 AVG DBUS CONGESTED CYCLE:    3.65869
 WQ ROW_BUFFER_HIT:      55029
  ROW_BUFFER_MISS:      53481  FULL:          0

