last_page:0x200000000000000
VMEM_RES_CAP:0x100000
PAGE_SIZE:4096
LOG2_PAGE_SIZE:12
LOG2_PAGE_TABLE_SIZE:9
page_table_levels:5
WARNING: physical memory size is smaller than virtual memory size
FDiP enabled with aggresivity 16

*** ChampSim Multicore Out-of-Order Simulator ***

Warmup Instructions: 50000000
Simulation Instructions: 100000000
Number of CPUs: 1
Small page size: 4096
Large page size: 2097152

CPU 0 Bimodal branch predictor
Basic BTB sets: 1024 ways: 8 indirect buffer size: 4096 RAS size: 64
Instruction page size distrubution: 0
Loading instruction page size distribution from /home/bsc/bsc018186/scratch/itp_asplos25_AE/dump/smt_srv540_ap_srv495_ap_1024i.pdst
Data page size distrubution: 0
Loading data page size distribution from /home/bsc/bsc018186/scratch/itp_asplos25_AE/dump/smt_srv540_ap_srv495_ap_1024i.pdst
cpu0_L2C IP-based stride prefetcher
cpu0_L1D next line prefetcher
cpu0_L1I next line prefetcher
Off-chip DRAM Size: 4 GiB Channels: 1 Width: 64-bit Data Rate: 3200 MT/s
Heartbeat CPU 0 instructions: 10000001 cycles: 2500379 heartbeat IPC: 3.9994 cumulative IPC: 3.9994 (Simulation time: 0 hr 0 min 38 sec) 
Heartbeat CPU 0 instructions: 20000001 cycles: 5000599 heartbeat IPC: 3.99965 cumulative IPC: 3.99953 (Simulation time: 0 hr 1 min 18 sec) 
Heartbeat CPU 0 instructions: 30000003 cycles: 7500740 heartbeat IPC: 3.99978 cumulative IPC: 3.99961 (Simulation time: 0 hr 1 min 59 sec) 
Heartbeat CPU 0 instructions: 40000001 cycles: 10001012 heartbeat IPC: 3.99957 cumulative IPC: 3.9996 (Simulation time: 0 hr 2 min 42 sec) 
Heartbeat CPU 0 instructions: 50000002 cycles: 12501203 heartbeat IPC: 3.9997 cumulative IPC: 3.99962 (Simulation time: 0 hr 3 min 25 sec) 
Warmup finished CPU 0 instructions: 50000002 cycles: 12501204 cumulative IPC: 3.99962 (Simulation time: 0 hr 3 min 25 sec) 

Warmup complete CPU 0 instructions: 50000002 cycles: 12501204 (Simulation time: 0 hr 3 min 25 sec) 

Heartbeat CPU 0 instructions: 60000001 cycles: 42645298 heartbeat IPC: 0.33174 cumulative IPC: 0.33174 (Simulation time: 0 hr 4 min 51 sec) 
Heartbeat CPU 0 instructions: 70000003 cycles: 73138543 heartbeat IPC: 0.327942 cumulative IPC: 0.32983 (Simulation time: 0 hr 6 min 20 sec) 
Heartbeat CPU 0 instructions: 80000002 cycles: 103827954 heartbeat IPC: 0.325846 cumulative IPC: 0.328491 (Simulation time: 0 hr 7 min 48 sec) 
Heartbeat CPU 0 instructions: 90000000 cycles: 134514007 heartbeat IPC: 0.325881 cumulative IPC: 0.327835 (Simulation time: 0 hr 9 min 18 sec) 
Heartbeat CPU 0 instructions: 100000001 cycles: 164690003 heartbeat IPC: 0.33139 cumulative IPC: 0.32854 (Simulation time: 0 hr 10 min 45 sec) 
Heartbeat CPU 0 instructions: 110000000 cycles: 194522987 heartbeat IPC: 0.3352 cumulative IPC: 0.329631 (Simulation time: 0 hr 12 min 13 sec) 
Heartbeat CPU 0 instructions: 120000000 cycles: 224751549 heartbeat IPC: 0.330813 cumulative IPC: 0.3298 (Simulation time: 0 hr 13 min 41 sec) 
Heartbeat CPU 0 instructions: 130000001 cycles: 254580880 heartbeat IPC: 0.335241 cumulative IPC: 0.33047 (Simulation time: 0 hr 15 min 12 sec) 
Heartbeat CPU 0 instructions: 140000002 cycles: 284482639 heartbeat IPC: 0.334429 cumulative IPC: 0.330905 (Simulation time: 0 hr 16 min 40 sec) 
Heartbeat CPU 0 instructions: 150000001 cycles: 312739914 heartbeat IPC: 0.353892 cumulative IPC: 0.333069 (Simulation time: 0 hr 18 min 6 sec) 
Simulation finished CPU 0 instructions: 100000004 cycles: 300238712 cumulative IPC: 0.333069 (Simulation time: 0 hr 18 min 6 sec) 

Simulation complete CPU 0 instructions: 100000004 cycles: 300238712 (Simulation time: 0 hr 18 min 6 sec) 


ChampSim completed all CPUs

Saving instructions large page distribution to /home/bsc/bsc018186/scratch/itp_asplos25_AE/dump/smt_srv540_ap_srv495_ap_1024i.pdst...
Saving data large page distribution to /home/bsc/bsc018186/scratch/itp_asplos25_AE/dump/smt_srv540_ap_srv495_ap_1024i.pdst...
=== Simulation ===
CPU 0 runs /gpfs/projects/bsc18/MN4/bsc18/romol/ChampSim/traces/qualcomm_srv/smt_srv540_ap_srv495_ap_1024i.champsimtrace.xz

Region of Interest Statistics

CPU 0 cumulative IPC: 0.333069 instructions: 100000004 cycles: 300238712
CPU 0 Branch Prediction Accuracy: 75.5046% MPKI: 44.1654 Average ROB Occupancy at Mispredict: 11.0787
Branch type MPKI
BRANCH_DIRECT_JUMP: 1.33859
BRANCH_INDIRECT: 22.7715
BRANCH_CONDITIONAL: 12.9584
BRANCH_DIRECT_CALL: 2.62042
BRANCH_INDIRECT_CALL: 0.98476
BRANCH_RETURN: 3.49187

Instructions large pages: 0
Instructions small pages: 9586
Large page distribution for instructions: 0%

Data large pages: 0
Data small pages: 8248
Large page distribution for data: 0%

cpu0_L1I TOTAL       ACCESS:   38748710  HIT:   30181232  MISS:    8567478  iACCESS:   38748710  iHIT:   30181232  iMISS:    8567478  dACCESS:          0  dHIT:          0  dMISS:          0  itACCESS:          0  itHIT:          0  itMISS:          0  dtACCESS:          0  dtHIT:          0  dtMISS:          0
cpu0_L1I LOAD         ACCESS:   11522487  HIT:    9190902  MISS:    2331585  iACCESS:   11522487  iHIT:    9190902  iMISS:    2331585  dACCESS:          0  dHIT:          0  dMISS:          0  itACCESS:          0  itHIT:          0  itMISS:          0  dtACCESS:          0  dtHIT:          0  dtMISS:          0
cpu0_L1I RFO          ACCESS:          0  HIT:          0  MISS:          0  iACCESS:          0  iHIT:          0  iMISS:          0  dACCESS:          0  dHIT:          0  dMISS:          0  itACCESS:          0  itHIT:          0  itMISS:          0  dtACCESS:          0  dtHIT:          0  dtMISS:          0
cpu0_L1I PREFETCH     ACCESS:   27226223  HIT:   20990330  MISS:    6235893  iACCESS:   27226223  iHIT:   20990330  iMISS:    6235893  dACCESS:          0  dHIT:          0  dMISS:          0  itACCESS:          0  itHIT:          0  itMISS:          0  dtACCESS:          0  dtHIT:          0  dtMISS:          0
cpu0_L1I WRITE        ACCESS:          0  HIT:          0  MISS:          0  iACCESS:          0  iHIT:          0  iMISS:          0  dACCESS:          0  dHIT:          0  dMISS:          0  itACCESS:          0  itHIT:          0  itMISS:          0  dtACCESS:          0  dtHIT:          0  dtMISS:          0
cpu0_L1I TRANSLATION  ACCESS:          0  HIT:          0  MISS:          0  iACCESS:          0  iHIT:          0  iMISS:          0  dACCESS:          0  dHIT:          0  dMISS:          0  itACCESS:          0  itHIT:          0  itMISS:          0  dtACCESS:          0  dtHIT:          0  dtMISS:          0
cpu0_L1I PREFETCH  REQUESTED:   29959085  ISSUED:   29959078  CROSSED:          0  USEFUL:    2176366  USELESS:     752348
cpu0_L1I AVERAGE iMISS LATENCY: 24.8364 cycles
cpu0_L1I AVERAGE dMISS LATENCY: 0 cycles
cpu0_L1I AVERAGE itMISS LATENCY: 0 cycles
cpu0_L1I AVERAGE dtMISS LATENCY: 0 cycles
cpu0_L1I PAGE CROSSINGS (TLB HIT):         0 
cpu0_L1I PAGE CROSSINGS (TLB MISS):         0 
cpu0_L1I AVERAGE MISS LATENCY: 24.8364 cycles
cpu0_ITLB TOTAL       ACCESS:   32847277  HIT:   30633933  MISS:    2213344  iACCESS:   32847277  iHIT:   30633933  iMISS:    2213344  dACCESS:          0  dHIT:          0  dMISS:          0  itACCESS:          0  itHIT:          0  itMISS:          0  dtACCESS:          0  dtHIT:          0  dtMISS:          0
cpu0_ITLB LOAD         ACCESS:   32847277  HIT:   30633933  MISS:    2213344  iACCESS:   32847277  iHIT:   30633933  iMISS:    2213344  dACCESS:          0  dHIT:          0  dMISS:          0  itACCESS:          0  itHIT:          0  itMISS:          0  dtACCESS:          0  dtHIT:          0  dtMISS:          0
cpu0_ITLB RFO          ACCESS:          0  HIT:          0  MISS:          0  iACCESS:          0  iHIT:          0  iMISS:          0  dACCESS:          0  dHIT:          0  dMISS:          0  itACCESS:          0  itHIT:          0  itMISS:          0  dtACCESS:          0  dtHIT:          0  dtMISS:          0
cpu0_ITLB PREFETCH     ACCESS:          0  HIT:          0  MISS:          0  iACCESS:          0  iHIT:          0  iMISS:          0  dACCESS:          0  dHIT:          0  dMISS:          0  itACCESS:          0  itHIT:          0  itMISS:          0  dtACCESS:          0  dtHIT:          0  dtMISS:          0
cpu0_ITLB WRITE        ACCESS:          0  HIT:          0  MISS:          0  iACCESS:          0  iHIT:          0  iMISS:          0  dACCESS:          0  dHIT:          0  dMISS:          0  itACCESS:          0  itHIT:          0  itMISS:          0  dtACCESS:          0  dtHIT:          0  dtMISS:          0
cpu0_ITLB TRANSLATION  ACCESS:          0  HIT:          0  MISS:          0  iACCESS:          0  iHIT:          0  iMISS:          0  dACCESS:          0  dHIT:          0  dMISS:          0  itACCESS:          0  itHIT:          0  itMISS:          0  dtACCESS:          0  dtHIT:          0  dtMISS:          0
cpu0_ITLB PREFETCH  REQUESTED:          0  ISSUED:          0  CROSSED:          0  USEFUL:     383167  USELESS:      78672
cpu0_ITLB AVERAGE iMISS LATENCY: 10.4508 cycles
cpu0_ITLB AVERAGE dMISS LATENCY: 0 cycles
cpu0_ITLB AVERAGE itMISS LATENCY: 0 cycles
cpu0_ITLB AVERAGE dtMISS LATENCY: 0 cycles
cpu0_ITLB PAGE CROSSINGS (TLB HIT):         0 
cpu0_ITLB PAGE CROSSINGS (TLB MISS):         0 
cpu0_ITLB AVERAGE MISS LATENCY: 10.4508 cycles
cpu0_DTLB TOTAL       ACCESS:   28798552  HIT:   25124869  MISS:    3673683  iACCESS:          0  iHIT:          0  iMISS:          0  dACCESS:   28798552  dHIT:   25124869  dMISS:    3673683  itACCESS:          0  itHIT:          0  itMISS:          0  dtACCESS:          0  dtHIT:          0  dtMISS:          0
cpu0_DTLB LOAD         ACCESS:   28798552  HIT:   25124869  MISS:    3673683  iACCESS:          0  iHIT:          0  iMISS:          0  dACCESS:   28798552  dHIT:   25124869  dMISS:    3673683  itACCESS:          0  itHIT:          0  itMISS:          0  dtACCESS:          0  dtHIT:          0  dtMISS:          0
cpu0_DTLB RFO          ACCESS:          0  HIT:          0  MISS:          0  iACCESS:          0  iHIT:          0  iMISS:          0  dACCESS:          0  dHIT:          0  dMISS:          0  itACCESS:          0  itHIT:          0  itMISS:          0  dtACCESS:          0  dtHIT:          0  dtMISS:          0
cpu0_DTLB PREFETCH     ACCESS:          0  HIT:          0  MISS:          0  iACCESS:          0  iHIT:          0  iMISS:          0  dACCESS:          0  dHIT:          0  dMISS:          0  itACCESS:          0  itHIT:          0  itMISS:          0  dtACCESS:          0  dtHIT:          0  dtMISS:          0
cpu0_DTLB WRITE        ACCESS:          0  HIT:          0  MISS:          0  iACCESS:          0  iHIT:          0  iMISS:          0  dACCESS:          0  dHIT:          0  dMISS:          0  itACCESS:          0  itHIT:          0  itMISS:          0  dtACCESS:          0  dtHIT:          0  dtMISS:          0
cpu0_DTLB TRANSLATION  ACCESS:          0  HIT:          0  MISS:          0  iACCESS:          0  iHIT:          0  iMISS:          0  dACCESS:          0  dHIT:          0  dMISS:          0  itACCESS:          0  itHIT:          0  itMISS:          0  dtACCESS:          0  dtHIT:          0  dtMISS:          0
cpu0_DTLB PREFETCH  REQUESTED:          0  ISSUED:          0  CROSSED:          0  USEFUL:          0  USELESS:          0
cpu0_DTLB AVERAGE iMISS LATENCY: 0 cycles
cpu0_DTLB AVERAGE dMISS LATENCY: 24.826 cycles
cpu0_DTLB AVERAGE itMISS LATENCY: 0 cycles
cpu0_DTLB AVERAGE dtMISS LATENCY: 0 cycles
cpu0_DTLB PAGE CROSSINGS (TLB HIT):         0 
cpu0_DTLB PAGE CROSSINGS (TLB MISS):         0 
cpu0_DTLB AVERAGE MISS LATENCY: 24.826 cycles
cpu0_STLB TOTAL       ACCESS:    2592398  HIT:    2212674  MISS:     379724  iACCESS:     461842  iHIT:     345737  iMISS:     116105  dACCESS:    2130556  dHIT:    1866937  dMISS:     263619  itACCESS:          0  itHIT:          0  itMISS:          0  dtACCESS:          0  dtHIT:          0  dtMISS:          0
cpu0_STLB LOAD         ACCESS:    2592398  HIT:    2212674  MISS:     379724  iACCESS:     461842  iHIT:     345737  iMISS:     116105  dACCESS:    2130556  dHIT:    1866937  dMISS:     263619  itACCESS:          0  itHIT:          0  itMISS:          0  dtACCESS:          0  dtHIT:          0  dtMISS:          0
cpu0_STLB RFO          ACCESS:          0  HIT:          0  MISS:          0  iACCESS:          0  iHIT:          0  iMISS:          0  dACCESS:          0  dHIT:          0  dMISS:          0  itACCESS:          0  itHIT:          0  itMISS:          0  dtACCESS:          0  dtHIT:          0  dtMISS:          0
cpu0_STLB PREFETCH     ACCESS:          0  HIT:          0  MISS:          0  iACCESS:          0  iHIT:          0  iMISS:          0  dACCESS:          0  dHIT:          0  dMISS:          0  itACCESS:          0  itHIT:          0  itMISS:          0  dtACCESS:          0  dtHIT:          0  dtMISS:          0
cpu0_STLB WRITE        ACCESS:          0  HIT:          0  MISS:          0  iACCESS:          0  iHIT:          0  iMISS:          0  dACCESS:          0  dHIT:          0  dMISS:          0  itACCESS:          0  itHIT:          0  itMISS:          0  dtACCESS:          0  dtHIT:          0  dtMISS:          0
cpu0_STLB TRANSLATION  ACCESS:          0  HIT:          0  MISS:          0  iACCESS:          0  iHIT:          0  iMISS:          0  dACCESS:          0  dHIT:          0  dMISS:          0  itACCESS:          0  itHIT:          0  itMISS:          0  dtACCESS:          0  dtHIT:          0  dtMISS:          0
cpu0_STLB PREFETCH  REQUESTED:          0  ISSUED:          0  CROSSED:          0  USEFUL:          0  USELESS:          0
cpu0_STLB AVERAGE iMISS LATENCY: 51.1717 cycles
cpu0_STLB AVERAGE dMISS LATENCY: 195.003 cycles
cpu0_STLB AVERAGE itMISS LATENCY: 0 cycles
cpu0_STLB AVERAGE dtMISS LATENCY: 0 cycles
cpu0_STLB PAGE CROSSINGS (TLB HIT):         0 
cpu0_STLB PAGE CROSSINGS (TLB MISS):         0 
cpu0_STLB AVERAGE MISS LATENCY: 246.175 cycles
cpu0_L1D TOTAL       ACCESS:   44779816  HIT:   38996437  MISS:    5783379  iACCESS:          0  iHIT:          0  iMISS:          0  dACCESS:   44227512  dHIT:   38962858  dMISS:    5264654  itACCESS:     130000  itHIT:      14510  itMISS:     115490  dtACCESS:     422304  dtHIT:      19069  dtMISS:     403235
cpu0_L1D LOAD         ACCESS:   20208903  HIT:   17842184  MISS:    2366719  iACCESS:          0  iHIT:          0  iMISS:          0  dACCESS:   20208903  dHIT:   17842184  dMISS:    2366719  itACCESS:          0  itHIT:          0  itMISS:          0  dtACCESS:          0  dtHIT:          0  dtMISS:          0
cpu0_L1D RFO          ACCESS:          0  HIT:          0  MISS:          0  iACCESS:          0  iHIT:          0  iMISS:          0  dACCESS:          0  dHIT:          0  dMISS:          0  itACCESS:          0  itHIT:          0  itMISS:          0  dtACCESS:          0  dtHIT:          0  dtMISS:          0
cpu0_L1D PREFETCH     ACCESS:   13873660  HIT:   11546428  MISS:    2327232  iACCESS:          0  iHIT:          0  iMISS:          0  dACCESS:   13873660  dHIT:   11546428  dMISS:    2327232  itACCESS:          0  itHIT:          0  itMISS:          0  dtACCESS:          0  dtHIT:          0  dtMISS:          0
cpu0_L1D WRITE        ACCESS:   10144949  HIT:    9574246  MISS:     570703  iACCESS:          0  iHIT:          0  iMISS:          0  dACCESS:   10144949  dHIT:    9574246  dMISS:     570703  itACCESS:          0  itHIT:          0  itMISS:          0  dtACCESS:          0  dtHIT:          0  dtMISS:          0
cpu0_L1D TRANSLATION  ACCESS:     552304  HIT:      33579  MISS:     518725  iACCESS:          0  iHIT:          0  iMISS:          0  dACCESS:          0  dHIT:          0  dMISS:          0  itACCESS:     130000  itHIT:      14510  itMISS:     115490  dtACCESS:     422304  dtHIT:      19069  dtMISS:     403235
cpu0_L1D PREFETCH  REQUESTED:   20208903  ISSUED:   18365121  CROSSED:          0  USEFUL:     360393  USELESS:     930102
cpu0_L1D AVERAGE iMISS LATENCY: 0 cycles
cpu0_L1D AVERAGE dMISS LATENCY: 49.7417 cycles
cpu0_L1D AVERAGE itMISS LATENCY: 3.17502 cycles
cpu0_L1D AVERAGE dtMISS LATENCY: 12.0155 cycles
cpu0_L1D PAGE CROSSINGS (TLB HIT):         0 
cpu0_L1D PAGE CROSSINGS (TLB MISS):         0 
cpu0_L1D AVERAGE MISS LATENCY: 64.9323 cycles
cpu0_L2C TOTAL       ACCESS:    8563833  HIT:    4205072  MISS:    4358761  iACCESS:    3727742  iHIT:    2294227  iMISS:    1433515  dACCESS:    4345641  dHIT:    1849436  dMISS:    2496205  itACCESS:     114777  itHIT:      21722  itMISS:      93055  dtACCESS:     375673  dtHIT:      39687  dtMISS:     335986
cpu0_L2C LOAD         ACCESS:    2039349  HIT:    1007597  MISS:    1031752  iACCESS:     836616  iHIT:     536524  iMISS:     300092  dACCESS:    1202733  dHIT:     471073  dMISS:     731660  itACCESS:          0  itHIT:          0  itMISS:          0  dtACCESS:          0  dtHIT:          0  dtMISS:          0
cpu0_L2C RFO          ACCESS:     218846  HIT:      84058  MISS:     134788  iACCESS:          0  iHIT:          0  iMISS:          0  dACCESS:     218846  dHIT:      84058  dMISS:     134788  itACCESS:          0  itHIT:          0  itMISS:          0  dtACCESS:          0  dtHIT:          0  dtMISS:          0
cpu0_L2C PREFETCH     ACCESS:    5467513  HIT:    2707786  MISS:    2759727  iACCESS:    2891126  iHIT:    1757703  iMISS:    1133423  dACCESS:    2576387  dHIT:     950083  dMISS:    1626304  itACCESS:          0  itHIT:          0  itMISS:          0  dtACCESS:          0  dtHIT:          0  dtMISS:          0
cpu0_L2C WRITE        ACCESS:     347675  HIT:     344222  MISS:       3453  iACCESS:          0  iHIT:          0  iMISS:          0  dACCESS:     347675  dHIT:     344222  dMISS:       3453  itACCESS:          0  itHIT:          0  itMISS:          0  dtACCESS:          0  dtHIT:          0  dtMISS:          0
cpu0_L2C TRANSLATION  ACCESS:     490450  HIT:      61409  MISS:     429041  iACCESS:          0  iHIT:          0  iMISS:          0  dACCESS:          0  dHIT:          0  dMISS:          0  itACCESS:     114777  itHIT:      21722  itMISS:      93055  dtACCESS:     375673  dtHIT:      39687  dtMISS:     335986
cpu0_L2C PREFETCH  REQUESTED:    1523192  ISSUED:    1523182  CROSSED:          0  USEFUL:     352391  USELESS:     314913
cpu0_L2C AVERAGE iMISS LATENCY: 41.6413 cycles
cpu0_L2C AVERAGE dMISS LATENCY: 82.3351 cycles
cpu0_L2C AVERAGE itMISS LATENCY: 3.95363 cycles
cpu0_L2C AVERAGE dtMISS LATENCY: 15.085 cycles
cpu0_L2C PAGE CROSSINGS (TLB HIT):         0 
cpu0_L2C PAGE CROSSINGS (TLB MISS):         0 
cpu0_L2C AVERAGE MISS LATENCY: 143.015 cycles
LLC TOTAL       ACCESS:    4345457  HIT:    1200844  MISS:    3144613  iACCESS:    1342066  iHIT:     363680  iMISS:     978386  dACCESS:    2574350  dHIT:     797933  dMISS:    1776417  itACCESS:      93055  itHIT:       6986  itMISS:      86069  dtACCESS:     335986  dtHIT:      32245  dtMISS:     303741
LLC LOAD         ACCESS:    1025014  HIT:     300954  MISS:     724060  iACCESS:     298871  iHIT:      88490  iMISS:     210381  dACCESS:     726143  dHIT:     212464  dMISS:     513679  itACCESS:          0  itHIT:          0  itMISS:          0  dtACCESS:          0  dtHIT:          0  dtMISS:          0
LLC RFO          ACCESS:     134786  HIT:      40410  MISS:      94376  iACCESS:          0  iHIT:          0  iMISS:          0  dACCESS:     134786  dHIT:      40410  dMISS:      94376  itACCESS:          0  itHIT:          0  itMISS:          0  dtACCESS:          0  dtHIT:          0  dtMISS:          0
LLC PREFETCH     ACCESS:    2545694  HIT:     619613  MISS:    1926081  iACCESS:    1043195  iHIT:     275190  iMISS:     768005  dACCESS:    1502499  dHIT:     344423  dMISS:    1158076  itACCESS:          0  itHIT:          0  itMISS:          0  dtACCESS:          0  dtHIT:          0  dtMISS:          0
LLC WRITE        ACCESS:     210922  HIT:     200636  MISS:      10286  iACCESS:          0  iHIT:          0  iMISS:          0  dACCESS:     210922  dHIT:     200636  dMISS:      10286  itACCESS:          0  itHIT:          0  itMISS:          0  dtACCESS:          0  dtHIT:          0  dtMISS:          0
LLC TRANSLATION  ACCESS:     429041  HIT:      39231  MISS:     389810  iACCESS:          0  iHIT:          0  iMISS:          0  dACCESS:          0  dHIT:          0  dMISS:          0  itACCESS:      93055  itHIT:       6986  itMISS:      86069  dtACCESS:     335986  dtHIT:      32245  dtMISS:     303741
LLC PREFETCH  REQUESTED:          0  ISSUED:          0  CROSSED:          0  USEFUL:          0  USELESS:          0
LLC AVERAGE iMISS LATENCY: 49.2955 cycles
LLC AVERAGE dMISS LATENCY: 100.35 cycles
LLC AVERAGE itMISS LATENCY: 4.89324 cycles
LLC AVERAGE dtMISS LATENCY: 18.7965 cycles
LLC PAGE CROSSINGS (TLB HIT):         0 
LLC PAGE CROSSINGS (TLB MISS):         0 
LLC AVERAGE MISS LATENCY: 173.335 cycles

PageTableWalker TOTAL       ACCESS:     195008  
PageTableWalker AVERAGE LATENCY: 6.42469 cycles
PageTableWalker TOTAL LATENCY: 1252864 cycles

DRAM Statistics
Channel 0
 RQ ROW_BUFFER_HIT:     659654
  ROW_BUFFER_MISS:    2453559
 AVG DBUS CONGESTED CYCLE:     3.6532
 WQ ROW_BUFFER_HIT:      66812
  ROW_BUFFER_MISS:      59034  FULL:          0

