last_page:0x200000000000000
VMEM_RES_CAP:0x100000
PAGE_SIZE:4096
LOG2_PAGE_SIZE:12
LOG2_PAGE_TABLE_SIZE:9
page_table_levels:5
WARNING: physical memory size is smaller than virtual memory size
FDiP enabled with aggresivity 16

*** ChampSim Multicore Out-of-Order Simulator ***

Warmup Instructions: 50000000
Simulation Instructions: 100000000
Number of CPUs: 1
Small page size: 4096
Large page size: 2097152

CPU 0 Bimodal branch predictor
Basic BTB sets: 1024 ways: 8 indirect buffer size: 4096 RAS size: 64
Instruction page size distrubution: 0
Loading instruction page size distribution from /home/bsc/bsc018186/scratch/itp_asplos25_AE/dump/smt_srv85_ap_srv727_ap_1024i.pdst
Data page size distrubution: 0
Loading data page size distribution from /home/bsc/bsc018186/scratch/itp_asplos25_AE/dump/smt_srv85_ap_srv727_ap_1024i.pdst
cpu0_L2C IP-based stride prefetcher
cpu0_L1D next line prefetcher
cpu0_STLB using iTP with max lru@8
cpu0_STLB using iTP with instr@0 and data@2
Init sat counter with 3 bits (max:50).
cpu0_L1I next line prefetcher
Off-chip DRAM Size: 4 GiB Channels: 1 Width: 64-bit Data Rate: 3200 MT/s
Heartbeat CPU 0 instructions: 10000002 cycles: 2500484 heartbeat IPC: 3.99923 cumulative IPC: 3.99923 (Simulation time: 0 hr 0 min 43 sec) 
Heartbeat CPU 0 instructions: 20000002 cycles: 5000607 heartbeat IPC: 3.99981 cumulative IPC: 3.99952 (Simulation time: 0 hr 1 min 27 sec) 
Heartbeat CPU 0 instructions: 30000002 cycles: 7500848 heartbeat IPC: 3.99962 cumulative IPC: 3.99955 (Simulation time: 0 hr 2 min 12 sec) 
Heartbeat CPU 0 instructions: 40000003 cycles: 10001067 heartbeat IPC: 3.99966 cumulative IPC: 3.99958 (Simulation time: 0 hr 3 min 0 sec) 
Heartbeat CPU 0 instructions: 50000001 cycles: 12501171 heartbeat IPC: 3.99984 cumulative IPC: 3.99963 (Simulation time: 0 hr 3 min 49 sec) 
Warmup finished CPU 0 instructions: 50000001 cycles: 12501172 cumulative IPC: 3.99963 (Simulation time: 0 hr 3 min 49 sec) 

Warmup complete CPU 0 instructions: 50000001 cycles: 12501172 (Simulation time: 0 hr 3 min 49 sec) 

Heartbeat CPU 0 instructions: 60000004 cycles: 39915596 heartbeat IPC: 0.364772 cumulative IPC: 0.364772 (Simulation time: 0 hr 5 min 25 sec) 
Heartbeat CPU 0 instructions: 70000004 cycles: 68076961 heartbeat IPC: 0.355097 cumulative IPC: 0.359869 (Simulation time: 0 hr 7 min 3 sec) 
Heartbeat CPU 0 instructions: 80000003 cycles: 96512200 heartbeat IPC: 0.351677 cumulative IPC: 0.357096 (Simulation time: 0 hr 8 min 38 sec) 
Heartbeat CPU 0 instructions: 90000002 cycles: 124755994 heartbeat IPC: 0.354061 cumulative IPC: 0.356333 (Simulation time: 0 hr 10 min 12 sec) 
Heartbeat CPU 0 instructions: 100000000 cycles: 153457478 heartbeat IPC: 0.348414 cumulative IPC: 0.35472 (Simulation time: 0 hr 11 min 46 sec) 
Heartbeat CPU 0 instructions: 110000000 cycles: 182419919 heartbeat IPC: 0.345275 cumulative IPC: 0.35311 (Simulation time: 0 hr 13 min 24 sec) 
Heartbeat CPU 0 instructions: 120000001 cycles: 210677808 heartbeat IPC: 0.353884 cumulative IPC: 0.353221 (Simulation time: 0 hr 14 min 59 sec) 
Heartbeat CPU 0 instructions: 130000000 cycles: 239428598 heartbeat IPC: 0.347817 cumulative IPC: 0.352536 (Simulation time: 0 hr 16 min 32 sec) 
Heartbeat CPU 0 instructions: 140000004 cycles: 268089122 heartbeat IPC: 0.348913 cumulative IPC: 0.35213 (Simulation time: 0 hr 18 min 1 sec) 
Heartbeat CPU 0 instructions: 150000004 cycles: 296570092 heartbeat IPC: 0.351112 cumulative IPC: 0.352028 (Simulation time: 0 hr 19 min 27 sec) 
Simulation finished CPU 0 instructions: 100000003 cycles: 284068921 cumulative IPC: 0.352028 (Simulation time: 0 hr 19 min 27 sec) 

Simulation complete CPU 0 instructions: 100000003 cycles: 284068921 (Simulation time: 0 hr 19 min 27 sec) 


ChampSim completed all CPUs

Saving instructions large page distribution to /home/bsc/bsc018186/scratch/itp_asplos25_AE/dump/smt_srv85_ap_srv727_ap_1024i.pdst...
Saving data large page distribution to /home/bsc/bsc018186/scratch/itp_asplos25_AE/dump/smt_srv85_ap_srv727_ap_1024i.pdst...
=== Simulation ===
CPU 0 runs /gpfs/projects/bsc18/MN4/bsc18/romol/ChampSim/traces/qualcomm_srv/smt_srv85_ap_srv727_ap_1024i.champsimtrace.xz

Region of Interest Statistics

CPU 0 cumulative IPC: 0.352028 instructions: 100000003 cycles: 284068921
CPU 0 Branch Prediction Accuracy: 74.8933% MPKI: 45.2026 Average ROB Occupancy at Mispredict: 10.5559
Branch type MPKI
BRANCH_DIRECT_JUMP: 1.40749
BRANCH_INDIRECT: 23.4058
BRANCH_CONDITIONAL: 13.133
BRANCH_DIRECT_CALL: 2.6974
BRANCH_INDIRECT_CALL: 1.0062
BRANCH_RETURN: 3.55269

Instructions large pages: 0
Instructions small pages: 9809
Large page distribution for instructions: 0%

Data large pages: 0
Data small pages: 8446
Large page distribution for data: 0%

cpu0_L1I TOTAL       ACCESS:   39564376  HIT:   30357732  MISS:    9206644  iACCESS:   39564376  iHIT:   30357732  iMISS:    9206644  dACCESS:          0  dHIT:          0  dMISS:          0  itACCESS:          0  itHIT:          0  itMISS:          0  dtACCESS:          0  dtHIT:          0  dtMISS:          0
cpu0_L1I LOAD         ACCESS:   11806661  HIT:    9312001  MISS:    2494660  iACCESS:   11806661  iHIT:    9312001  iMISS:    2494660  dACCESS:          0  dHIT:          0  dMISS:          0  itACCESS:          0  itHIT:          0  itMISS:          0  dtACCESS:          0  dtHIT:          0  dtMISS:          0
cpu0_L1I RFO          ACCESS:          0  HIT:          0  MISS:          0  iACCESS:          0  iHIT:          0  iMISS:          0  dACCESS:          0  dHIT:          0  dMISS:          0  itACCESS:          0  itHIT:          0  itMISS:          0  dtACCESS:          0  dtHIT:          0  dtMISS:          0
cpu0_L1I PREFETCH     ACCESS:   27757715  HIT:   21045731  MISS:    6711984  iACCESS:   27757715  iHIT:   21045731  iMISS:    6711984  dACCESS:          0  dHIT:          0  dMISS:          0  itACCESS:          0  itHIT:          0  itMISS:          0  dtACCESS:          0  dtHIT:          0  dtMISS:          0
cpu0_L1I WRITE        ACCESS:          0  HIT:          0  MISS:          0  iACCESS:          0  iHIT:          0  iMISS:          0  dACCESS:          0  dHIT:          0  dMISS:          0  itACCESS:          0  itHIT:          0  itMISS:          0  dtACCESS:          0  dtHIT:          0  dtMISS:          0
cpu0_L1I TRANSLATION  ACCESS:          0  HIT:          0  MISS:          0  iACCESS:          0  iHIT:          0  iMISS:          0  dACCESS:          0  dHIT:          0  dMISS:          0  itACCESS:          0  itHIT:          0  itMISS:          0  dtACCESS:          0  dtHIT:          0  dtMISS:          0
cpu0_L1I PREFETCH  REQUESTED:   30358653  ISSUED:   30357018  CROSSED:          0  USEFUL:    2219149  USELESS:     766984
cpu0_L1I AVERAGE iMISS LATENCY: 24.7613 cycles
cpu0_L1I AVERAGE dMISS LATENCY: 0 cycles
cpu0_L1I AVERAGE itMISS LATENCY: 0 cycles
cpu0_L1I AVERAGE dtMISS LATENCY: 0 cycles
cpu0_L1I PAGE CROSSINGS (TLB HIT):         0 
cpu0_L1I PAGE CROSSINGS (TLB MISS):         0 
cpu0_L1I AVERAGE MISS LATENCY: 24.7613 cycles
cpu0_ITLB TOTAL       ACCESS:   33317239  HIT:   31083981  MISS:    2233258  iACCESS:   33317239  iHIT:   31083981  iMISS:    2233258  dACCESS:          0  dHIT:          0  dMISS:          0  itACCESS:          0  itHIT:          0  itMISS:          0  dtACCESS:          0  dtHIT:          0  dtMISS:          0
cpu0_ITLB LOAD         ACCESS:   33317239  HIT:   31083981  MISS:    2233258  iACCESS:   33317239  iHIT:   31083981  iMISS:    2233258  dACCESS:          0  dHIT:          0  dMISS:          0  itACCESS:          0  itHIT:          0  itMISS:          0  dtACCESS:          0  dtHIT:          0  dtMISS:          0
cpu0_ITLB RFO          ACCESS:          0  HIT:          0  MISS:          0  iACCESS:          0  iHIT:          0  iMISS:          0  dACCESS:          0  dHIT:          0  dMISS:          0  itACCESS:          0  itHIT:          0  itMISS:          0  dtACCESS:          0  dtHIT:          0  dtMISS:          0
cpu0_ITLB PREFETCH     ACCESS:          0  HIT:          0  MISS:          0  iACCESS:          0  iHIT:          0  iMISS:          0  dACCESS:          0  dHIT:          0  dMISS:          0  itACCESS:          0  itHIT:          0  itMISS:          0  dtACCESS:          0  dtHIT:          0  dtMISS:          0
cpu0_ITLB WRITE        ACCESS:          0  HIT:          0  MISS:          0  iACCESS:          0  iHIT:          0  iMISS:          0  dACCESS:          0  dHIT:          0  dMISS:          0  itACCESS:          0  itHIT:          0  itMISS:          0  dtACCESS:          0  dtHIT:          0  dtMISS:          0
cpu0_ITLB TRANSLATION  ACCESS:          0  HIT:          0  MISS:          0  iACCESS:          0  iHIT:          0  iMISS:          0  dACCESS:          0  dHIT:          0  dMISS:          0  itACCESS:          0  itHIT:          0  itMISS:          0  dtACCESS:          0  dtHIT:          0  dtMISS:          0
cpu0_ITLB PREFETCH  REQUESTED:          0  ISSUED:          0  CROSSED:          0  USEFUL:     391619  USELESS:      80137
cpu0_ITLB AVERAGE iMISS LATENCY: 5.85069 cycles
cpu0_ITLB AVERAGE dMISS LATENCY: 0 cycles
cpu0_ITLB AVERAGE itMISS LATENCY: 0 cycles
cpu0_ITLB AVERAGE dtMISS LATENCY: 0 cycles
cpu0_ITLB PAGE CROSSINGS (TLB HIT):         0 
cpu0_ITLB PAGE CROSSINGS (TLB MISS):         0 
cpu0_ITLB AVERAGE MISS LATENCY: 5.85069 cycles
cpu0_DTLB TOTAL       ACCESS:   28906805  HIT:   25304099  MISS:    3602706  iACCESS:          0  iHIT:          0  iMISS:          0  dACCESS:   28906805  dHIT:   25304099  dMISS:    3602706  itACCESS:          0  itHIT:          0  itMISS:          0  dtACCESS:          0  dtHIT:          0  dtMISS:          0
cpu0_DTLB LOAD         ACCESS:   28906805  HIT:   25304099  MISS:    3602706  iACCESS:          0  iHIT:          0  iMISS:          0  dACCESS:   28906805  dHIT:   25304099  dMISS:    3602706  itACCESS:          0  itHIT:          0  itMISS:          0  dtACCESS:          0  dtHIT:          0  dtMISS:          0
cpu0_DTLB RFO          ACCESS:          0  HIT:          0  MISS:          0  iACCESS:          0  iHIT:          0  iMISS:          0  dACCESS:          0  dHIT:          0  dMISS:          0  itACCESS:          0  itHIT:          0  itMISS:          0  dtACCESS:          0  dtHIT:          0  dtMISS:          0
cpu0_DTLB PREFETCH     ACCESS:          0  HIT:          0  MISS:          0  iACCESS:          0  iHIT:          0  iMISS:          0  dACCESS:          0  dHIT:          0  dMISS:          0  itACCESS:          0  itHIT:          0  itMISS:          0  dtACCESS:          0  dtHIT:          0  dtMISS:          0
cpu0_DTLB WRITE        ACCESS:          0  HIT:          0  MISS:          0  iACCESS:          0  iHIT:          0  iMISS:          0  dACCESS:          0  dHIT:          0  dMISS:          0  itACCESS:          0  itHIT:          0  itMISS:          0  dtACCESS:          0  dtHIT:          0  dtMISS:          0
cpu0_DTLB TRANSLATION  ACCESS:          0  HIT:          0  MISS:          0  iACCESS:          0  iHIT:          0  iMISS:          0  dACCESS:          0  dHIT:          0  dMISS:          0  itACCESS:          0  itHIT:          0  itMISS:          0  dtACCESS:          0  dtHIT:          0  dtMISS:          0
cpu0_DTLB PREFETCH  REQUESTED:          0  ISSUED:          0  CROSSED:          0  USEFUL:          0  USELESS:          0
cpu0_DTLB AVERAGE iMISS LATENCY: 0 cycles
cpu0_DTLB AVERAGE dMISS LATENCY: 19.5494 cycles
cpu0_DTLB AVERAGE itMISS LATENCY: 0 cycles
cpu0_DTLB AVERAGE dtMISS LATENCY: 0 cycles
cpu0_DTLB PAGE CROSSINGS (TLB HIT):         0 
cpu0_DTLB PAGE CROSSINGS (TLB MISS):         0 
cpu0_DTLB AVERAGE MISS LATENCY: 19.5494 cycles
cpu0_STLB TOTAL       ACCESS:    2595914  HIT:    2209114  MISS:     386800  iACCESS:     471772  iHIT:     411309  iMISS:      60463  dACCESS:    2124142  dHIT:    1797805  dMISS:     326337  itACCESS:          0  itHIT:          0  itMISS:          0  dtACCESS:          0  dtHIT:          0  dtMISS:          0
cpu0_STLB LOAD         ACCESS:    2595914  HIT:    2209114  MISS:     386800  iACCESS:     471772  iHIT:     411309  iMISS:      60463  dACCESS:    2124142  dHIT:    1797805  dMISS:     326337  itACCESS:          0  itHIT:          0  itMISS:          0  dtACCESS:          0  dtHIT:          0  dtMISS:          0
cpu0_STLB RFO          ACCESS:          0  HIT:          0  MISS:          0  iACCESS:          0  iHIT:          0  iMISS:          0  dACCESS:          0  dHIT:          0  dMISS:          0  itACCESS:          0  itHIT:          0  itMISS:          0  dtACCESS:          0  dtHIT:          0  dtMISS:          0
cpu0_STLB PREFETCH     ACCESS:          0  HIT:          0  MISS:          0  iACCESS:          0  iHIT:          0  iMISS:          0  dACCESS:          0  dHIT:          0  dMISS:          0  itACCESS:          0  itHIT:          0  itMISS:          0  dtACCESS:          0  dtHIT:          0  dtMISS:          0
cpu0_STLB WRITE        ACCESS:          0  HIT:          0  MISS:          0  iACCESS:          0  iHIT:          0  iMISS:          0  dACCESS:          0  dHIT:          0  dMISS:          0  itACCESS:          0  itHIT:          0  itMISS:          0  dtACCESS:          0  dtHIT:          0  dtMISS:          0
cpu0_STLB TRANSLATION  ACCESS:          0  HIT:          0  MISS:          0  iACCESS:          0  iHIT:          0  iMISS:          0  dACCESS:          0  dHIT:          0  dMISS:          0  itACCESS:          0  itHIT:          0  itMISS:          0  dtACCESS:          0  dtHIT:          0  dtMISS:          0
cpu0_STLB PREFETCH  REQUESTED:          0  ISSUED:          0  CROSSED:          0  USEFUL:          0  USELESS:          0
cpu0_STLB AVERAGE iMISS LATENCY: 24.1895 cycles
cpu0_STLB AVERAGE dMISS LATENCY: 137.799 cycles
cpu0_STLB AVERAGE itMISS LATENCY: 0 cycles
cpu0_STLB AVERAGE dtMISS LATENCY: 0 cycles
cpu0_STLB PAGE CROSSINGS (TLB HIT):         0 
cpu0_STLB PAGE CROSSINGS (TLB MISS):         0 
cpu0_STLB AVERAGE MISS LATENCY: 161.989 cycles
cpu0_L1D TOTAL       ACCESS:   45205745  HIT:   39247180  MISS:    5958565  iACCESS:          0  iHIT:          0  iMISS:          0  dACCESS:   44609238  dHIT:   39218049  dMISS:    5391189  itACCESS:      71600  itHIT:       5249  itMISS:      66351  dtACCESS:     524907  dtHIT:      23882  dtMISS:     501025
cpu0_L1D LOAD         ACCESS:   20360621  HIT:   17938886  MISS:    2421735  iACCESS:          0  iHIT:          0  iMISS:          0  dACCESS:   20360621  dHIT:   17938886  dMISS:    2421735  itACCESS:          0  itHIT:          0  itMISS:          0  dtACCESS:          0  dtHIT:          0  dtMISS:          0
cpu0_L1D RFO          ACCESS:          0  HIT:          0  MISS:          0  iACCESS:          0  iHIT:          0  iMISS:          0  dACCESS:          0  dHIT:          0  dMISS:          0  itACCESS:          0  itHIT:          0  itMISS:          0  dtACCESS:          0  dtHIT:          0  dtMISS:          0
cpu0_L1D PREFETCH     ACCESS:   14095131  HIT:   11722210  MISS:    2372921  iACCESS:          0  iHIT:          0  iMISS:          0  dACCESS:   14095131  dHIT:   11722210  dMISS:    2372921  itACCESS:          0  itHIT:          0  itMISS:          0  dtACCESS:          0  dtHIT:          0  dtMISS:          0
cpu0_L1D WRITE        ACCESS:   10153486  HIT:    9556953  MISS:     596533  iACCESS:          0  iHIT:          0  iMISS:          0  dACCESS:   10153486  dHIT:    9556953  dMISS:     596533  itACCESS:          0  itHIT:          0  itMISS:          0  dtACCESS:          0  dtHIT:          0  dtMISS:          0
cpu0_L1D TRANSLATION  ACCESS:     596507  HIT:      29131  MISS:     567376  iACCESS:          0  iHIT:          0  iMISS:          0  dACCESS:          0  dHIT:          0  dMISS:          0  itACCESS:      71600  itHIT:       5249  itMISS:      66351  dtACCESS:     524907  dtHIT:      23882  dtMISS:     501025
cpu0_L1D PREFETCH  REQUESTED:   20360621  ISSUED:   18542367  CROSSED:          0  USEFUL:     361971  USELESS:     942383
cpu0_L1D AVERAGE iMISS LATENCY: 0 cycles
cpu0_L1D AVERAGE dMISS LATENCY: 50.269 cycles
cpu0_L1D AVERAGE itMISS LATENCY: 1.46666 cycles
cpu0_L1D AVERAGE dtMISS LATENCY: 8.06208 cycles
cpu0_L1D PAGE CROSSINGS (TLB HIT):         0 
cpu0_L1D PAGE CROSSINGS (TLB MISS):         0 
cpu0_L1D AVERAGE MISS LATENCY: 59.7977 cycles
cpu0_L2C TOTAL       ACCESS:    8726231  HIT:    1568608  MISS:    7157623  iACCESS:    3789700  iHIT:     821789  iMISS:    2967911  dACCESS:    4403902  dHIT:     533933  dMISS:    3869969  itACCESS:      65655  itHIT:      16737  itMISS:      48918  dtACCESS:     466974  dtHIT:     196149  dtMISS:     270825
cpu0_L2C LOAD         ACCESS:    2068195  HIT:     203211  MISS:    1864984  iACCESS:     839513  iHIT:     117398  iMISS:     722115  dACCESS:    1228682  dHIT:      85813  dMISS:    1142869  itACCESS:          0  itHIT:          0  itMISS:          0  dtACCESS:          0  dtHIT:          0  dtMISS:          0
cpu0_L2C RFO          ACCESS:     217414  HIT:      27610  MISS:     189804  iACCESS:          0  iHIT:          0  iMISS:          0  dACCESS:     217414  dHIT:      27610  dMISS:     189804  itACCESS:          0  itHIT:          0  itMISS:          0  dtACCESS:          0  dtHIT:          0  dtMISS:          0
cpu0_L2C PREFETCH     ACCESS:    5560958  HIT:    1025160  MISS:    4535798  iACCESS:    2950187  iHIT:     704391  iMISS:    2245796  dACCESS:    2610771  dHIT:     320769  dMISS:    2290002  itACCESS:          0  itHIT:          0  itMISS:          0  dtACCESS:          0  dtHIT:          0  dtMISS:          0
cpu0_L2C WRITE        ACCESS:     347035  HIT:      99741  MISS:     247294  iACCESS:          0  iHIT:          0  iMISS:          0  dACCESS:     347035  dHIT:      99741  dMISS:     247294  itACCESS:          0  itHIT:          0  itMISS:          0  dtACCESS:          0  dtHIT:          0  dtMISS:          0
cpu0_L2C TRANSLATION  ACCESS:     532629  HIT:     212886  MISS:     319743  iACCESS:          0  iHIT:          0  iMISS:          0  dACCESS:          0  dHIT:          0  dMISS:          0  itACCESS:      65655  itHIT:      16737  itMISS:      48918  dtACCESS:     466974  dtHIT:     196149  dtMISS:     270825
cpu0_L2C PREFETCH  REQUESTED:    1550876  ISSUED:    1550874  CROSSED:          0  USEFUL:     414607  USELESS:     495765
cpu0_L2C AVERAGE iMISS LATENCY: 27.3603 cycles
cpu0_L2C AVERAGE dMISS LATENCY: 51.6827 cycles
cpu0_L2C AVERAGE itMISS LATENCY: 1.13132 cycles
cpu0_L2C AVERAGE dtMISS LATENCY: 6.08354 cycles
cpu0_L2C PAGE CROSSINGS (TLB HIT):         0 
cpu0_L2C PAGE CROSSINGS (TLB MISS):         0 
cpu0_L2C AVERAGE MISS LATENCY: 86.2578 cycles
LLC TOTAL       ACCESS:    6961756  HIT:    4128407  MISS:    2833349  iACCESS:    2873810  iHIT:    1991732  iMISS:     882078  dACCESS:    3768203  dHIT:    2057243  dMISS:    1710960  itACCESS:      48918  itHIT:       9062  itMISS:      39856  dtACCESS:     270825  dtHIT:      70370  dtMISS:     200455
LLC LOAD         ACCESS:    1857065  HIT:    1170822  MISS:     686243  iACCESS:     720633  iHIT:     535121  iMISS:     185512  dACCESS:    1136432  dHIT:     635701  dMISS:     500731  itACCESS:          0  itHIT:          0  itMISS:          0  dtACCESS:          0  dtHIT:          0  dtMISS:          0
LLC RFO          ACCESS:     189783  HIT:      94652  MISS:      95131  iACCESS:          0  iHIT:          0  iMISS:          0  dACCESS:     189783  dHIT:      94652  dMISS:      95131  itACCESS:          0  itHIT:          0  itMISS:          0  dtACCESS:          0  dtHIT:          0  dtMISS:          0
LLC PREFETCH     ACCESS:    4314364  HIT:    2509723  MISS:    1804641  iACCESS:    2153177  iHIT:    1456611  iMISS:     696566  dACCESS:    2161187  dHIT:    1053112  dMISS:    1108075  itACCESS:          0  itHIT:          0  itMISS:          0  dtACCESS:          0  dtHIT:          0  dtMISS:          0
LLC WRITE        ACCESS:     280801  HIT:     273778  MISS:       7023  iACCESS:          0  iHIT:          0  iMISS:          0  dACCESS:     280801  dHIT:     273778  dMISS:       7023  itACCESS:          0  itHIT:          0  itMISS:          0  dtACCESS:          0  dtHIT:          0  dtMISS:          0
LLC TRANSLATION  ACCESS:     319743  HIT:      79432  MISS:     240311  iACCESS:          0  iHIT:          0  iMISS:          0  dACCESS:          0  dHIT:          0  dMISS:          0  itACCESS:      48918  itHIT:       9062  itMISS:      39856  dtACCESS:     270825  dtHIT:      70370  dtMISS:     200455
LLC PREFETCH  REQUESTED:          0  ISSUED:          0  CROSSED:          0  USEFUL:          0  USELESS:          0
LLC AVERAGE iMISS LATENCY: 49.4085 cycles
LLC AVERAGE dMISS LATENCY: 107.605 cycles
LLC AVERAGE itMISS LATENCY: 2.51713 cycles
LLC AVERAGE dtMISS LATENCY: 13.4873 cycles
LLC PAGE CROSSINGS (TLB HIT):         0 
LLC PAGE CROSSINGS (TLB MISS):         0 
LLC AVERAGE MISS LATENCY: 173.018 cycles

PageTableWalker TOTAL       ACCESS:     192403  
PageTableWalker AVERAGE LATENCY: 6.23439 cycles
PageTableWalker TOTAL LATENCY: 1199514 cycles

DRAM Statistics
Channel 0
 RQ ROW_BUFFER_HIT:     615475
  ROW_BUFFER_MISS:    2190338
 AVG DBUS CONGESTED CYCLE:    3.65921
 WQ ROW_BUFFER_HIT:      69324
  ROW_BUFFER_MISS:      69150  FULL:          0

