last_page:0x200000000000000
VMEM_RES_CAP:0x100000
PAGE_SIZE:4096
LOG2_PAGE_SIZE:12
LOG2_PAGE_TABLE_SIZE:9
page_table_levels:5
WARNING: physical memory size is smaller than virtual memory size
FDiP enabled with aggresivity 16

*** ChampSim Multicore Out-of-Order Simulator ***

Warmup Instructions: 50000000
Simulation Instructions: 100000000
Number of CPUs: 1
Small page size: 4096
Large page size: 2097152

CPU 0 Bimodal branch predictor
Basic BTB sets: 1024 ways: 8 indirect buffer size: 4096 RAS size: 64
Instruction page size distrubution: 0
Loading instruction page size distribution from /home/bsc/bsc018186/scratch/itp_asplos25_AE/dump/smt_srv537_ap_srv346_ap_1024i.pdst
Data page size distrubution: 0
Loading data page size distribution from /home/bsc/bsc018186/scratch/itp_asplos25_AE/dump/smt_srv537_ap_srv346_ap_1024i.pdst
cpu0_L2C IP-based stride prefetcher
cpu0_L2C is using xPTP/LRU
	TLB_LOWER_STRESS_THRESHOLD:1
	TLB_UPPER_STRESS_THRESHOLD:4
	MIN_EVICTION_POSITION:4
cpu0_L1D next line prefetcher
cpu0_STLB using iTP with max lru@8
cpu0_STLB using iTP with instr@0 and data@2
Init sat counter with 3 bits (max:50).
cpu0_L1I next line prefetcher
Off-chip DRAM Size: 4 GiB Channels: 1 Width: 64-bit Data Rate: 3200 MT/s
Heartbeat CPU 0 instructions: 10000002 cycles: 2500335 heartbeat IPC: 3.99947 cumulative IPC: 3.99947 (Simulation time: 0 hr 0 min 37 sec) 
Heartbeat CPU 0 instructions: 20000002 cycles: 5000458 heartbeat IPC: 3.99981 cumulative IPC: 3.99964 (Simulation time: 0 hr 1 min 16 sec) 
Heartbeat CPU 0 instructions: 30000000 cycles: 7500500 heartbeat IPC: 3.99994 cumulative IPC: 3.99974 (Simulation time: 0 hr 1 min 55 sec) 
Heartbeat CPU 0 instructions: 40000003 cycles: 10000604 heartbeat IPC: 3.99984 cumulative IPC: 3.99976 (Simulation time: 0 hr 2 min 34 sec) 
Heartbeat CPU 0 instructions: 50000001 cycles: 12500729 heartbeat IPC: 3.9998 cumulative IPC: 3.99977 (Simulation time: 0 hr 3 min 14 sec) 
Warmup finished CPU 0 instructions: 50000001 cycles: 12500730 cumulative IPC: 3.99977 (Simulation time: 0 hr 3 min 14 sec) 

Warmup complete CPU 0 instructions: 50000001 cycles: 12500730 (Simulation time: 0 hr 3 min 14 sec) 

Heartbeat CPU 0 instructions: 60000000 cycles: 38474420 heartbeat IPC: 0.385005 cumulative IPC: 0.385005 (Simulation time: 0 hr 4 min 32 sec) 
Heartbeat CPU 0 instructions: 70000003 cycles: 64333622 heartbeat IPC: 0.38671 cumulative IPC: 0.385856 (Simulation time: 0 hr 5 min 49 sec) 
Heartbeat CPU 0 instructions: 80000003 cycles: 89837121 heartbeat IPC: 0.392104 cumulative IPC: 0.387916 (Simulation time: 0 hr 7 min 7 sec) 
Heartbeat CPU 0 instructions: 90000000 cycles: 114188580 heartbeat IPC: 0.410653 cumulative IPC: 0.393361 (Simulation time: 0 hr 8 min 22 sec) 
Heartbeat CPU 0 instructions: 100000003 cycles: 139703267 heartbeat IPC: 0.391932 cumulative IPC: 0.393074 (Simulation time: 0 hr 9 min 40 sec) 
Heartbeat CPU 0 instructions: 110000001 cycles: 166105239 heartbeat IPC: 0.37876 cumulative IPC: 0.390614 (Simulation time: 0 hr 10 min 58 sec) 
Heartbeat CPU 0 instructions: 120000000 cycles: 191160208 heartbeat IPC: 0.399123 cumulative IPC: 0.391807 (Simulation time: 0 hr 12 min 15 sec) 
Heartbeat CPU 0 instructions: 130000000 cycles: 215945706 heartbeat IPC: 0.403462 cumulative IPC: 0.393227 (Simulation time: 0 hr 13 min 31 sec) 
Heartbeat CPU 0 instructions: 140000003 cycles: 241380763 heartbeat IPC: 0.393159 cumulative IPC: 0.39322 (Simulation time: 0 hr 14 min 48 sec) 
Heartbeat CPU 0 instructions: 150000002 cycles: 266924553 heartbeat IPC: 0.391485 cumulative IPC: 0.393045 (Simulation time: 0 hr 16 min 6 sec) 
Simulation finished CPU 0 instructions: 100000001 cycles: 254423824 cumulative IPC: 0.393045 (Simulation time: 0 hr 16 min 6 sec) 

Simulation complete CPU 0 instructions: 100000001 cycles: 254423824 (Simulation time: 0 hr 16 min 6 sec) 


ChampSim completed all CPUs

Saving instructions large page distribution to /home/bsc/bsc018186/scratch/itp_asplos25_AE/dump/smt_srv537_ap_srv346_ap_1024i.pdst...
Saving data large page distribution to /home/bsc/bsc018186/scratch/itp_asplos25_AE/dump/smt_srv537_ap_srv346_ap_1024i.pdst...
=== Simulation ===
CPU 0 runs /gpfs/projects/bsc18/MN4/bsc18/romol/ChampSim/traces/qualcomm_srv/smt_srv537_ap_srv346_ap_1024i.champsimtrace.xz

Region of Interest Statistics

CPU 0 cumulative IPC: 0.393045 instructions: 100000001 cycles: 254423824
CPU 0 Branch Prediction Accuracy: 76.0378% MPKI: 43.1546 Average ROB Occupancy at Mispredict: 11.062
Branch type MPKI
BRANCH_DIRECT_JUMP: 1.29275
BRANCH_INDIRECT: 22.4335
BRANCH_CONDITIONAL: 12.5778
BRANCH_DIRECT_CALL: 2.48923
BRANCH_INDIRECT_CALL: 0.93622
BRANCH_RETURN: 3.4251

Instructions large pages: 0
Instructions small pages: 13507
Large page distribution for instructions: 0%

Data large pages: 0
Data small pages: 12202
Large page distribution for data: 0%

cpu0_L1I TOTAL       ACCESS:   39223442  HIT:   30282359  MISS:    8941083  iACCESS:   39223442  iHIT:   30282359  iMISS:    8941083  dACCESS:          0  dHIT:          0  dMISS:          0  itACCESS:          0  itHIT:          0  itMISS:          0  dtACCESS:          0  dtHIT:          0  dtMISS:          0
cpu0_L1I LOAD         ACCESS:   11786472  HIT:    9347764  MISS:    2438708  iACCESS:   11786472  iHIT:    9347764  iMISS:    2438708  dACCESS:          0  dHIT:          0  dMISS:          0  itACCESS:          0  itHIT:          0  itMISS:          0  dtACCESS:          0  dtHIT:          0  dtMISS:          0
cpu0_L1I RFO          ACCESS:          0  HIT:          0  MISS:          0  iACCESS:          0  iHIT:          0  iMISS:          0  dACCESS:          0  dHIT:          0  dMISS:          0  itACCESS:          0  itHIT:          0  itMISS:          0  dtACCESS:          0  dtHIT:          0  dtMISS:          0
cpu0_L1I PREFETCH     ACCESS:   27436970  HIT:   20934595  MISS:    6502375  iACCESS:   27436970  iHIT:   20934595  iMISS:    6502375  dACCESS:          0  dHIT:          0  dMISS:          0  itACCESS:          0  itHIT:          0  itMISS:          0  dtACCESS:          0  dtHIT:          0  dtMISS:          0
cpu0_L1I WRITE        ACCESS:          0  HIT:          0  MISS:          0  iACCESS:          0  iHIT:          0  iMISS:          0  dACCESS:          0  dHIT:          0  dMISS:          0  itACCESS:          0  itHIT:          0  itMISS:          0  dtACCESS:          0  dtHIT:          0  dtMISS:          0
cpu0_L1I TRANSLATION  ACCESS:          0  HIT:          0  MISS:          0  iACCESS:          0  iHIT:          0  iMISS:          0  dACCESS:          0  dHIT:          0  dMISS:          0  itACCESS:          0  itHIT:          0  itMISS:          0  dtACCESS:          0  dtHIT:          0  dtMISS:          0
cpu0_L1I PREFETCH  REQUESTED:   30235100  ISSUED:   30234732  CROSSED:          0  USEFUL:    2210501  USELESS:     754735
cpu0_L1I AVERAGE iMISS LATENCY: 21.117 cycles
cpu0_L1I AVERAGE dMISS LATENCY: 0 cycles
cpu0_L1I AVERAGE itMISS LATENCY: 0 cycles
cpu0_L1I AVERAGE dtMISS LATENCY: 0 cycles
cpu0_L1I PAGE CROSSINGS (TLB HIT):         0 
cpu0_L1I PAGE CROSSINGS (TLB MISS):         0 
cpu0_L1I AVERAGE MISS LATENCY: 21.117 cycles
cpu0_ITLB TOTAL       ACCESS:   33023612  HIT:   30830869  MISS:    2192743  iACCESS:   33023612  iHIT:   30830869  iMISS:    2192743  dACCESS:          0  dHIT:          0  dMISS:          0  itACCESS:          0  itHIT:          0  itMISS:          0  dtACCESS:          0  dtHIT:          0  dtMISS:          0
cpu0_ITLB LOAD         ACCESS:   33023612  HIT:   30830869  MISS:    2192743  iACCESS:   33023612  iHIT:   30830869  iMISS:    2192743  dACCESS:          0  dHIT:          0  dMISS:          0  itACCESS:          0  itHIT:          0  itMISS:          0  dtACCESS:          0  dtHIT:          0  dtMISS:          0
cpu0_ITLB RFO          ACCESS:          0  HIT:          0  MISS:          0  iACCESS:          0  iHIT:          0  iMISS:          0  dACCESS:          0  dHIT:          0  dMISS:          0  itACCESS:          0  itHIT:          0  itMISS:          0  dtACCESS:          0  dtHIT:          0  dtMISS:          0
cpu0_ITLB PREFETCH     ACCESS:          0  HIT:          0  MISS:          0  iACCESS:          0  iHIT:          0  iMISS:          0  dACCESS:          0  dHIT:          0  dMISS:          0  itACCESS:          0  itHIT:          0  itMISS:          0  dtACCESS:          0  dtHIT:          0  dtMISS:          0
cpu0_ITLB WRITE        ACCESS:          0  HIT:          0  MISS:          0  iACCESS:          0  iHIT:          0  iMISS:          0  dACCESS:          0  dHIT:          0  dMISS:          0  itACCESS:          0  itHIT:          0  itMISS:          0  dtACCESS:          0  dtHIT:          0  dtMISS:          0
cpu0_ITLB TRANSLATION  ACCESS:          0  HIT:          0  MISS:          0  iACCESS:          0  iHIT:          0  iMISS:          0  dACCESS:          0  dHIT:          0  dMISS:          0  itACCESS:          0  itHIT:          0  itMISS:          0  dtACCESS:          0  dtHIT:          0  dtMISS:          0
cpu0_ITLB PREFETCH  REQUESTED:          0  ISSUED:          0  CROSSED:          0  USEFUL:     384548  USELESS:      77028
cpu0_ITLB AVERAGE iMISS LATENCY: 5.20507 cycles
cpu0_ITLB AVERAGE dMISS LATENCY: 0 cycles
cpu0_ITLB AVERAGE itMISS LATENCY: 0 cycles
cpu0_ITLB AVERAGE dtMISS LATENCY: 0 cycles
cpu0_ITLB PAGE CROSSINGS (TLB HIT):         0 
cpu0_ITLB PAGE CROSSINGS (TLB MISS):         0 
cpu0_ITLB AVERAGE MISS LATENCY: 5.20507 cycles
cpu0_DTLB TOTAL       ACCESS:   28763013  HIT:   25349482  MISS:    3413531  iACCESS:          0  iHIT:          0  iMISS:          0  dACCESS:   28763013  dHIT:   25349482  dMISS:    3413531  itACCESS:          0  itHIT:          0  itMISS:          0  dtACCESS:          0  dtHIT:          0  dtMISS:          0
cpu0_DTLB LOAD         ACCESS:   28763013  HIT:   25349482  MISS:    3413531  iACCESS:          0  iHIT:          0  iMISS:          0  dACCESS:   28763013  dHIT:   25349482  dMISS:    3413531  itACCESS:          0  itHIT:          0  itMISS:          0  dtACCESS:          0  dtHIT:          0  dtMISS:          0
cpu0_DTLB RFO          ACCESS:          0  HIT:          0  MISS:          0  iACCESS:          0  iHIT:          0  iMISS:          0  dACCESS:          0  dHIT:          0  dMISS:          0  itACCESS:          0  itHIT:          0  itMISS:          0  dtACCESS:          0  dtHIT:          0  dtMISS:          0
cpu0_DTLB PREFETCH     ACCESS:          0  HIT:          0  MISS:          0  iACCESS:          0  iHIT:          0  iMISS:          0  dACCESS:          0  dHIT:          0  dMISS:          0  itACCESS:          0  itHIT:          0  itMISS:          0  dtACCESS:          0  dtHIT:          0  dtMISS:          0
cpu0_DTLB WRITE        ACCESS:          0  HIT:          0  MISS:          0  iACCESS:          0  iHIT:          0  iMISS:          0  dACCESS:          0  dHIT:          0  dMISS:          0  itACCESS:          0  itHIT:          0  itMISS:          0  dtACCESS:          0  dtHIT:          0  dtMISS:          0
cpu0_DTLB TRANSLATION  ACCESS:          0  HIT:          0  MISS:          0  iACCESS:          0  iHIT:          0  iMISS:          0  dACCESS:          0  dHIT:          0  dMISS:          0  itACCESS:          0  itHIT:          0  itMISS:          0  dtACCESS:          0  dtHIT:          0  dtMISS:          0
cpu0_DTLB PREFETCH  REQUESTED:          0  ISSUED:          0  CROSSED:          0  USEFUL:          0  USELESS:          0
cpu0_DTLB AVERAGE iMISS LATENCY: 0 cycles
cpu0_DTLB AVERAGE dMISS LATENCY: 18.5439 cycles
cpu0_DTLB AVERAGE itMISS LATENCY: 0 cycles
cpu0_DTLB AVERAGE dtMISS LATENCY: 0 cycles
cpu0_DTLB PAGE CROSSINGS (TLB HIT):         0 
cpu0_DTLB PAGE CROSSINGS (TLB MISS):         0 
cpu0_DTLB AVERAGE MISS LATENCY: 18.5439 cycles
cpu0_STLB TOTAL       ACCESS:    2413917  HIT:    2068976  MISS:     344941  iACCESS:     461586  iHIT:     412109  iMISS:      49477  dACCESS:    1952331  dHIT:    1656867  dMISS:     295464  itACCESS:          0  itHIT:          0  itMISS:          0  dtACCESS:          0  dtHIT:          0  dtMISS:          0
cpu0_STLB LOAD         ACCESS:    2413917  HIT:    2068976  MISS:     344941  iACCESS:     461586  iHIT:     412109  iMISS:      49477  dACCESS:    1952331  dHIT:    1656867  dMISS:     295464  itACCESS:          0  itHIT:          0  itMISS:          0  dtACCESS:          0  dtHIT:          0  dtMISS:          0
cpu0_STLB RFO          ACCESS:          0  HIT:          0  MISS:          0  iACCESS:          0  iHIT:          0  iMISS:          0  dACCESS:          0  dHIT:          0  dMISS:          0  itACCESS:          0  itHIT:          0  itMISS:          0  dtACCESS:          0  dtHIT:          0  dtMISS:          0
cpu0_STLB PREFETCH     ACCESS:          0  HIT:          0  MISS:          0  iACCESS:          0  iHIT:          0  iMISS:          0  dACCESS:          0  dHIT:          0  dMISS:          0  itACCESS:          0  itHIT:          0  itMISS:          0  dtACCESS:          0  dtHIT:          0  dtMISS:          0
cpu0_STLB WRITE        ACCESS:          0  HIT:          0  MISS:          0  iACCESS:          0  iHIT:          0  iMISS:          0  dACCESS:          0  dHIT:          0  dMISS:          0  itACCESS:          0  itHIT:          0  itMISS:          0  dtACCESS:          0  dtHIT:          0  dtMISS:          0
cpu0_STLB TRANSLATION  ACCESS:          0  HIT:          0  MISS:          0  iACCESS:          0  iHIT:          0  iMISS:          0  dACCESS:          0  dHIT:          0  dMISS:          0  itACCESS:          0  itHIT:          0  itMISS:          0  dtACCESS:          0  dtHIT:          0  dtMISS:          0
cpu0_STLB PREFETCH  REQUESTED:          0  ISSUED:          0  CROSSED:          0  USEFUL:          0  USELESS:          0
cpu0_STLB AVERAGE iMISS LATENCY: 22.5973 cycles
cpu0_STLB AVERAGE dMISS LATENCY: 137.927 cycles
cpu0_STLB AVERAGE itMISS LATENCY: 0 cycles
cpu0_STLB AVERAGE dtMISS LATENCY: 0 cycles
cpu0_STLB PAGE CROSSINGS (TLB HIT):         0 
cpu0_STLB PAGE CROSSINGS (TLB MISS):         0 
cpu0_STLB AVERAGE MISS LATENCY: 160.524 cycles
cpu0_L1D TOTAL       ACCESS:   44357177  HIT:   39080103  MISS:    5277074  iACCESS:          0  iHIT:          0  iMISS:          0  dACCESS:   43819252  dHIT:   39052286  dMISS:    4766966  itACCESS:      59072  itHIT:       5002  itMISS:      54070  dtACCESS:     478853  dtHIT:      22815  dtMISS:     456038
cpu0_L1D LOAD         ACCESS:   19986764  HIT:   17858974  MISS:    2127790  iACCESS:          0  iHIT:          0  iMISS:          0  dACCESS:   19986764  dHIT:   17858974  dMISS:    2127790  itACCESS:          0  itHIT:          0  itMISS:          0  dtACCESS:          0  dtHIT:          0  dtMISS:          0
cpu0_L1D RFO          ACCESS:          0  HIT:          0  MISS:          0  iACCESS:          0  iHIT:          0  iMISS:          0  dACCESS:          0  dHIT:          0  dMISS:          0  itACCESS:          0  itHIT:          0  itMISS:          0  dtACCESS:          0  dtHIT:          0  dtMISS:          0
cpu0_L1D PREFETCH     ACCESS:   13667443  HIT:   11575031  MISS:    2092412  iACCESS:          0  iHIT:          0  iMISS:          0  dACCESS:   13667443  dHIT:   11575031  dMISS:    2092412  itACCESS:          0  itHIT:          0  itMISS:          0  dtACCESS:          0  dtHIT:          0  dtMISS:          0
cpu0_L1D WRITE        ACCESS:   10165045  HIT:    9618281  MISS:     546764  iACCESS:          0  iHIT:          0  iMISS:          0  dACCESS:   10165045  dHIT:    9618281  dMISS:     546764  itACCESS:          0  itHIT:          0  itMISS:          0  dtACCESS:          0  dtHIT:          0  dtMISS:          0
cpu0_L1D TRANSLATION  ACCESS:     537925  HIT:      27817  MISS:     510108  iACCESS:          0  iHIT:          0  iMISS:          0  dACCESS:          0  dHIT:          0  dMISS:          0  itACCESS:      59072  itHIT:       5002  itMISS:      54070  dtACCESS:     478853  dtHIT:      22815  dtMISS:     456038
cpu0_L1D PREFETCH  REQUESTED:   19986764  ISSUED:   18256488  CROSSED:          0  USEFUL:     370623  USELESS:     907914
cpu0_L1D AVERAGE iMISS LATENCY: 0 cycles
cpu0_L1D AVERAGE dMISS LATENCY: 48.3879 cycles
cpu0_L1D AVERAGE itMISS LATENCY: 1.3759 cycles
cpu0_L1D AVERAGE dtMISS LATENCY: 7.95678 cycles
cpu0_L1D PAGE CROSSINGS (TLB HIT):         0 
cpu0_L1D PAGE CROSSINGS (TLB MISS):         0 
cpu0_L1D AVERAGE MISS LATENCY: 57.7206 cycles
cpu0_L2C TOTAL       ACCESS:    8542638  HIT:    2570554  MISS:    5972084  iACCESS:    3768559  iHIT:    1468317  iMISS:    2300242  dACCESS:    4292493  dHIT:     875114  dMISS:    3417379  itACCESS:      53875  itHIT:      14240  itMISS:      39635  dtACCESS:     427711  dtHIT:     212883  dtMISS:     214828
cpu0_L2C LOAD         ACCESS:    2033994  HIT:     507216  MISS:    1526778  iACCESS:     840961  iHIT:     301092  iMISS:     539869  dACCESS:    1193033  dHIT:     206124  dMISS:     986909  itACCESS:          0  itHIT:          0  itMISS:          0  dtACCESS:          0  dtHIT:          0  dtMISS:          0
cpu0_L2C RFO          ACCESS:     209016  HIT:      30375  MISS:     178641  iACCESS:          0  iHIT:          0  iMISS:          0  dACCESS:     209016  dHIT:      30375  dMISS:     178641  itACCESS:          0  itHIT:          0  itMISS:          0  dtACCESS:          0  dtHIT:          0  dtMISS:          0
cpu0_L2C PREFETCH     ACCESS:    5472267  HIT:    1679253  MISS:    3793014  iACCESS:    2927598  iHIT:    1167225  iMISS:    1760373  dACCESS:    2544669  dHIT:     512028  dMISS:    2032641  itACCESS:          0  itHIT:          0  itMISS:          0  dtACCESS:          0  dtHIT:          0  dtMISS:          0
cpu0_L2C WRITE        ACCESS:     345775  HIT:     126587  MISS:     219188  iACCESS:          0  iHIT:          0  iMISS:          0  dACCESS:     345775  dHIT:     126587  dMISS:     219188  itACCESS:          0  itHIT:          0  itMISS:          0  dtACCESS:          0  dtHIT:          0  dtMISS:          0
cpu0_L2C TRANSLATION  ACCESS:     481586  HIT:     227123  MISS:     254463  iACCESS:          0  iHIT:          0  iMISS:          0  dACCESS:          0  dHIT:          0  dMISS:          0  itACCESS:      53875  itHIT:      14240  itMISS:      39635  dtACCESS:     427711  dtHIT:     212883  dtMISS:     214828
cpu0_L2C PREFETCH  REQUESTED:    1513002  ISSUED:    1513001  CROSSED:          0  USEFUL:     388273  USELESS:     429074
cpu0_L2C AVERAGE iMISS LATENCY: 26.1134 cycles
cpu0_L2C AVERAGE dMISS LATENCY: 52.327 cycles
cpu0_L2C AVERAGE itMISS LATENCY: 1.12771 cycles
cpu0_L2C AVERAGE dtMISS LATENCY: 6.34703 cycles
cpu0_L2C PAGE CROSSINGS (TLB HIT):         0 
cpu0_L2C PAGE CROSSINGS (TLB MISS):         0 
cpu0_L2C AVERAGE MISS LATENCY: 85.9151 cycles
LLC TOTAL       ACCESS:    5826364  HIT:    3443267  MISS:    2383097  iACCESS:    2212296  iHIT:    1490979  iMISS:     721317  dACCESS:    3359605  dHIT:    1909981  dMISS:    1449624  itACCESS:      39635  itHIT:       6177  itMISS:      33458  dtACCESS:     214828  dtHIT:      36130  dtMISS:     178698
LLC LOAD         ACCESS:    1521548  HIT:     954838  MISS:     566710  iACCESS:     538640  iHIT:     389601  iMISS:     149039  dACCESS:     982908  dHIT:     565237  dMISS:     417671  itACCESS:          0  itHIT:          0  itMISS:          0  dtACCESS:          0  dtHIT:          0  dtMISS:          0
LLC RFO          ACCESS:     178632  HIT:      93023  MISS:      85609  iACCESS:          0  iHIT:          0  iMISS:          0  dACCESS:     178632  dHIT:      93023  dMISS:      85609  itACCESS:          0  itHIT:          0  itMISS:          0  dtACCESS:          0  dtHIT:          0  dtMISS:          0
LLC PREFETCH     ACCESS:    3594012  HIT:    2079897  MISS:    1514115  iACCESS:    1673656  iHIT:    1101378  iMISS:     572278  dACCESS:    1920356  dHIT:     978519  dMISS:     941837  itACCESS:          0  itHIT:          0  itMISS:          0  dtACCESS:          0  dtHIT:          0  dtMISS:          0
LLC WRITE        ACCESS:     277709  HIT:     273202  MISS:       4507  iACCESS:          0  iHIT:          0  iMISS:          0  dACCESS:     277709  dHIT:     273202  dMISS:       4507  itACCESS:          0  itHIT:          0  itMISS:          0  dtACCESS:          0  dtHIT:          0  dtMISS:          0
LLC TRANSLATION  ACCESS:     254463  HIT:      42307  MISS:     212156  iACCESS:          0  iHIT:          0  iMISS:          0  dACCESS:          0  dHIT:          0  dMISS:          0  itACCESS:      39635  itHIT:       6177  itMISS:      33458  dtACCESS:     214828  dtHIT:      36130  dtMISS:     178698
LLC PREFETCH  REQUESTED:          0  ISSUED:          0  CROSSED:          0  USEFUL:          0  USELESS:          0
LLC AVERAGE iMISS LATENCY: 47.4044 cycles
LLC AVERAGE dMISS LATENCY: 106.55 cycles
LLC AVERAGE itMISS LATENCY: 2.49736 cycles
LLC AVERAGE dtMISS LATENCY: 14.1247 cycles
LLC PAGE CROSSINGS (TLB HIT):         0 
LLC PAGE CROSSINGS (TLB MISS):         0 
LLC AVERAGE MISS LATENCY: 170.577 cycles

PageTableWalker TOTAL       ACCESS:     165971  
PageTableWalker AVERAGE LATENCY: 5.98483 cycles
PageTableWalker TOTAL LATENCY: 993308 cycles

DRAM Statistics
Channel 0
 RQ ROW_BUFFER_HIT:     535562
  ROW_BUFFER_MISS:    1833722
 AVG DBUS CONGESTED CYCLE:    3.65153
 WQ ROW_BUFFER_HIT:      61998
  ROW_BUFFER_MISS:      63826  FULL:          0

