last_page:0x200000000000000
VMEM_RES_CAP:0x100000
PAGE_SIZE:4096
LOG2_PAGE_SIZE:12
LOG2_PAGE_TABLE_SIZE:9
page_table_levels:5
WARNING: physical memory size is smaller than virtual memory size
FDiP enabled with aggresivity 16

*** ChampSim Multicore Out-of-Order Simulator ***

Warmup Instructions: 50000000
Simulation Instructions: 100000000
Number of CPUs: 1
Small page size: 4096
Large page size: 2097152

CPU 0 Bimodal branch predictor
Basic BTB sets: 1024 ways: 8 indirect buffer size: 4096 RAS size: 64
Instruction page size distrubution: 0
Loading instruction page size distribution from /home/bsc/bsc018186/scratch/itp_asplos25_AE/dump/smt_srv207_ap_srv298_ap_1024i.pdst
Data page size distrubution: 0
Loading data page size distribution from /home/bsc/bsc018186/scratch/itp_asplos25_AE/dump/smt_srv207_ap_srv298_ap_1024i.pdst
cpu0_L2C IP-based stride prefetcher
cpu0_L2C is using PTP replacement policy:
	TLB_STRESS_THRESHOLD:0
	PTE_EVICTION_RATIO:0
cpu0_L1D next line prefetcher
cpu0_STLB using iTP with max lru@8
cpu0_STLB using iTP with instr@0 and data@2
Init sat counter with 3 bits (max:50).
cpu0_L1I next line prefetcher
Off-chip DRAM Size: 4 GiB Channels: 1 Width: 64-bit Data Rate: 3200 MT/s
Heartbeat CPU 0 instructions: 10000001 cycles: 2500360 heartbeat IPC: 3.99943 cumulative IPC: 3.99943 (Simulation time: 0 hr 0 min 37 sec) 
Heartbeat CPU 0 instructions: 20000001 cycles: 5000501 heartbeat IPC: 3.99978 cumulative IPC: 3.9996 (Simulation time: 0 hr 1 min 15 sec) 
Heartbeat CPU 0 instructions: 30000001 cycles: 7500573 heartbeat IPC: 3.99989 cumulative IPC: 3.9997 (Simulation time: 0 hr 1 min 53 sec) 
Heartbeat CPU 0 instructions: 40000002 cycles: 10000881 heartbeat IPC: 3.99951 cumulative IPC: 3.99965 (Simulation time: 0 hr 2 min 32 sec) 
Heartbeat CPU 0 instructions: 50000001 cycles: 12501183 heartbeat IPC: 3.99952 cumulative IPC: 3.99963 (Simulation time: 0 hr 3 min 12 sec) 
Warmup finished CPU 0 instructions: 50000001 cycles: 12501184 cumulative IPC: 3.99963 (Simulation time: 0 hr 3 min 12 sec) 

Warmup complete CPU 0 instructions: 50000001 cycles: 12501184 (Simulation time: 0 hr 3 min 12 sec) 

Heartbeat CPU 0 instructions: 60000003 cycles: 41273447 heartbeat IPC: 0.347558 cumulative IPC: 0.347558 (Simulation time: 0 hr 4 min 31 sec) 
Heartbeat CPU 0 instructions: 70000001 cycles: 69757795 heartbeat IPC: 0.35107 cumulative IPC: 0.349305 (Simulation time: 0 hr 5 min 50 sec) 
Heartbeat CPU 0 instructions: 80000000 cycles: 98653563 heartbeat IPC: 0.346072 cumulative IPC: 0.348221 (Simulation time: 0 hr 7 min 11 sec) 
Heartbeat CPU 0 instructions: 90000000 cycles: 128556326 heartbeat IPC: 0.334418 cumulative IPC: 0.344664 (Simulation time: 0 hr 8 min 33 sec) 
Heartbeat CPU 0 instructions: 100000003 cycles: 157335142 heartbeat IPC: 0.347478 cumulative IPC: 0.345223 (Simulation time: 0 hr 9 min 53 sec) 
Heartbeat CPU 0 instructions: 110000001 cycles: 186636697 heartbeat IPC: 0.341279 cumulative IPC: 0.34456 (Simulation time: 0 hr 11 min 14 sec) 
Heartbeat CPU 0 instructions: 120000000 cycles: 215313324 heartbeat IPC: 0.348717 cumulative IPC: 0.345147 (Simulation time: 0 hr 12 min 34 sec) 
Heartbeat CPU 0 instructions: 130000003 cycles: 244713889 heartbeat IPC: 0.34013 cumulative IPC: 0.344512 (Simulation time: 0 hr 13 min 54 sec) 
Heartbeat CPU 0 instructions: 140000002 cycles: 275375050 heartbeat IPC: 0.326146 cumulative IPC: 0.34237 (Simulation time: 0 hr 15 min 17 sec) 
Heartbeat CPU 0 instructions: 150000002 cycles: 305040218 heartbeat IPC: 0.337096 cumulative IPC: 0.341835 (Simulation time: 0 hr 16 min 39 sec) 
Simulation finished CPU 0 instructions: 100000001 cycles: 292539035 cumulative IPC: 0.341835 (Simulation time: 0 hr 16 min 39 sec) 

Simulation complete CPU 0 instructions: 100000001 cycles: 292539035 (Simulation time: 0 hr 16 min 39 sec) 


ChampSim completed all CPUs

Saving instructions large page distribution to /home/bsc/bsc018186/scratch/itp_asplos25_AE/dump/smt_srv207_ap_srv298_ap_1024i.pdst...
Saving data large page distribution to /home/bsc/bsc018186/scratch/itp_asplos25_AE/dump/smt_srv207_ap_srv298_ap_1024i.pdst...
=== Simulation ===
CPU 0 runs /gpfs/projects/bsc18/MN4/bsc18/romol/ChampSim/traces/qualcomm_srv/smt_srv207_ap_srv298_ap_1024i.champsimtrace.xz

Region of Interest Statistics

CPU 0 cumulative IPC: 0.341835 instructions: 100000001 cycles: 292539035
CPU 0 Branch Prediction Accuracy: 75.5505% MPKI: 43.9639 Average ROB Occupancy at Mispredict: 11.5898
Branch type MPKI
BRANCH_DIRECT_JUMP: 1.32809
BRANCH_INDIRECT: 23.3394
BRANCH_CONDITIONAL: 12.3548
BRANCH_DIRECT_CALL: 2.50711
BRANCH_INDIRECT_CALL: 0.94832
BRANCH_RETURN: 3.48621

Instructions large pages: 0
Instructions small pages: 15016
Large page distribution for instructions: 0%

Data large pages: 0
Data small pages: 13640
Large page distribution for data: 0%

cpu0_L1I TOTAL       ACCESS:   38857903  HIT:   30131163  MISS:    8726740  iACCESS:   38857903  iHIT:   30131163  iMISS:    8726740  dACCESS:          0  dHIT:          0  dMISS:          0  itACCESS:          0  itHIT:          0  itMISS:          0  dtACCESS:          0  dtHIT:          0  dtMISS:          0
cpu0_L1I LOAD         ACCESS:   11545773  HIT:    9153251  MISS:    2392522  iACCESS:   11545773  iHIT:    9153251  iMISS:    2392522  dACCESS:          0  dHIT:          0  dMISS:          0  itACCESS:          0  itHIT:          0  itMISS:          0  dtACCESS:          0  dtHIT:          0  dtMISS:          0
cpu0_L1I RFO          ACCESS:          0  HIT:          0  MISS:          0  iACCESS:          0  iHIT:          0  iMISS:          0  dACCESS:          0  dHIT:          0  dMISS:          0  itACCESS:          0  itHIT:          0  itMISS:          0  dtACCESS:          0  dtHIT:          0  dtMISS:          0
cpu0_L1I PREFETCH     ACCESS:   27312130  HIT:   20977912  MISS:    6334218  iACCESS:   27312130  iHIT:   20977912  iMISS:    6334218  dACCESS:          0  dHIT:          0  dMISS:          0  itACCESS:          0  itHIT:          0  itMISS:          0  dtACCESS:          0  dtHIT:          0  dtMISS:          0
cpu0_L1I WRITE        ACCESS:          0  HIT:          0  MISS:          0  iACCESS:          0  iHIT:          0  iMISS:          0  dACCESS:          0  dHIT:          0  dMISS:          0  itACCESS:          0  itHIT:          0  itMISS:          0  dtACCESS:          0  dtHIT:          0  dtMISS:          0
cpu0_L1I TRANSLATION  ACCESS:          0  HIT:          0  MISS:          0  iACCESS:          0  iHIT:          0  iMISS:          0  dACCESS:          0  dHIT:          0  dMISS:          0  itACCESS:          0  itHIT:          0  itMISS:          0  dtACCESS:          0  dtHIT:          0  dtMISS:          0
cpu0_L1I PREFETCH  REQUESTED:   30059727  ISSUED:   30059665  CROSSED:          0  USEFUL:    2181461  USELESS:     778377
cpu0_L1I AVERAGE iMISS LATENCY: 23.771 cycles
cpu0_L1I AVERAGE dMISS LATENCY: 0 cycles
cpu0_L1I AVERAGE itMISS LATENCY: 0 cycles
cpu0_L1I AVERAGE dtMISS LATENCY: 0 cycles
cpu0_L1I PAGE CROSSINGS (TLB HIT):         0 
cpu0_L1I PAGE CROSSINGS (TLB MISS):         0 
cpu0_L1I AVERAGE MISS LATENCY: 23.771 cycles
cpu0_ITLB TOTAL       ACCESS:   32890289  HIT:   30654526  MISS:    2235763  iACCESS:   32890289  iHIT:   30654526  iMISS:    2235763  dACCESS:          0  dHIT:          0  dMISS:          0  itACCESS:          0  itHIT:          0  itMISS:          0  dtACCESS:          0  dtHIT:          0  dtMISS:          0
cpu0_ITLB LOAD         ACCESS:   32890289  HIT:   30654526  MISS:    2235763  iACCESS:   32890289  iHIT:   30654526  iMISS:    2235763  dACCESS:          0  dHIT:          0  dMISS:          0  itACCESS:          0  itHIT:          0  itMISS:          0  dtACCESS:          0  dtHIT:          0  dtMISS:          0
cpu0_ITLB RFO          ACCESS:          0  HIT:          0  MISS:          0  iACCESS:          0  iHIT:          0  iMISS:          0  dACCESS:          0  dHIT:          0  dMISS:          0  itACCESS:          0  itHIT:          0  itMISS:          0  dtACCESS:          0  dtHIT:          0  dtMISS:          0
cpu0_ITLB PREFETCH     ACCESS:          0  HIT:          0  MISS:          0  iACCESS:          0  iHIT:          0  iMISS:          0  dACCESS:          0  dHIT:          0  dMISS:          0  itACCESS:          0  itHIT:          0  itMISS:          0  dtACCESS:          0  dtHIT:          0  dtMISS:          0
cpu0_ITLB WRITE        ACCESS:          0  HIT:          0  MISS:          0  iACCESS:          0  iHIT:          0  iMISS:          0  dACCESS:          0  dHIT:          0  dMISS:          0  itACCESS:          0  itHIT:          0  itMISS:          0  dtACCESS:          0  dtHIT:          0  dtMISS:          0
cpu0_ITLB TRANSLATION  ACCESS:          0  HIT:          0  MISS:          0  iACCESS:          0  iHIT:          0  iMISS:          0  dACCESS:          0  dHIT:          0  dMISS:          0  itACCESS:          0  itHIT:          0  itMISS:          0  dtACCESS:          0  dtHIT:          0  dtMISS:          0
cpu0_ITLB PREFETCH  REQUESTED:          0  ISSUED:          0  CROSSED:          0  USEFUL:     391928  USELESS:      80209
cpu0_ITLB AVERAGE iMISS LATENCY: 6.15206 cycles
cpu0_ITLB AVERAGE dMISS LATENCY: 0 cycles
cpu0_ITLB AVERAGE itMISS LATENCY: 0 cycles
cpu0_ITLB AVERAGE dtMISS LATENCY: 0 cycles
cpu0_ITLB PAGE CROSSINGS (TLB HIT):         0 
cpu0_ITLB PAGE CROSSINGS (TLB MISS):         0 
cpu0_ITLB AVERAGE MISS LATENCY: 6.15206 cycles
cpu0_DTLB TOTAL       ACCESS:   29123298  HIT:   25475054  MISS:    3648244  iACCESS:          0  iHIT:          0  iMISS:          0  dACCESS:   29123298  dHIT:   25475054  dMISS:    3648244  itACCESS:          0  itHIT:          0  itMISS:          0  dtACCESS:          0  dtHIT:          0  dtMISS:          0
cpu0_DTLB LOAD         ACCESS:   29123298  HIT:   25475054  MISS:    3648244  iACCESS:          0  iHIT:          0  iMISS:          0  dACCESS:   29123298  dHIT:   25475054  dMISS:    3648244  itACCESS:          0  itHIT:          0  itMISS:          0  dtACCESS:          0  dtHIT:          0  dtMISS:          0
cpu0_DTLB RFO          ACCESS:          0  HIT:          0  MISS:          0  iACCESS:          0  iHIT:          0  iMISS:          0  dACCESS:          0  dHIT:          0  dMISS:          0  itACCESS:          0  itHIT:          0  itMISS:          0  dtACCESS:          0  dtHIT:          0  dtMISS:          0
cpu0_DTLB PREFETCH     ACCESS:          0  HIT:          0  MISS:          0  iACCESS:          0  iHIT:          0  iMISS:          0  dACCESS:          0  dHIT:          0  dMISS:          0  itACCESS:          0  itHIT:          0  itMISS:          0  dtACCESS:          0  dtHIT:          0  dtMISS:          0
cpu0_DTLB WRITE        ACCESS:          0  HIT:          0  MISS:          0  iACCESS:          0  iHIT:          0  iMISS:          0  dACCESS:          0  dHIT:          0  dMISS:          0  itACCESS:          0  itHIT:          0  itMISS:          0  dtACCESS:          0  dtHIT:          0  dtMISS:          0
cpu0_DTLB TRANSLATION  ACCESS:          0  HIT:          0  MISS:          0  iACCESS:          0  iHIT:          0  iMISS:          0  dACCESS:          0  dHIT:          0  dMISS:          0  itACCESS:          0  itHIT:          0  itMISS:          0  dtACCESS:          0  dtHIT:          0  dtMISS:          0
cpu0_DTLB PREFETCH  REQUESTED:          0  ISSUED:          0  CROSSED:          0  USEFUL:          0  USELESS:          0
cpu0_DTLB AVERAGE iMISS LATENCY: 0 cycles
cpu0_DTLB AVERAGE dMISS LATENCY: 26.5832 cycles
cpu0_DTLB AVERAGE itMISS LATENCY: 0 cycles
cpu0_DTLB AVERAGE dtMISS LATENCY: 0 cycles
cpu0_DTLB PAGE CROSSINGS (TLB HIT):         0 
cpu0_DTLB PAGE CROSSINGS (TLB MISS):         0 
cpu0_DTLB AVERAGE MISS LATENCY: 26.5832 cycles
cpu0_STLB TOTAL       ACCESS:    2581512  HIT:    2215069  MISS:     366443  iACCESS:     472136  iHIT:     419034  iMISS:      53102  dACCESS:    2109376  dHIT:    1796035  dMISS:     313341  itACCESS:          0  itHIT:          0  itMISS:          0  dtACCESS:          0  dtHIT:          0  dtMISS:          0
cpu0_STLB LOAD         ACCESS:    2581512  HIT:    2215069  MISS:     366443  iACCESS:     472136  iHIT:     419034  iMISS:      53102  dACCESS:    2109376  dHIT:    1796035  dMISS:     313341  itACCESS:          0  itHIT:          0  itMISS:          0  dtACCESS:          0  dtHIT:          0  dtMISS:          0
cpu0_STLB RFO          ACCESS:          0  HIT:          0  MISS:          0  iACCESS:          0  iHIT:          0  iMISS:          0  dACCESS:          0  dHIT:          0  dMISS:          0  itACCESS:          0  itHIT:          0  itMISS:          0  dtACCESS:          0  dtHIT:          0  dtMISS:          0
cpu0_STLB PREFETCH     ACCESS:          0  HIT:          0  MISS:          0  iACCESS:          0  iHIT:          0  iMISS:          0  dACCESS:          0  dHIT:          0  dMISS:          0  itACCESS:          0  itHIT:          0  itMISS:          0  dtACCESS:          0  dtHIT:          0  dtMISS:          0
cpu0_STLB WRITE        ACCESS:          0  HIT:          0  MISS:          0  iACCESS:          0  iHIT:          0  iMISS:          0  dACCESS:          0  dHIT:          0  dMISS:          0  itACCESS:          0  itHIT:          0  itMISS:          0  dtACCESS:          0  dtHIT:          0  dtMISS:          0
cpu0_STLB TRANSLATION  ACCESS:          0  HIT:          0  MISS:          0  iACCESS:          0  iHIT:          0  iMISS:          0  dACCESS:          0  dHIT:          0  dMISS:          0  itACCESS:          0  itHIT:          0  itMISS:          0  dtACCESS:          0  dtHIT:          0  dtMISS:          0
cpu0_STLB PREFETCH  REQUESTED:          0  ISSUED:          0  CROSSED:          0  USEFUL:          0  USELESS:          0
cpu0_STLB AVERAGE iMISS LATENCY: 27.4215 cycles
cpu0_STLB AVERAGE dMISS LATENCY: 218.192 cycles
cpu0_STLB AVERAGE itMISS LATENCY: 0 cycles
cpu0_STLB AVERAGE dtMISS LATENCY: 0 cycles
cpu0_STLB PAGE CROSSINGS (TLB HIT):         0 
cpu0_STLB PAGE CROSSINGS (TLB MISS):         0 
cpu0_STLB AVERAGE MISS LATENCY: 245.613 cycles
cpu0_L1D TOTAL       ACCESS:   45025225  HIT:   39480465  MISS:    5544760  iACCESS:          0  iHIT:          0  iMISS:          0  dACCESS:   44464229  dHIT:   39450387  dMISS:    5013842  itACCESS:      64025  itHIT:       5535  itMISS:      58490  dtACCESS:     496971  dtHIT:      24543  dtMISS:     472428
cpu0_L1D LOAD         ACCESS:   20360931  HIT:   18094598  MISS:    2266333  iACCESS:          0  iHIT:          0  iMISS:          0  dACCESS:   20360931  dHIT:   18094598  dMISS:    2266333  itACCESS:          0  itHIT:          0  itMISS:          0  dtACCESS:          0  dtHIT:          0  dtMISS:          0
cpu0_L1D RFO          ACCESS:          0  HIT:          0  MISS:          0  iACCESS:          0  iHIT:          0  iMISS:          0  dACCESS:          0  dHIT:          0  dMISS:          0  itACCESS:          0  itHIT:          0  itMISS:          0  dtACCESS:          0  dtHIT:          0  dtMISS:          0
cpu0_L1D PREFETCH     ACCESS:   13969650  HIT:   11801834  MISS:    2167816  iACCESS:          0  iHIT:          0  iMISS:          0  dACCESS:   13969650  dHIT:   11801834  dMISS:    2167816  itACCESS:          0  itHIT:          0  itMISS:          0  dtACCESS:          0  dtHIT:          0  dtMISS:          0
cpu0_L1D WRITE        ACCESS:   10133648  HIT:    9553955  MISS:     579693  iACCESS:          0  iHIT:          0  iMISS:          0  dACCESS:   10133648  dHIT:    9553955  dMISS:     579693  itACCESS:          0  itHIT:          0  itMISS:          0  dtACCESS:          0  dtHIT:          0  dtMISS:          0
cpu0_L1D TRANSLATION  ACCESS:     560996  HIT:      30078  MISS:     530918  iACCESS:          0  iHIT:          0  iMISS:          0  dACCESS:          0  dHIT:          0  dMISS:          0  itACCESS:      64025  itHIT:       5535  itMISS:      58490  dtACCESS:     496971  dtHIT:      24543  dtMISS:     472428
cpu0_L1D PREFETCH  REQUESTED:   20360931  ISSUED:   18685547  CROSSED:          0  USEFUL:     377105  USELESS:     956303
cpu0_L1D AVERAGE iMISS LATENCY: 0 cycles
cpu0_L1D AVERAGE dMISS LATENCY: 50.6099 cycles
cpu0_L1D AVERAGE itMISS LATENCY: 1.7118 cycles
cpu0_L1D AVERAGE dtMISS LATENCY: 13.3529 cycles
cpu0_L1D PAGE CROSSINGS (TLB HIT):         0 
cpu0_L1D PAGE CROSSINGS (TLB MISS):         0 
cpu0_L1D AVERAGE MISS LATENCY: 65.6745 cycles
cpu0_L2C TOTAL       ACCESS:    8679746  HIT:    3958209  MISS:    4721537  iACCESS:    3775077  iHIT:    2133398  iMISS:    1641679  dACCESS:    4399075  dHIT:    1745661  dMISS:    2653414  itACCESS:      57848  itHIT:       8649  itMISS:      49199  dtACCESS:     447746  dtHIT:      70501  dtMISS:     377245
cpu0_L2C LOAD         ACCESS:    2102423  HIT:     940191  MISS:    1162232  iACCESS:     851132  iHIT:     494542  iMISS:     356590  dACCESS:    1251291  dHIT:     445649  dMISS:     805642  itACCESS:          0  itHIT:          0  itMISS:          0  dtACCESS:          0  dtHIT:          0  dtMISS:          0
cpu0_L2C RFO          ACCESS:     220663  HIT:      85779  MISS:     134884  iACCESS:          0  iHIT:          0  iMISS:          0  dACCESS:     220663  dHIT:      85779  dMISS:     134884  itACCESS:          0  itHIT:          0  itMISS:          0  dtACCESS:          0  dtHIT:          0  dtMISS:          0
cpu0_L2C PREFETCH     ACCESS:    5495895  HIT:    2528572  MISS:    2967323  iACCESS:    2923945  iHIT:    1638856  iMISS:    1285089  dACCESS:    2571950  dHIT:     889716  dMISS:    1682234  itACCESS:          0  itHIT:          0  itMISS:          0  dtACCESS:          0  dtHIT:          0  dtMISS:          0
cpu0_L2C WRITE        ACCESS:     355171  HIT:     324517  MISS:      30654  iACCESS:          0  iHIT:          0  iMISS:          0  dACCESS:     355171  dHIT:     324517  dMISS:      30654  itACCESS:          0  itHIT:          0  itMISS:          0  dtACCESS:          0  dtHIT:          0  dtMISS:          0
cpu0_L2C TRANSLATION  ACCESS:     505594  HIT:      79150  MISS:     426444  iACCESS:          0  iHIT:          0  iMISS:          0  dACCESS:          0  dHIT:          0  dMISS:          0  itACCESS:      57848  itHIT:       8649  itMISS:      49199  dtACCESS:     447746  dtHIT:      70501  dtMISS:     377245
cpu0_L2C PREFETCH  REQUESTED:    1477065  ISSUED:    1477064  CROSSED:          0  USEFUL:     346126  USELESS:     336081
cpu0_L2C AVERAGE iMISS LATENCY: 37.2261 cycles
cpu0_L2C AVERAGE dMISS LATENCY: 72.9217 cycles
cpu0_L2C AVERAGE itMISS LATENCY: 1.88922 cycles
cpu0_L2C AVERAGE dtMISS LATENCY: 14.7419 cycles
cpu0_L2C PAGE CROSSINGS (TLB HIT):         0 
cpu0_L2C PAGE CROSSINGS (TLB MISS):         0 
cpu0_L2C AVERAGE MISS LATENCY: 126.779 cycles
LLC TOTAL       ACCESS:    4713344  HIT:    1756329  MISS:    2957015  iACCESS:    1557041  iHIT:     650894  iMISS:     906147  dACCESS:    2729859  dHIT:    1047630  dMISS:    1682229  itACCESS:      49199  itHIT:       4839  itMISS:      44360  dtACCESS:     377245  dtHIT:      52966  dtMISS:     324279
LLC LOAD         ACCESS:    1155907  HIT:     466520  MISS:     689387  iACCESS:     355371  iHIT:     163056  iMISS:     192315  dACCESS:     800536  dHIT:     303464  dMISS:     497072  itACCESS:          0  itHIT:          0  itMISS:          0  dtACCESS:          0  dtHIT:          0  dtMISS:          0
LLC RFO          ACCESS:     134881  HIT:      46272  MISS:      88609  iACCESS:          0  iHIT:          0  iMISS:          0  dACCESS:     134881  dHIT:      46272  dMISS:      88609  itACCESS:          0  itHIT:          0  itMISS:          0  dtACCESS:          0  dtHIT:          0  dtMISS:          0
LLC PREFETCH     ACCESS:    2775252  HIT:     975294  MISS:    1799958  iACCESS:    1201670  iHIT:     487838  iMISS:     713832  dACCESS:    1573582  dHIT:     487456  dMISS:    1086126  itACCESS:          0  itHIT:          0  itMISS:          0  dtACCESS:          0  dtHIT:          0  dtMISS:          0
LLC WRITE        ACCESS:     220860  HIT:     210438  MISS:      10422  iACCESS:          0  iHIT:          0  iMISS:          0  dACCESS:     220860  dHIT:     210438  dMISS:      10422  itACCESS:          0  itHIT:          0  itMISS:          0  dtACCESS:          0  dtHIT:          0  dtMISS:          0
LLC TRANSLATION  ACCESS:     426444  HIT:      57805  MISS:     368639  iACCESS:          0  iHIT:          0  iMISS:          0  dACCESS:          0  dHIT:          0  dMISS:          0  itACCESS:      49199  itHIT:       4839  itMISS:      44360  dtACCESS:     377245  dtHIT:      52966  dtMISS:     324279
LLC PREFETCH  REQUESTED:          0  ISSUED:          0  CROSSED:          0  USEFUL:          0  USELESS:          0
LLC AVERAGE iMISS LATENCY: 49.1111 cycles
LLC AVERAGE dMISS LATENCY: 100.373 cycles
LLC AVERAGE itMISS LATENCY: 2.687 cycles
LLC AVERAGE dtMISS LATENCY: 21.0187 cycles
LLC PAGE CROSSINGS (TLB HIT):         0 
LLC PAGE CROSSINGS (TLB MISS):         0 
LLC AVERAGE MISS LATENCY: 173.19 cycles

PageTableWalker TOTAL       ACCESS:     178937  
PageTableWalker AVERAGE LATENCY: 6.63522 cycles
PageTableWalker TOTAL LATENCY: 1187285 cycles

DRAM Statistics
Channel 0
 RQ ROW_BUFFER_HIT:     617821
  ROW_BUFFER_MISS:    2318433
 AVG DBUS CONGESTED CYCLE:    3.64808
 WQ ROW_BUFFER_HIT:      65342
  ROW_BUFFER_MISS:      55054  FULL:          0

