last_page:0x200000000000000
VMEM_RES_CAP:0x100000
PAGE_SIZE:4096
LOG2_PAGE_SIZE:12
LOG2_PAGE_TABLE_SIZE:9
page_table_levels:5
WARNING: physical memory size is smaller than virtual memory size
FDiP enabled with aggresivity 16

*** ChampSim Multicore Out-of-Order Simulator ***

Warmup Instructions: 50000000
Simulation Instructions: 100000000
Number of CPUs: 1
Small page size: 4096
Large page size: 2097152

CPU 0 Bimodal branch predictor
Basic BTB sets: 1024 ways: 8 indirect buffer size: 4096 RAS size: 64
Instruction page size distrubution: 0
Loading instruction page size distribution from /home/bsc/bsc018186/scratch/itp_asplos25_AE/dump/smt_srv537_ap_srv442_ap_1024i.pdst
Data page size distrubution: 0
Loading data page size distribution from /home/bsc/bsc018186/scratch/itp_asplos25_AE/dump/smt_srv537_ap_srv442_ap_1024i.pdst
cpu0_L2C IP-based stride prefetcher
cpu0_L1D next line prefetcher
CHiRPing...
cpu0_L1I next line prefetcher
Off-chip DRAM Size: 4 GiB Channels: 1 Width: 64-bit Data Rate: 3200 MT/s
Heartbeat CPU 0 instructions: 10000003 cycles: 2500746 heartbeat IPC: 3.99881 cumulative IPC: 3.99881 (Simulation time: 0 hr 0 min 40 sec) 
Heartbeat CPU 0 instructions: 20000002 cycles: 5001036 heartbeat IPC: 3.99954 cumulative IPC: 3.99918 (Simulation time: 0 hr 1 min 21 sec) 
Heartbeat CPU 0 instructions: 30000000 cycles: 7501404 heartbeat IPC: 3.99942 cumulative IPC: 3.99926 (Simulation time: 0 hr 2 min 4 sec) 
Heartbeat CPU 0 instructions: 40000001 cycles: 10001618 heartbeat IPC: 3.99966 cumulative IPC: 3.99936 (Simulation time: 0 hr 2 min 46 sec) 
Heartbeat CPU 0 instructions: 50000002 cycles: 12501878 heartbeat IPC: 3.99959 cumulative IPC: 3.9994 (Simulation time: 0 hr 3 min 29 sec) 
Warmup finished CPU 0 instructions: 50000002 cycles: 12501879 cumulative IPC: 3.9994 (Simulation time: 0 hr 3 min 29 sec) 

Warmup complete CPU 0 instructions: 50000002 cycles: 12501879 (Simulation time: 0 hr 3 min 29 sec) 

Heartbeat CPU 0 instructions: 60000000 cycles: 39057811 heartbeat IPC: 0.376564 cumulative IPC: 0.376564 (Simulation time: 0 hr 4 min 52 sec) 
Heartbeat CPU 0 instructions: 70000004 cycles: 65451896 heartbeat IPC: 0.378873 cumulative IPC: 0.377715 (Simulation time: 0 hr 6 min 15 sec) 
Heartbeat CPU 0 instructions: 80000003 cycles: 90936591 heartbeat IPC: 0.392393 cumulative IPC: 0.382484 (Simulation time: 0 hr 7 min 36 sec) 
Heartbeat CPU 0 instructions: 90000000 cycles: 116978973 heartbeat IPC: 0.38399 cumulative IPC: 0.38286 (Simulation time: 0 hr 8 min 58 sec) 
Heartbeat CPU 0 instructions: 100000003 cycles: 143506442 heartbeat IPC: 0.376968 cumulative IPC: 0.381667 (Simulation time: 0 hr 10 min 21 sec) 
Heartbeat CPU 0 instructions: 110000003 cycles: 170443257 heartbeat IPC: 0.37124 cumulative IPC: 0.379888 (Simulation time: 0 hr 11 min 45 sec) 
Heartbeat CPU 0 instructions: 120000002 cycles: 197278258 heartbeat IPC: 0.372648 cumulative IPC: 0.378837 (Simulation time: 0 hr 13 min 9 sec) 
Heartbeat CPU 0 instructions: 130000001 cycles: 223379559 heartbeat IPC: 0.383123 cumulative IPC: 0.379367 (Simulation time: 0 hr 14 min 31 sec) 
Heartbeat CPU 0 instructions: 140000002 cycles: 249204489 heartbeat IPC: 0.387223 cumulative IPC: 0.380224 (Simulation time: 0 hr 15 min 54 sec) 
Heartbeat CPU 0 instructions: 150000002 cycles: 275756342 heartbeat IPC: 0.376622 cumulative IPC: 0.379861 (Simulation time: 0 hr 17 min 17 sec) 
Simulation finished CPU 0 instructions: 100000000 cycles: 263254464 cumulative IPC: 0.379861 (Simulation time: 0 hr 17 min 17 sec) 

Simulation complete CPU 0 instructions: 100000000 cycles: 263254464 (Simulation time: 0 hr 17 min 17 sec) 


ChampSim completed all CPUs

Saving instructions large page distribution to /home/bsc/bsc018186/scratch/itp_asplos25_AE/dump/smt_srv537_ap_srv442_ap_1024i.pdst...
Saving data large page distribution to /home/bsc/bsc018186/scratch/itp_asplos25_AE/dump/smt_srv537_ap_srv442_ap_1024i.pdst...
=== Simulation ===
CPU 0 runs /gpfs/projects/bsc18/MN4/bsc18/romol/ChampSim/traces/qualcomm_srv/smt_srv537_ap_srv442_ap_1024i.champsimtrace.xz

Region of Interest Statistics

CPU 0 cumulative IPC: 0.379861 instructions: 100000000 cycles: 263254464
CPU 0 Branch Prediction Accuracy: 76.4472% MPKI: 42.5537 Average ROB Occupancy at Mispredict: 10.9133
Branch type MPKI
BRANCH_DIRECT_JUMP: 1.30473
BRANCH_INDIRECT: 22.7349
BRANCH_CONDITIONAL: 11.6924
BRANCH_DIRECT_CALL: 2.42253
BRANCH_INDIRECT_CALL: 1.0061
BRANCH_RETURN: 3.39314

Instructions large pages: 0
Instructions small pages: 10371
Large page distribution for instructions: 0%

Data large pages: 0
Data small pages: 9181
Large page distribution for data: 0%

cpu0_L1I TOTAL       ACCESS:   39402846  HIT:   29985166  MISS:    9417680  iACCESS:   39402846  iHIT:   29985166  iMISS:    9417680  dACCESS:          0  dHIT:          0  dMISS:          0  itACCESS:          0  itHIT:          0  itMISS:          0  dtACCESS:          0  dtHIT:          0  dtMISS:          0
cpu0_L1I LOAD         ACCESS:   11812950  HIT:    9226733  MISS:    2586217  iACCESS:   11812950  iHIT:    9226733  iMISS:    2586217  dACCESS:          0  dHIT:          0  dMISS:          0  itACCESS:          0  itHIT:          0  itMISS:          0  dtACCESS:          0  dtHIT:          0  dtMISS:          0
cpu0_L1I RFO          ACCESS:          0  HIT:          0  MISS:          0  iACCESS:          0  iHIT:          0  iMISS:          0  dACCESS:          0  dHIT:          0  dMISS:          0  itACCESS:          0  itHIT:          0  itMISS:          0  dtACCESS:          0  dtHIT:          0  dtMISS:          0
cpu0_L1I PREFETCH     ACCESS:   27589896  HIT:   20758433  MISS:    6831463  iACCESS:   27589896  iHIT:   20758433  iMISS:    6831463  dACCESS:          0  dHIT:          0  dMISS:          0  itACCESS:          0  itHIT:          0  itMISS:          0  dtACCESS:          0  dtHIT:          0  dtMISS:          0
cpu0_L1I WRITE        ACCESS:          0  HIT:          0  MISS:          0  iACCESS:          0  iHIT:          0  iMISS:          0  dACCESS:          0  dHIT:          0  dMISS:          0  itACCESS:          0  itHIT:          0  itMISS:          0  dtACCESS:          0  dtHIT:          0  dtMISS:          0
cpu0_L1I TRANSLATION  ACCESS:          0  HIT:          0  MISS:          0  iACCESS:          0  iHIT:          0  iMISS:          0  dACCESS:          0  dHIT:          0  dMISS:          0  itACCESS:          0  itHIT:          0  itMISS:          0  dtACCESS:          0  dtHIT:          0  dtMISS:          0
cpu0_L1I PREFETCH  REQUESTED:   30249201  ISSUED:   30247727  CROSSED:          0  USEFUL:    2234672  USELESS:     777483
cpu0_L1I AVERAGE iMISS LATENCY: 21.2278 cycles
cpu0_L1I AVERAGE dMISS LATENCY: 0 cycles
cpu0_L1I AVERAGE itMISS LATENCY: 0 cycles
cpu0_L1I AVERAGE dtMISS LATENCY: 0 cycles
cpu0_L1I PAGE CROSSINGS (TLB HIT):         0 
cpu0_L1I PAGE CROSSINGS (TLB MISS):         0 
cpu0_L1I AVERAGE MISS LATENCY: 21.2278 cycles
cpu0_ITLB TOTAL       ACCESS:   33045351  HIT:   30739188  MISS:    2306163  iACCESS:   33045351  iHIT:   30739188  iMISS:    2306163  dACCESS:          0  dHIT:          0  dMISS:          0  itACCESS:          0  itHIT:          0  itMISS:          0  dtACCESS:          0  dtHIT:          0  dtMISS:          0
cpu0_ITLB LOAD         ACCESS:   33045351  HIT:   30739188  MISS:    2306163  iACCESS:   33045351  iHIT:   30739188  iMISS:    2306163  dACCESS:          0  dHIT:          0  dMISS:          0  itACCESS:          0  itHIT:          0  itMISS:          0  dtACCESS:          0  dtHIT:          0  dtMISS:          0
cpu0_ITLB RFO          ACCESS:          0  HIT:          0  MISS:          0  iACCESS:          0  iHIT:          0  iMISS:          0  dACCESS:          0  dHIT:          0  dMISS:          0  itACCESS:          0  itHIT:          0  itMISS:          0  dtACCESS:          0  dtHIT:          0  dtMISS:          0
cpu0_ITLB PREFETCH     ACCESS:          0  HIT:          0  MISS:          0  iACCESS:          0  iHIT:          0  iMISS:          0  dACCESS:          0  dHIT:          0  dMISS:          0  itACCESS:          0  itHIT:          0  itMISS:          0  dtACCESS:          0  dtHIT:          0  dtMISS:          0
cpu0_ITLB WRITE        ACCESS:          0  HIT:          0  MISS:          0  iACCESS:          0  iHIT:          0  iMISS:          0  dACCESS:          0  dHIT:          0  dMISS:          0  itACCESS:          0  itHIT:          0  itMISS:          0  dtACCESS:          0  dtHIT:          0  dtMISS:          0
cpu0_ITLB TRANSLATION  ACCESS:          0  HIT:          0  MISS:          0  iACCESS:          0  iHIT:          0  iMISS:          0  dACCESS:          0  dHIT:          0  dMISS:          0  itACCESS:          0  itHIT:          0  itMISS:          0  dtACCESS:          0  dtHIT:          0  dtMISS:          0
cpu0_ITLB PREFETCH  REQUESTED:          0  ISSUED:          0  CROSSED:          0  USEFUL:     392472  USELESS:      84042
cpu0_ITLB AVERAGE iMISS LATENCY: 6.95511 cycles
cpu0_ITLB AVERAGE dMISS LATENCY: 0 cycles
cpu0_ITLB AVERAGE itMISS LATENCY: 0 cycles
cpu0_ITLB AVERAGE dtMISS LATENCY: 0 cycles
cpu0_ITLB PAGE CROSSINGS (TLB HIT):         0 
cpu0_ITLB PAGE CROSSINGS (TLB MISS):         0 
cpu0_ITLB AVERAGE MISS LATENCY: 6.95511 cycles
cpu0_DTLB TOTAL       ACCESS:   28846783  HIT:   25433904  MISS:    3412879  iACCESS:          0  iHIT:          0  iMISS:          0  dACCESS:   28846783  dHIT:   25433904  dMISS:    3412879  itACCESS:          0  itHIT:          0  itMISS:          0  dtACCESS:          0  dtHIT:          0  dtMISS:          0
cpu0_DTLB LOAD         ACCESS:   28846783  HIT:   25433904  MISS:    3412879  iACCESS:          0  iHIT:          0  iMISS:          0  dACCESS:   28846783  dHIT:   25433904  dMISS:    3412879  itACCESS:          0  itHIT:          0  itMISS:          0  dtACCESS:          0  dtHIT:          0  dtMISS:          0
cpu0_DTLB RFO          ACCESS:          0  HIT:          0  MISS:          0  iACCESS:          0  iHIT:          0  iMISS:          0  dACCESS:          0  dHIT:          0  dMISS:          0  itACCESS:          0  itHIT:          0  itMISS:          0  dtACCESS:          0  dtHIT:          0  dtMISS:          0
cpu0_DTLB PREFETCH     ACCESS:          0  HIT:          0  MISS:          0  iACCESS:          0  iHIT:          0  iMISS:          0  dACCESS:          0  dHIT:          0  dMISS:          0  itACCESS:          0  itHIT:          0  itMISS:          0  dtACCESS:          0  dtHIT:          0  dtMISS:          0
cpu0_DTLB WRITE        ACCESS:          0  HIT:          0  MISS:          0  iACCESS:          0  iHIT:          0  iMISS:          0  dACCESS:          0  dHIT:          0  dMISS:          0  itACCESS:          0  itHIT:          0  itMISS:          0  dtACCESS:          0  dtHIT:          0  dtMISS:          0
cpu0_DTLB TRANSLATION  ACCESS:          0  HIT:          0  MISS:          0  iACCESS:          0  iHIT:          0  iMISS:          0  dACCESS:          0  dHIT:          0  dMISS:          0  itACCESS:          0  itHIT:          0  itMISS:          0  dtACCESS:          0  dtHIT:          0  dtMISS:          0
cpu0_DTLB PREFETCH  REQUESTED:          0  ISSUED:          0  CROSSED:          0  USEFUL:          0  USELESS:          0
cpu0_DTLB AVERAGE iMISS LATENCY: 0 cycles
cpu0_DTLB AVERAGE dMISS LATENCY: 17.6413 cycles
cpu0_DTLB AVERAGE itMISS LATENCY: 0 cycles
cpu0_DTLB AVERAGE dtMISS LATENCY: 0 cycles
cpu0_DTLB PAGE CROSSINGS (TLB HIT):         0 
cpu0_DTLB PAGE CROSSINGS (TLB MISS):         0 
cpu0_DTLB AVERAGE MISS LATENCY: 17.6413 cycles
cpu0_STLB TOTAL       ACCESS:    2428320  HIT:    2065453  MISS:     362867  iACCESS:     476514  iHIT:     369863  iMISS:     106651  dACCESS:    1951806  dHIT:    1695590  dMISS:     256216  itACCESS:          0  itHIT:          0  itMISS:          0  dtACCESS:          0  dtHIT:          0  dtMISS:          0
cpu0_STLB LOAD         ACCESS:    2428320  HIT:    2065453  MISS:     362867  iACCESS:     476514  iHIT:     369863  iMISS:     106651  dACCESS:    1951806  dHIT:    1695590  dMISS:     256216  itACCESS:          0  itHIT:          0  itMISS:          0  dtACCESS:          0  dtHIT:          0  dtMISS:          0
cpu0_STLB RFO          ACCESS:          0  HIT:          0  MISS:          0  iACCESS:          0  iHIT:          0  iMISS:          0  dACCESS:          0  dHIT:          0  dMISS:          0  itACCESS:          0  itHIT:          0  itMISS:          0  dtACCESS:          0  dtHIT:          0  dtMISS:          0
cpu0_STLB PREFETCH     ACCESS:          0  HIT:          0  MISS:          0  iACCESS:          0  iHIT:          0  iMISS:          0  dACCESS:          0  dHIT:          0  dMISS:          0  itACCESS:          0  itHIT:          0  itMISS:          0  dtACCESS:          0  dtHIT:          0  dtMISS:          0
cpu0_STLB WRITE        ACCESS:          0  HIT:          0  MISS:          0  iACCESS:          0  iHIT:          0  iMISS:          0  dACCESS:          0  dHIT:          0  dMISS:          0  itACCESS:          0  itHIT:          0  itMISS:          0  dtACCESS:          0  dtHIT:          0  dtMISS:          0
cpu0_STLB TRANSLATION  ACCESS:          0  HIT:          0  MISS:          0  iACCESS:          0  iHIT:          0  iMISS:          0  dACCESS:          0  dHIT:          0  dMISS:          0  itACCESS:          0  itHIT:          0  itMISS:          0  dtACCESS:          0  dtHIT:          0  dtMISS:          0
cpu0_STLB PREFETCH  REQUESTED:          0  ISSUED:          0  CROSSED:          0  USEFUL:          0  USELESS:          0
cpu0_STLB AVERAGE iMISS LATENCY: 33.7382 cycles
cpu0_STLB AVERAGE dMISS LATENCY: 122.737 cycles
cpu0_STLB AVERAGE itMISS LATENCY: 0 cycles
cpu0_STLB AVERAGE dtMISS LATENCY: 0 cycles
cpu0_STLB PAGE CROSSINGS (TLB HIT):         0 
cpu0_STLB PAGE CROSSINGS (TLB MISS):         0 
cpu0_STLB AVERAGE MISS LATENCY: 156.475 cycles
cpu0_L1D TOTAL       ACCESS:   45123288  HIT:   39144559  MISS:    5978729  iACCESS:          0  iHIT:          0  iMISS:          0  dACCESS:   44581977  dHIT:   39113774  dMISS:    5468203  itACCESS:     119358  itHIT:      13211  itMISS:     106147  dtACCESS:     421953  dtHIT:      17574  dtMISS:     404379
cpu0_L1D LOAD         ACCESS:   20342822  HIT:   17874184  MISS:    2468638  iACCESS:          0  iHIT:          0  iMISS:          0  dACCESS:   20342822  dHIT:   17874184  dMISS:    2468638  itACCESS:          0  itHIT:          0  itMISS:          0  dtACCESS:          0  dtHIT:          0  dtMISS:          0
cpu0_L1D RFO          ACCESS:          0  HIT:          0  MISS:          0  iACCESS:          0  iHIT:          0  iMISS:          0  dACCESS:          0  dHIT:          0  dMISS:          0  itACCESS:          0  itHIT:          0  itMISS:          0  dtACCESS:          0  dtHIT:          0  dtMISS:          0
cpu0_L1D PREFETCH     ACCESS:   14061094  HIT:   11637787  MISS:    2423307  iACCESS:          0  iHIT:          0  iMISS:          0  dACCESS:   14061094  dHIT:   11637787  dMISS:    2423307  itACCESS:          0  itHIT:          0  itMISS:          0  dtACCESS:          0  dtHIT:          0  dtMISS:          0
cpu0_L1D WRITE        ACCESS:   10178061  HIT:    9601803  MISS:     576258  iACCESS:          0  iHIT:          0  iMISS:          0  dACCESS:   10178061  dHIT:    9601803  dMISS:     576258  itACCESS:          0  itHIT:          0  itMISS:          0  dtACCESS:          0  dtHIT:          0  dtMISS:          0
cpu0_L1D TRANSLATION  ACCESS:     541311  HIT:      30785  MISS:     510526  iACCESS:          0  iHIT:          0  iMISS:          0  dACCESS:          0  dHIT:          0  dMISS:          0  itACCESS:     119358  itHIT:      13211  itMISS:     106147  dtACCESS:     421953  dtHIT:      17574  dtMISS:     404379
cpu0_L1D PREFETCH  REQUESTED:   20342822  ISSUED:   18434935  CROSSED:          0  USEFUL:     372747  USELESS:     919208
cpu0_L1D AVERAGE iMISS LATENCY: 0 cycles
cpu0_L1D AVERAGE dMISS LATENCY: 48.7644 cycles
cpu0_L1D AVERAGE itMISS LATENCY: 1.8769 cycles
cpu0_L1D AVERAGE dtMISS LATENCY: 6.67735 cycles
cpu0_L1D PAGE CROSSINGS (TLB HIT):         0 
cpu0_L1D PAGE CROSSINGS (TLB MISS):         0 
cpu0_L1D AVERAGE MISS LATENCY: 57.3186 cycles
cpu0_L2C TOTAL       ACCESS:    8663244  HIT:    1578799  MISS:    7084445  iACCESS:    3848229  iHIT:     851115  iMISS:    2997114  dACCESS:    4341767  dHIT:     536794  dMISS:    3804973  itACCESS:     105997  itHIT:      40780  itMISS:      65217  dtACCESS:     367251  dtHIT:     150110  dtMISS:     217141
cpu0_L2C LOAD         ACCESS:    2092321  HIT:     218145  MISS:    1874176  iACCESS:     873230  iHIT:     126667  iMISS:     746563  dACCESS:    1219091  dHIT:      91478  dMISS:    1127613  itACCESS:          0  itHIT:          0  itMISS:          0  dtACCESS:          0  dtHIT:          0  dtMISS:          0
cpu0_L2C RFO          ACCESS:     216302  HIT:      27019  MISS:     189283  iACCESS:          0  iHIT:          0  iMISS:          0  dACCESS:     216302  dHIT:      27019  dMISS:     189283  itACCESS:          0  itHIT:          0  itMISS:          0  dtACCESS:          0  dtHIT:          0  dtMISS:          0
cpu0_L2C PREFETCH     ACCESS:    5533349  HIT:    1043100  MISS:    4490249  iACCESS:    2974999  iHIT:     724448  iMISS:    2250551  dACCESS:    2558350  dHIT:     318652  dMISS:    2239698  itACCESS:          0  itHIT:          0  itMISS:          0  dtACCESS:          0  dtHIT:          0  dtMISS:          0
cpu0_L2C WRITE        ACCESS:     348024  HIT:      99645  MISS:     248379  iACCESS:          0  iHIT:          0  iMISS:          0  dACCESS:     348024  dHIT:      99645  dMISS:     248379  itACCESS:          0  itHIT:          0  itMISS:          0  dtACCESS:          0  dtHIT:          0  dtMISS:          0
cpu0_L2C TRANSLATION  ACCESS:     473248  HIT:     190890  MISS:     282358  iACCESS:          0  iHIT:          0  iMISS:          0  dACCESS:          0  dHIT:          0  dMISS:          0  itACCESS:     105997  itHIT:      40780  itMISS:      65217  dtACCESS:     367251  dtHIT:     150110  dtMISS:     217141
cpu0_L2C PREFETCH  REQUESTED:    1531241  ISSUED:    1531240  CROSSED:          0  USEFUL:     423323  USELESS:     465167
cpu0_L2C AVERAGE iMISS LATENCY: 23.3776 cycles
cpu0_L2C AVERAGE dMISS LATENCY: 48.7711 cycles
cpu0_L2C AVERAGE itMISS LATENCY: 1.4397 cycles
cpu0_L2C AVERAGE dtMISS LATENCY: 5.13555 cycles
cpu0_L2C PAGE CROSSINGS (TLB HIT):         0 
cpu0_L2C PAGE CROSSINGS (TLB MISS):         0 
cpu0_L2C AVERAGE MISS LATENCY: 78.7239 cycles
LLC TOTAL       ACCESS:    6922836  HIT:    4444916  MISS:    2477920  iACCESS:    2917921  iHIT:    2217706  iMISS:     700215  dACCESS:    3722557  dHIT:    2162362  dMISS:    1560195  itACCESS:      65217  itHIT:      15218  itMISS:      49999  dtACCESS:     217141  dtHIT:      49630  dtMISS:     167511
LLC LOAD         ACCESS:    1866139  HIT:    1241919  MISS:     624220  iACCESS:     745161  iHIT:     600637  iMISS:     144524  dACCESS:    1120978  dHIT:     641282  dMISS:     479696  itACCESS:          0  itHIT:          0  itMISS:          0  dtACCESS:          0  dtHIT:          0  dtMISS:          0
LLC RFO          ACCESS:     189239  HIT:      95808  MISS:      93431  iACCESS:          0  iHIT:          0  iMISS:          0  dACCESS:     189239  dHIT:      95808  dMISS:      93431  itACCESS:          0  itHIT:          0  itMISS:          0  dtACCESS:          0  dtHIT:          0  dtMISS:          0
LLC PREFETCH     ACCESS:    4307056  HIT:    2771391  MISS:    1535665  iACCESS:    2172760  iHIT:    1617069  iMISS:     555691  dACCESS:    2134296  dHIT:    1154322  dMISS:     979974  itACCESS:          0  itHIT:          0  itMISS:          0  dtACCESS:          0  dtHIT:          0  dtMISS:          0
LLC WRITE        ACCESS:     278044  HIT:     270950  MISS:       7094  iACCESS:          0  iHIT:          0  iMISS:          0  dACCESS:     278044  dHIT:     270950  dMISS:       7094  itACCESS:          0  itHIT:          0  itMISS:          0  dtACCESS:          0  dtHIT:          0  dtMISS:          0
LLC TRANSLATION  ACCESS:     282358  HIT:      64848  MISS:     217510  iACCESS:          0  iHIT:          0  iMISS:          0  dACCESS:          0  dHIT:          0  dMISS:          0  itACCESS:      65217  itHIT:      15218  itMISS:      49999  dtACCESS:     217141  dtHIT:      49630  dtMISS:     167511
LLC PREFETCH  REQUESTED:          0  ISSUED:          0  CROSSED:          0  USEFUL:          0  USELESS:          0
LLC AVERAGE iMISS LATENCY: 44.0124 cycles
LLC AVERAGE dMISS LATENCY: 113.442 cycles
LLC AVERAGE itMISS LATENCY: 3.59754 cycles
LLC AVERAGE dtMISS LATENCY: 12.9564 cycles
LLC PAGE CROSSINGS (TLB HIT):         0 
LLC PAGE CROSSINGS (TLB MISS):         0 
LLC AVERAGE MISS LATENCY: 174.008 cycles

PageTableWalker TOTAL       ACCESS:     174470  
PageTableWalker AVERAGE LATENCY: 5.87651 cycles
PageTableWalker TOTAL LATENCY: 1025273 cycles

DRAM Statistics
Channel 0
 RQ ROW_BUFFER_HIT:     531390
  ROW_BUFFER_MISS:    1919410
 AVG DBUS CONGESTED CYCLE:    3.64978
 WQ ROW_BUFFER_HIT:      66347
  ROW_BUFFER_MISS:      64629  FULL:          0

