last_page:0x200000000000000
VMEM_RES_CAP:0x100000
PAGE_SIZE:4096
LOG2_PAGE_SIZE:12
LOG2_PAGE_TABLE_SIZE:9
page_table_levels:5
WARNING: physical memory size is smaller than virtual memory size
FDiP enabled with aggresivity 16

*** ChampSim Multicore Out-of-Order Simulator ***

Warmup Instructions: 50000000
Simulation Instructions: 100000000
Number of CPUs: 1
Small page size: 4096
Large page size: 2097152

CPU 0 Bimodal branch predictor
Basic BTB sets: 1024 ways: 8 indirect buffer size: 4096 RAS size: 64
Instruction page size distrubution: 0
Loading instruction page size distribution from /home/bsc/bsc018186/scratch/itp_asplos25_AE/dump/smt_srv540_ap_srv224_ap_1024i.pdst
Data page size distrubution: 0
Loading data page size distribution from /home/bsc/bsc018186/scratch/itp_asplos25_AE/dump/smt_srv540_ap_srv224_ap_1024i.pdst
cpu0_L2C IP-based stride prefetcher
cpu0_L1D next line prefetcher
cpu0_STLB using iTP with max lru@8
cpu0_STLB using iTP with instr@0 and data@2
Init sat counter with 3 bits (max:50).
cpu0_L1I next line prefetcher
Off-chip DRAM Size: 4 GiB Channels: 1 Width: 64-bit Data Rate: 3200 MT/s
Heartbeat CPU 0 instructions: 10000002 cycles: 2500188 heartbeat IPC: 3.99971 cumulative IPC: 3.99971 (Simulation time: 0 hr 0 min 36 sec) 
Heartbeat CPU 0 instructions: 20000003 cycles: 5000331 heartbeat IPC: 3.99978 cumulative IPC: 3.99974 (Simulation time: 0 hr 1 min 13 sec) 
Heartbeat CPU 0 instructions: 30000003 cycles: 7500454 heartbeat IPC: 3.99981 cumulative IPC: 3.99976 (Simulation time: 0 hr 1 min 52 sec) 
Heartbeat CPU 0 instructions: 40000001 cycles: 10047148 heartbeat IPC: 3.92666 cumulative IPC: 3.98123 (Simulation time: 0 hr 2 min 30 sec) 
Heartbeat CPU 0 instructions: 50000000 cycles: 12604398 heartbeat IPC: 3.91046 cumulative IPC: 3.96687 (Simulation time: 0 hr 3 min 10 sec) 
Warmup finished CPU 0 instructions: 50000000 cycles: 12604399 cumulative IPC: 3.96687 (Simulation time: 0 hr 3 min 10 sec) 

Warmup complete CPU 0 instructions: 50000000 cycles: 12604399 (Simulation time: 0 hr 3 min 10 sec) 

Heartbeat CPU 0 instructions: 60000002 cycles: 28502222 heartbeat IPC: 0.629018 cumulative IPC: 0.629018 (Simulation time: 0 hr 4 min 15 sec) 
Heartbeat CPU 0 instructions: 70000003 cycles: 56866547 heartbeat IPC: 0.352556 cumulative IPC: 0.451854 (Simulation time: 0 hr 5 min 34 sec) 
Heartbeat CPU 0 instructions: 80000002 cycles: 85101645 heartbeat IPC: 0.35417 cumulative IPC: 0.413809 (Simulation time: 0 hr 6 min 53 sec) 
Heartbeat CPU 0 instructions: 90000000 cycles: 114815386 heartbeat IPC: 0.336545 cumulative IPC: 0.391348 (Simulation time: 0 hr 8 min 13 sec) 
Heartbeat CPU 0 instructions: 100000001 cycles: 144644401 heartbeat IPC: 0.335245 cumulative IPC: 0.378674 (Simulation time: 0 hr 9 min 35 sec) 
Heartbeat CPU 0 instructions: 110000001 cycles: 173039616 heartbeat IPC: 0.352173 cumulative IPC: 0.373983 (Simulation time: 0 hr 10 min 54 sec) 
Heartbeat CPU 0 instructions: 120000004 cycles: 201914604 heartbeat IPC: 0.346321 cumulative IPC: 0.369764 (Simulation time: 0 hr 12 min 14 sec) 
Heartbeat CPU 0 instructions: 130000003 cycles: 231419151 heartbeat IPC: 0.338931 cumulative IPC: 0.365607 (Simulation time: 0 hr 13 min 35 sec) 
Heartbeat CPU 0 instructions: 140000002 cycles: 260709506 heartbeat IPC: 0.34141 cumulative IPC: 0.36275 (Simulation time: 0 hr 14 min 56 sec) 
Heartbeat CPU 0 instructions: 150000001 cycles: 288950992 heartbeat IPC: 0.354089 cumulative IPC: 0.361865 (Simulation time: 0 hr 16 min 15 sec) 
Simulation finished CPU 0 instructions: 100000001 cycles: 276346594 cumulative IPC: 0.361865 (Simulation time: 0 hr 16 min 15 sec) 

Simulation complete CPU 0 instructions: 100000001 cycles: 276346594 (Simulation time: 0 hr 16 min 15 sec) 


ChampSim completed all CPUs

Saving instructions large page distribution to /home/bsc/bsc018186/scratch/itp_asplos25_AE/dump/smt_srv540_ap_srv224_ap_1024i.pdst...
Saving data large page distribution to /home/bsc/bsc018186/scratch/itp_asplos25_AE/dump/smt_srv540_ap_srv224_ap_1024i.pdst...
=== Simulation ===
CPU 0 runs /gpfs/projects/bsc18/MN4/bsc18/romol/ChampSim/traces/qualcomm_srv/smt_srv540_ap_srv224_ap_1024i.champsimtrace.xz

Region of Interest Statistics

CPU 0 cumulative IPC: 0.361865 instructions: 100000001 cycles: 276346594
CPU 0 Branch Prediction Accuracy: 76.9778% MPKI: 42.7248 Average ROB Occupancy at Mispredict: 11.5958
Branch type MPKI
BRANCH_DIRECT_JUMP: 1.25324
BRANCH_INDIRECT: 22.4673
BRANCH_CONDITIONAL: 12.3144
BRANCH_DIRECT_CALL: 2.36653
BRANCH_INDIRECT_CALL: 1.00633
BRANCH_RETURN: 3.31707

Instructions large pages: 0
Instructions small pages: 13228
Large page distribution for instructions: 0%

Data large pages: 0
Data small pages: 11873
Large page distribution for data: 0%

cpu0_L1I TOTAL       ACCESS:   39548214  HIT:   31486876  MISS:    8061338  iACCESS:   39548214  iHIT:   31486876  iMISS:    8061338  dACCESS:          0  dHIT:          0  dMISS:          0  itACCESS:          0  itHIT:          0  itMISS:          0  dtACCESS:          0  dtHIT:          0  dtMISS:          0
cpu0_L1I LOAD         ACCESS:   11671181  HIT:    9474587  MISS:    2196594  iACCESS:   11671181  iHIT:    9474587  iMISS:    2196594  dACCESS:          0  dHIT:          0  dMISS:          0  itACCESS:          0  itHIT:          0  itMISS:          0  dtACCESS:          0  dtHIT:          0  dtMISS:          0
cpu0_L1I RFO          ACCESS:          0  HIT:          0  MISS:          0  iACCESS:          0  iHIT:          0  iMISS:          0  dACCESS:          0  dHIT:          0  dMISS:          0  itACCESS:          0  itHIT:          0  itMISS:          0  dtACCESS:          0  dtHIT:          0  dtMISS:          0
cpu0_L1I PREFETCH     ACCESS:   27877033  HIT:   22012289  MISS:    5864744  iACCESS:   27877033  iHIT:   22012289  iMISS:    5864744  dACCESS:          0  dHIT:          0  dMISS:          0  itACCESS:          0  itHIT:          0  itMISS:          0  dtACCESS:          0  dtHIT:          0  dtMISS:          0
cpu0_L1I WRITE        ACCESS:          0  HIT:          0  MISS:          0  iACCESS:          0  iHIT:          0  iMISS:          0  dACCESS:          0  dHIT:          0  dMISS:          0  itACCESS:          0  itHIT:          0  itMISS:          0  dtACCESS:          0  dtHIT:          0  dtMISS:          0
cpu0_L1I TRANSLATION  ACCESS:          0  HIT:          0  MISS:          0  iACCESS:          0  iHIT:          0  iMISS:          0  dACCESS:          0  dHIT:          0  dMISS:          0  itACCESS:          0  itHIT:          0  itMISS:          0  dtACCESS:          0  dtHIT:          0  dtMISS:          0
cpu0_L1I PREFETCH  REQUESTED:   30718779  ISSUED:   30718742  CROSSED:          0  USEFUL:    2052546  USELESS:     699009
cpu0_L1I AVERAGE iMISS LATENCY: 23.572 cycles
cpu0_L1I AVERAGE dMISS LATENCY: 0 cycles
cpu0_L1I AVERAGE itMISS LATENCY: 0 cycles
cpu0_L1I AVERAGE dtMISS LATENCY: 0 cycles
cpu0_L1I PAGE CROSSINGS (TLB HIT):         0 
cpu0_L1I PAGE CROSSINGS (TLB MISS):         0 
cpu0_L1I AVERAGE MISS LATENCY: 23.572 cycles
cpu0_ITLB TOTAL       ACCESS:   33262048  HIT:   31210238  MISS:    2051810  iACCESS:   33262048  iHIT:   31210238  iMISS:    2051810  dACCESS:          0  dHIT:          0  dMISS:          0  itACCESS:          0  itHIT:          0  itMISS:          0  dtACCESS:          0  dtHIT:          0  dtMISS:          0
cpu0_ITLB LOAD         ACCESS:   33262048  HIT:   31210238  MISS:    2051810  iACCESS:   33262048  iHIT:   31210238  iMISS:    2051810  dACCESS:          0  dHIT:          0  dMISS:          0  itACCESS:          0  itHIT:          0  itMISS:          0  dtACCESS:          0  dtHIT:          0  dtMISS:          0
cpu0_ITLB RFO          ACCESS:          0  HIT:          0  MISS:          0  iACCESS:          0  iHIT:          0  iMISS:          0  dACCESS:          0  dHIT:          0  dMISS:          0  itACCESS:          0  itHIT:          0  itMISS:          0  dtACCESS:          0  dtHIT:          0  dtMISS:          0
cpu0_ITLB PREFETCH     ACCESS:          0  HIT:          0  MISS:          0  iACCESS:          0  iHIT:          0  iMISS:          0  dACCESS:          0  dHIT:          0  dMISS:          0  itACCESS:          0  itHIT:          0  itMISS:          0  dtACCESS:          0  dtHIT:          0  dtMISS:          0
cpu0_ITLB WRITE        ACCESS:          0  HIT:          0  MISS:          0  iACCESS:          0  iHIT:          0  iMISS:          0  dACCESS:          0  dHIT:          0  dMISS:          0  itACCESS:          0  itHIT:          0  itMISS:          0  dtACCESS:          0  dtHIT:          0  dtMISS:          0
cpu0_ITLB TRANSLATION  ACCESS:          0  HIT:          0  MISS:          0  iACCESS:          0  iHIT:          0  iMISS:          0  dACCESS:          0  dHIT:          0  dMISS:          0  itACCESS:          0  itHIT:          0  itMISS:          0  dtACCESS:          0  dtHIT:          0  dtMISS:          0
cpu0_ITLB PREFETCH  REQUESTED:          0  ISSUED:          0  CROSSED:          0  USEFUL:     356713  USELESS:      73994
cpu0_ITLB AVERAGE iMISS LATENCY: 6.34912 cycles
cpu0_ITLB AVERAGE dMISS LATENCY: 0 cycles
cpu0_ITLB AVERAGE itMISS LATENCY: 0 cycles
cpu0_ITLB AVERAGE dtMISS LATENCY: 0 cycles
cpu0_ITLB PAGE CROSSINGS (TLB HIT):         0 
cpu0_ITLB PAGE CROSSINGS (TLB MISS):         0 
cpu0_ITLB AVERAGE MISS LATENCY: 6.34912 cycles
cpu0_DTLB TOTAL       ACCESS:   29626214  HIT:   24858763  MISS:    4767451  iACCESS:          0  iHIT:          0  iMISS:          0  dACCESS:   29626214  dHIT:   24858763  dMISS:    4767451  itACCESS:          0  itHIT:          0  itMISS:          0  dtACCESS:          0  dtHIT:          0  dtMISS:          0
cpu0_DTLB LOAD         ACCESS:   29626214  HIT:   24858763  MISS:    4767451  iACCESS:          0  iHIT:          0  iMISS:          0  dACCESS:   29626214  dHIT:   24858763  dMISS:    4767451  itACCESS:          0  itHIT:          0  itMISS:          0  dtACCESS:          0  dtHIT:          0  dtMISS:          0
cpu0_DTLB RFO          ACCESS:          0  HIT:          0  MISS:          0  iACCESS:          0  iHIT:          0  iMISS:          0  dACCESS:          0  dHIT:          0  dMISS:          0  itACCESS:          0  itHIT:          0  itMISS:          0  dtACCESS:          0  dtHIT:          0  dtMISS:          0
cpu0_DTLB PREFETCH     ACCESS:          0  HIT:          0  MISS:          0  iACCESS:          0  iHIT:          0  iMISS:          0  dACCESS:          0  dHIT:          0  dMISS:          0  itACCESS:          0  itHIT:          0  itMISS:          0  dtACCESS:          0  dtHIT:          0  dtMISS:          0
cpu0_DTLB WRITE        ACCESS:          0  HIT:          0  MISS:          0  iACCESS:          0  iHIT:          0  iMISS:          0  dACCESS:          0  dHIT:          0  dMISS:          0  itACCESS:          0  itHIT:          0  itMISS:          0  dtACCESS:          0  dtHIT:          0  dtMISS:          0
cpu0_DTLB TRANSLATION  ACCESS:          0  HIT:          0  MISS:          0  iACCESS:          0  iHIT:          0  iMISS:          0  dACCESS:          0  dHIT:          0  dMISS:          0  itACCESS:          0  itHIT:          0  itMISS:          0  dtACCESS:          0  dtHIT:          0  dtMISS:          0
cpu0_DTLB PREFETCH  REQUESTED:          0  ISSUED:          0  CROSSED:          0  USEFUL:          0  USELESS:          0
cpu0_DTLB AVERAGE iMISS LATENCY: 0 cycles
cpu0_DTLB AVERAGE dMISS LATENCY: 20.2437 cycles
cpu0_DTLB AVERAGE itMISS LATENCY: 0 cycles
cpu0_DTLB AVERAGE dtMISS LATENCY: 0 cycles
cpu0_DTLB PAGE CROSSINGS (TLB HIT):         0 
cpu0_DTLB PAGE CROSSINGS (TLB MISS):         0 
cpu0_DTLB AVERAGE MISS LATENCY: 20.2437 cycles
cpu0_STLB TOTAL       ACCESS:    3032998  HIT:    2696060  MISS:     336938  iACCESS:     430717  iHIT:     379774  iMISS:      50943  dACCESS:    2602281  dHIT:    2316286  dMISS:     285995  itACCESS:          0  itHIT:          0  itMISS:          0  dtACCESS:          0  dtHIT:          0  dtMISS:          0
cpu0_STLB LOAD         ACCESS:    3032998  HIT:    2696060  MISS:     336938  iACCESS:     430717  iHIT:     379774  iMISS:      50943  dACCESS:    2602281  dHIT:    2316286  dMISS:     285995  itACCESS:          0  itHIT:          0  itMISS:          0  dtACCESS:          0  dtHIT:          0  dtMISS:          0
cpu0_STLB RFO          ACCESS:          0  HIT:          0  MISS:          0  iACCESS:          0  iHIT:          0  iMISS:          0  dACCESS:          0  dHIT:          0  dMISS:          0  itACCESS:          0  itHIT:          0  itMISS:          0  dtACCESS:          0  dtHIT:          0  dtMISS:          0
cpu0_STLB PREFETCH     ACCESS:          0  HIT:          0  MISS:          0  iACCESS:          0  iHIT:          0  iMISS:          0  dACCESS:          0  dHIT:          0  dMISS:          0  itACCESS:          0  itHIT:          0  itMISS:          0  dtACCESS:          0  dtHIT:          0  dtMISS:          0
cpu0_STLB WRITE        ACCESS:          0  HIT:          0  MISS:          0  iACCESS:          0  iHIT:          0  iMISS:          0  dACCESS:          0  dHIT:          0  dMISS:          0  itACCESS:          0  itHIT:          0  itMISS:          0  dtACCESS:          0  dtHIT:          0  dtMISS:          0
cpu0_STLB TRANSLATION  ACCESS:          0  HIT:          0  MISS:          0  iACCESS:          0  iHIT:          0  iMISS:          0  dACCESS:          0  dHIT:          0  dMISS:          0  itACCESS:          0  itHIT:          0  itMISS:          0  dtACCESS:          0  dtHIT:          0  dtMISS:          0
cpu0_STLB PREFETCH  REQUESTED:          0  ISSUED:          0  CROSSED:          0  USEFUL:          0  USELESS:          0
cpu0_STLB AVERAGE iMISS LATENCY: 28.6165 cycles
cpu0_STLB AVERAGE dMISS LATENCY: 223.972 cycles
cpu0_STLB AVERAGE itMISS LATENCY: 0 cycles
cpu0_STLB AVERAGE dtMISS LATENCY: 0 cycles
cpu0_STLB PAGE CROSSINGS (TLB HIT):         0 
cpu0_STLB PAGE CROSSINGS (TLB MISS):         0 
cpu0_STLB AVERAGE MISS LATENCY: 252.588 cycles
cpu0_L1D TOTAL       ACCESS:   45590751  HIT:   39260050  MISS:    6330701  iACCESS:          0  iHIT:          0  iMISS:          0  dACCESS:   45077638  dHIT:   39233193  dMISS:    5844445  itACCESS:      59954  itHIT:       4367  itMISS:      55587  dtACCESS:     453159  dtHIT:      22490  dtMISS:     430669
cpu0_L1D LOAD         ACCESS:   21085614  HIT:   18108145  MISS:    2977469  iACCESS:          0  iHIT:          0  iMISS:          0  dACCESS:   21085614  dHIT:   18108145  dMISS:    2977469  itACCESS:          0  itHIT:          0  itMISS:          0  dtACCESS:          0  dtHIT:          0  dtMISS:          0
cpu0_L1D RFO          ACCESS:          0  HIT:          0  MISS:          0  iACCESS:          0  iHIT:          0  iMISS:          0  dACCESS:          0  dHIT:          0  dMISS:          0  itACCESS:          0  itHIT:          0  itMISS:          0  dtACCESS:          0  dtHIT:          0  dtMISS:          0
cpu0_L1D PREFETCH     ACCESS:   13970623  HIT:   11647243  MISS:    2323380  iACCESS:          0  iHIT:          0  iMISS:          0  dACCESS:   13970623  dHIT:   11647243  dMISS:    2323380  itACCESS:          0  itHIT:          0  itMISS:          0  dtACCESS:          0  dtHIT:          0  dtMISS:          0
cpu0_L1D WRITE        ACCESS:   10021401  HIT:    9477805  MISS:     543596  iACCESS:          0  iHIT:          0  iMISS:          0  dACCESS:   10021401  dHIT:    9477805  dMISS:     543596  itACCESS:          0  itHIT:          0  itMISS:          0  dtACCESS:          0  dtHIT:          0  dtMISS:          0
cpu0_L1D TRANSLATION  ACCESS:     513113  HIT:      26857  MISS:     486256  iACCESS:          0  iHIT:          0  iMISS:          0  dACCESS:          0  dHIT:          0  dMISS:          0  itACCESS:      59954  itHIT:       4367  itMISS:      55587  dtACCESS:     453159  dtHIT:      22490  dtMISS:     430669
cpu0_L1D PREFETCH  REQUESTED:   21085614  ISSUED:   18555800  CROSSED:          0  USEFUL:     339699  USELESS:    1024661
cpu0_L1D AVERAGE iMISS LATENCY: 0 cycles
cpu0_L1D AVERAGE dMISS LATENCY: 41.6248 cycles
cpu0_L1D AVERAGE itMISS LATENCY: 1.43925 cycles
cpu0_L1D AVERAGE dtMISS LATENCY: 11.0414 cycles
cpu0_L1D PAGE CROSSINGS (TLB HIT):         0 
cpu0_L1D PAGE CROSSINGS (TLB MISS):         0 
cpu0_L1D AVERAGE MISS LATENCY: 54.1054 cycles
cpu0_L2C TOTAL       ACCESS:    8993313  HIT:    4931717  MISS:    4061596  iACCESS:    3494942  iHIT:    2144447  iMISS:    1350495  dACCESS:    5033524  dHIT:    2725537  dMISS:    2307987  itACCESS:      55472  itHIT:       8844  itMISS:      46628  dtACCESS:     409375  dtHIT:      52889  dtMISS:     356486
cpu0_L2C LOAD         ACCESS:    2677831  HIT:    1725651  MISS:     952180  iACCESS:     779815  iHIT:     501071  iMISS:     278744  dACCESS:    1898016  dHIT:    1224580  dMISS:     673436  itACCESS:          0  itHIT:          0  itMISS:          0  dtACCESS:          0  dtHIT:          0  dtMISS:          0
cpu0_L2C RFO          ACCESS:     217381  HIT:      96820  MISS:     120561  iACCESS:          0  iHIT:          0  iMISS:          0  dACCESS:     217381  dHIT:      96820  dMISS:     120561  itACCESS:          0  itHIT:          0  itMISS:          0  dtACCESS:          0  dtHIT:          0  dtMISS:          0
cpu0_L2C PREFETCH     ACCESS:    5298192  HIT:    2716161  MISS:    2582031  iACCESS:    2715127  iHIT:    1643376  iMISS:    1071751  dACCESS:    2583065  dHIT:    1072785  dMISS:    1510280  itACCESS:          0  itHIT:          0  itMISS:          0  dtACCESS:          0  dtHIT:          0  dtMISS:          0
cpu0_L2C WRITE        ACCESS:     335062  HIT:     331352  MISS:       3710  iACCESS:          0  iHIT:          0  iMISS:          0  dACCESS:     335062  dHIT:     331352  dMISS:       3710  itACCESS:          0  itHIT:          0  itMISS:          0  dtACCESS:          0  dtHIT:          0  dtMISS:          0
cpu0_L2C TRANSLATION  ACCESS:     464847  HIT:      61733  MISS:     403114  iACCESS:          0  iHIT:          0  iMISS:          0  dACCESS:          0  dHIT:          0  dMISS:          0  itACCESS:      55472  itHIT:       8844  itMISS:      46628  dtACCESS:     409375  dtHIT:      52889  dtMISS:     356486
cpu0_L2C PREFETCH  REQUESTED:    1440567  ISSUED:    1440528  CROSSED:          0  USEFUL:     338690  USELESS:     297314
cpu0_L2C AVERAGE iMISS LATENCY: 39.5543 cycles
cpu0_L2C AVERAGE dMISS LATENCY: 77.1258 cycles
cpu0_L2C AVERAGE itMISS LATENCY: 2.10855 cycles
cpu0_L2C AVERAGE dtMISS LATENCY: 16.2089 cycles
cpu0_L2C PAGE CROSSINGS (TLB HIT):         0 
cpu0_L2C PAGE CROSSINGS (TLB MISS):         0 
cpu0_L2C AVERAGE MISS LATENCY: 134.998 cycles
LLC TOTAL       ACCESS:    4055997  HIT:    1296235  MISS:    2759762  iACCESS:    1265577  iHIT:     410453  iMISS:     855124  dACCESS:    2387306  dHIT:     833102  dMISS:    1554204  itACCESS:      46628  itHIT:       3636  itMISS:      42992  dtACCESS:     356486  dtHIT:      49044  dtMISS:     307442
LLC LOAD         ACCESS:     947342  HIT:     319972  MISS:     627370  iACCESS:     277519  iHIT:      94814  iMISS:     182705  dACCESS:     669823  dHIT:     225158  dMISS:     444665  itACCESS:          0  itHIT:          0  itMISS:          0  dtACCESS:          0  dtHIT:          0  dtMISS:          0
LLC RFO          ACCESS:     120553  HIT:      39290  MISS:      81263  iACCESS:          0  iHIT:          0  iMISS:          0  dACCESS:     120553  dHIT:      39290  dMISS:      81263  itACCESS:          0  itHIT:          0  itMISS:          0  dtACCESS:          0  dtHIT:          0  dtMISS:          0
LLC PREFETCH     ACCESS:    2388620  HIT:     698518  MISS:    1690102  iACCESS:     988058  iHIT:     315639  iMISS:     672419  dACCESS:    1400562  dHIT:     382879  dMISS:    1017683  itACCESS:          0  itHIT:          0  itMISS:          0  dtACCESS:          0  dtHIT:          0  dtMISS:          0
LLC WRITE        ACCESS:     196368  HIT:     185775  MISS:      10593  iACCESS:          0  iHIT:          0  iMISS:          0  dACCESS:     196368  dHIT:     185775  dMISS:      10593  itACCESS:          0  itHIT:          0  itMISS:          0  dtACCESS:          0  dtHIT:          0  dtMISS:          0
LLC TRANSLATION  ACCESS:     403114  HIT:      52680  MISS:     350434  iACCESS:          0  iHIT:          0  iMISS:          0  dACCESS:          0  dHIT:          0  dMISS:          0  itACCESS:      46628  itHIT:       3636  itMISS:      42992  dtACCESS:     356486  dtHIT:      49044  dtMISS:     307442
LLC PREFETCH  REQUESTED:          0  ISSUED:          0  CROSSED:          0  USEFUL:          0  USELESS:          0
LLC AVERAGE iMISS LATENCY: 49.1819 cycles
LLC AVERAGE dMISS LATENCY: 98.6221 cycles
LLC AVERAGE itMISS LATENCY: 2.76814 cycles
LLC AVERAGE dtMISS LATENCY: 21.3038 cycles
LLC PAGE CROSSINGS (TLB HIT):         0 
LLC PAGE CROSSINGS (TLB MISS):         0 
LLC AVERAGE MISS LATENCY: 171.876 cycles

PageTableWalker TOTAL       ACCESS:     155965  
PageTableWalker AVERAGE LATENCY: 6.83192 cycles
PageTableWalker TOTAL LATENCY: 1065539 cycles

DRAM Statistics
Channel 0
 RQ ROW_BUFFER_HIT:     596322
  ROW_BUFFER_MISS:    2141984
 AVG DBUS CONGESTED CYCLE:    3.65013
 WQ ROW_BUFFER_HIT:      57883
  ROW_BUFFER_MISS:      47520  FULL:          0

