last_page:0x200000000000000
VMEM_RES_CAP:0x100000
PAGE_SIZE:4096
LOG2_PAGE_SIZE:12
LOG2_PAGE_TABLE_SIZE:9
page_table_levels:5
WARNING: physical memory size is smaller than virtual memory size
FDiP enabled with aggresivity 16

*** ChampSim Multicore Out-of-Order Simulator ***

Warmup Instructions: 50000000
Simulation Instructions: 100000000
Number of CPUs: 1
Small page size: 4096
Large page size: 2097152

CPU 0 Bimodal branch predictor
Basic BTB sets: 1024 ways: 8 indirect buffer size: 4096 RAS size: 64
Instruction page size distrubution: 0
Loading instruction page size distribution from /home/bsc/bsc018186/scratch/itp_asplos25_AE/dump/smt_srv12_ap_srv727_ap_1024i.pdst
Data page size distrubution: 0
Loading data page size distribution from /home/bsc/bsc018186/scratch/itp_asplos25_AE/dump/smt_srv12_ap_srv727_ap_1024i.pdst
cpu0_L2C IP-based stride prefetcher
cpu0_L1D next line prefetcher
cpu0_L1I next line prefetcher
Off-chip DRAM Size: 4 GiB Channels: 1 Width: 64-bit Data Rate: 3200 MT/s
Heartbeat CPU 0 instructions: 10000002 cycles: 2500620 heartbeat IPC: 3.99901 cumulative IPC: 3.99901 (Simulation time: 0 hr 0 min 43 sec) 
Heartbeat CPU 0 instructions: 20000003 cycles: 5000937 heartbeat IPC: 3.9995 cumulative IPC: 3.99926 (Simulation time: 0 hr 1 min 30 sec) 
Heartbeat CPU 0 instructions: 30000002 cycles: 7501626 heartbeat IPC: 3.9989 cumulative IPC: 3.99914 (Simulation time: 0 hr 2 min 18 sec) 
Heartbeat CPU 0 instructions: 40000000 cycles: 10001843 heartbeat IPC: 3.99966 cumulative IPC: 3.99927 (Simulation time: 0 hr 3 min 3 sec) 
Heartbeat CPU 0 instructions: 50000002 cycles: 12502087 heartbeat IPC: 3.99962 cumulative IPC: 3.99934 (Simulation time: 0 hr 3 min 49 sec) 
Warmup finished CPU 0 instructions: 50000002 cycles: 12502088 cumulative IPC: 3.99934 (Simulation time: 0 hr 3 min 49 sec) 

Warmup complete CPU 0 instructions: 50000002 cycles: 12502088 (Simulation time: 0 hr 3 min 49 sec) 

Heartbeat CPU 0 instructions: 60000004 cycles: 43165655 heartbeat IPC: 0.32612 cumulative IPC: 0.32612 (Simulation time: 0 hr 5 min 21 sec) 
Heartbeat CPU 0 instructions: 70000001 cycles: 74098859 heartbeat IPC: 0.323278 cumulative IPC: 0.324693 (Simulation time: 0 hr 6 min 58 sec) 
Heartbeat CPU 0 instructions: 80000001 cycles: 106028715 heartbeat IPC: 0.313187 cumulative IPC: 0.320765 (Simulation time: 0 hr 8 min 36 sec) 
Heartbeat CPU 0 instructions: 90000000 cycles: 133354187 heartbeat IPC: 0.365959 cumulative IPC: 0.330984 (Simulation time: 0 hr 10 min 3 sec) 
Heartbeat CPU 0 instructions: 100000000 cycles: 164521642 heartbeat IPC: 0.320848 cumulative IPC: 0.328906 (Simulation time: 0 hr 11 min 39 sec) 
Heartbeat CPU 0 instructions: 110000000 cycles: 196572359 heartbeat IPC: 0.312006 cumulative IPC: 0.325963 (Simulation time: 0 hr 13 min 14 sec) 
Heartbeat CPU 0 instructions: 120000002 cycles: 226739408 heartbeat IPC: 0.331488 cumulative IPC: 0.326741 (Simulation time: 0 hr 14 min 49 sec) 
Heartbeat CPU 0 instructions: 130000000 cycles: 257873034 heartbeat IPC: 0.321197 cumulative IPC: 0.326037 (Simulation time: 0 hr 16 min 26 sec) 
Heartbeat CPU 0 instructions: 140000000 cycles: 289760065 heartbeat IPC: 0.313608 cumulative IPC: 0.324608 (Simulation time: 0 hr 18 min 0 sec) 
Heartbeat CPU 0 instructions: 150000002 cycles: 320901452 heartbeat IPC: 0.321117 cumulative IPC: 0.324255 (Simulation time: 0 hr 19 min 37 sec) 
Simulation finished CPU 0 instructions: 100000000 cycles: 308399365 cumulative IPC: 0.324255 (Simulation time: 0 hr 19 min 37 sec) 

Simulation complete CPU 0 instructions: 100000000 cycles: 308399365 (Simulation time: 0 hr 19 min 37 sec) 


ChampSim completed all CPUs

Saving instructions large page distribution to /home/bsc/bsc018186/scratch/itp_asplos25_AE/dump/smt_srv12_ap_srv727_ap_1024i.pdst...
Saving data large page distribution to /home/bsc/bsc018186/scratch/itp_asplos25_AE/dump/smt_srv12_ap_srv727_ap_1024i.pdst...
=== Simulation ===
CPU 0 runs /gpfs/projects/bsc18/MN4/bsc18/romol/ChampSim/traces/qualcomm_srv/smt_srv12_ap_srv727_ap_1024i.champsimtrace.xz

Region of Interest Statistics

CPU 0 cumulative IPC: 0.324255 instructions: 100000000 cycles: 308399365
CPU 0 Branch Prediction Accuracy: 74.6726% MPKI: 45.8504 Average ROB Occupancy at Mispredict: 10.5864
Branch type MPKI
BRANCH_DIRECT_JUMP: 1.44037
BRANCH_INDIRECT: 23.3875
BRANCH_CONDITIONAL: 13.5392
BRANCH_DIRECT_CALL: 2.7971
BRANCH_INDIRECT_CALL: 1.12405
BRANCH_RETURN: 3.56237

Instructions large pages: 0
Instructions small pages: 11302
Large page distribution for instructions: 0%

Data large pages: 0
Data small pages: 9440
Large page distribution for data: 0%

cpu0_L1I TOTAL       ACCESS:   39115106  HIT:   30459427  MISS:    8655679  iACCESS:   39115106  iHIT:   30459427  iMISS:    8655679  dACCESS:          0  dHIT:          0  dMISS:          0  itACCESS:          0  itHIT:          0  itMISS:          0  dtACCESS:          0  dtHIT:          0  dtMISS:          0
cpu0_L1I LOAD         ACCESS:   11613041  HIT:    9266950  MISS:    2346091  iACCESS:   11613041  iHIT:    9266950  iMISS:    2346091  dACCESS:          0  dHIT:          0  dMISS:          0  itACCESS:          0  itHIT:          0  itMISS:          0  dtACCESS:          0  dtHIT:          0  dtMISS:          0
cpu0_L1I RFO          ACCESS:          0  HIT:          0  MISS:          0  iACCESS:          0  iHIT:          0  iMISS:          0  dACCESS:          0  dHIT:          0  dMISS:          0  itACCESS:          0  itHIT:          0  itMISS:          0  dtACCESS:          0  dtHIT:          0  dtMISS:          0
cpu0_L1I PREFETCH     ACCESS:   27502065  HIT:   21192477  MISS:    6309588  iACCESS:   27502065  iHIT:   21192477  iMISS:    6309588  dACCESS:          0  dHIT:          0  dMISS:          0  itACCESS:          0  itHIT:          0  itMISS:          0  dtACCESS:          0  dtHIT:          0  dtMISS:          0
cpu0_L1I WRITE        ACCESS:          0  HIT:          0  MISS:          0  iACCESS:          0  iHIT:          0  iMISS:          0  dACCESS:          0  dHIT:          0  dMISS:          0  itACCESS:          0  itHIT:          0  itMISS:          0  dtACCESS:          0  dtHIT:          0  dtMISS:          0
cpu0_L1I TRANSLATION  ACCESS:          0  HIT:          0  MISS:          0  iACCESS:          0  iHIT:          0  iMISS:          0  dACCESS:          0  dHIT:          0  dMISS:          0  itACCESS:          0  itHIT:          0  itMISS:          0  dtACCESS:          0  dtHIT:          0  dtMISS:          0
cpu0_L1I PREFETCH  REQUESTED:   30231094  ISSUED:   30231090  CROSSED:          0  USEFUL:    2208819  USELESS:     771480
cpu0_L1I AVERAGE iMISS LATENCY: 25.3973 cycles
cpu0_L1I AVERAGE dMISS LATENCY: 0 cycles
cpu0_L1I AVERAGE itMISS LATENCY: 0 cycles
cpu0_L1I AVERAGE dtMISS LATENCY: 0 cycles
cpu0_L1I PAGE CROSSINGS (TLB HIT):         0 
cpu0_L1I PAGE CROSSINGS (TLB MISS):         0 
cpu0_L1I AVERAGE MISS LATENCY: 25.3973 cycles
cpu0_ITLB TOTAL       ACCESS:   33218769  HIT:   30985270  MISS:    2233499  iACCESS:   33218769  iHIT:   30985270  iMISS:    2233499  dACCESS:          0  dHIT:          0  dMISS:          0  itACCESS:          0  itHIT:          0  itMISS:          0  dtACCESS:          0  dtHIT:          0  dtMISS:          0
cpu0_ITLB LOAD         ACCESS:   33218769  HIT:   30985270  MISS:    2233499  iACCESS:   33218769  iHIT:   30985270  iMISS:    2233499  dACCESS:          0  dHIT:          0  dMISS:          0  itACCESS:          0  itHIT:          0  itMISS:          0  dtACCESS:          0  dtHIT:          0  dtMISS:          0
cpu0_ITLB RFO          ACCESS:          0  HIT:          0  MISS:          0  iACCESS:          0  iHIT:          0  iMISS:          0  dACCESS:          0  dHIT:          0  dMISS:          0  itACCESS:          0  itHIT:          0  itMISS:          0  dtACCESS:          0  dtHIT:          0  dtMISS:          0
cpu0_ITLB PREFETCH     ACCESS:          0  HIT:          0  MISS:          0  iACCESS:          0  iHIT:          0  iMISS:          0  dACCESS:          0  dHIT:          0  dMISS:          0  itACCESS:          0  itHIT:          0  itMISS:          0  dtACCESS:          0  dtHIT:          0  dtMISS:          0
cpu0_ITLB WRITE        ACCESS:          0  HIT:          0  MISS:          0  iACCESS:          0  iHIT:          0  iMISS:          0  dACCESS:          0  dHIT:          0  dMISS:          0  itACCESS:          0  itHIT:          0  itMISS:          0  dtACCESS:          0  dtHIT:          0  dtMISS:          0
cpu0_ITLB TRANSLATION  ACCESS:          0  HIT:          0  MISS:          0  iACCESS:          0  iHIT:          0  iMISS:          0  dACCESS:          0  dHIT:          0  dMISS:          0  itACCESS:          0  itHIT:          0  itMISS:          0  dtACCESS:          0  dtHIT:          0  dtMISS:          0
cpu0_ITLB PREFETCH  REQUESTED:          0  ISSUED:          0  CROSSED:          0  USEFUL:     393672  USELESS:      80147
cpu0_ITLB AVERAGE iMISS LATENCY: 10.9249 cycles
cpu0_ITLB AVERAGE dMISS LATENCY: 0 cycles
cpu0_ITLB AVERAGE itMISS LATENCY: 0 cycles
cpu0_ITLB AVERAGE dtMISS LATENCY: 0 cycles
cpu0_ITLB PAGE CROSSINGS (TLB HIT):         0 
cpu0_ITLB PAGE CROSSINGS (TLB MISS):         0 
cpu0_ITLB AVERAGE MISS LATENCY: 10.9249 cycles
cpu0_DTLB TOTAL       ACCESS:   28980504  HIT:   25486053  MISS:    3494451  iACCESS:          0  iHIT:          0  iMISS:          0  dACCESS:   28980504  dHIT:   25486053  dMISS:    3494451  itACCESS:          0  itHIT:          0  itMISS:          0  dtACCESS:          0  dtHIT:          0  dtMISS:          0
cpu0_DTLB LOAD         ACCESS:   28980504  HIT:   25486053  MISS:    3494451  iACCESS:          0  iHIT:          0  iMISS:          0  dACCESS:   28980504  dHIT:   25486053  dMISS:    3494451  itACCESS:          0  itHIT:          0  itMISS:          0  dtACCESS:          0  dtHIT:          0  dtMISS:          0
cpu0_DTLB RFO          ACCESS:          0  HIT:          0  MISS:          0  iACCESS:          0  iHIT:          0  iMISS:          0  dACCESS:          0  dHIT:          0  dMISS:          0  itACCESS:          0  itHIT:          0  itMISS:          0  dtACCESS:          0  dtHIT:          0  dtMISS:          0
cpu0_DTLB PREFETCH     ACCESS:          0  HIT:          0  MISS:          0  iACCESS:          0  iHIT:          0  iMISS:          0  dACCESS:          0  dHIT:          0  dMISS:          0  itACCESS:          0  itHIT:          0  itMISS:          0  dtACCESS:          0  dtHIT:          0  dtMISS:          0
cpu0_DTLB WRITE        ACCESS:          0  HIT:          0  MISS:          0  iACCESS:          0  iHIT:          0  iMISS:          0  dACCESS:          0  dHIT:          0  dMISS:          0  itACCESS:          0  itHIT:          0  itMISS:          0  dtACCESS:          0  dtHIT:          0  dtMISS:          0
cpu0_DTLB TRANSLATION  ACCESS:          0  HIT:          0  MISS:          0  iACCESS:          0  iHIT:          0  iMISS:          0  dACCESS:          0  dHIT:          0  dMISS:          0  itACCESS:          0  itHIT:          0  itMISS:          0  dtACCESS:          0  dtHIT:          0  dtMISS:          0
cpu0_DTLB PREFETCH  REQUESTED:          0  ISSUED:          0  CROSSED:          0  USEFUL:          0  USELESS:          0
cpu0_DTLB AVERAGE iMISS LATENCY: 0 cycles
cpu0_DTLB AVERAGE dMISS LATENCY: 26.0935 cycles
cpu0_DTLB AVERAGE itMISS LATENCY: 0 cycles
cpu0_DTLB AVERAGE dtMISS LATENCY: 0 cycles
cpu0_DTLB PAGE CROSSINGS (TLB HIT):         0 
cpu0_DTLB PAGE CROSSINGS (TLB MISS):         0 
cpu0_DTLB AVERAGE MISS LATENCY: 26.0935 cycles
cpu0_STLB TOTAL       ACCESS:    2538002  HIT:    2156368  MISS:     381634  iACCESS:     473824  iHIT:     353598  iMISS:     120226  dACCESS:    2064178  dHIT:    1802770  dMISS:     261408  itACCESS:          0  itHIT:          0  itMISS:          0  dtACCESS:          0  dtHIT:          0  dtMISS:          0
cpu0_STLB LOAD         ACCESS:    2538002  HIT:    2156368  MISS:     381634  iACCESS:     473824  iHIT:     353598  iMISS:     120226  dACCESS:    2064178  dHIT:    1802770  dMISS:     261408  itACCESS:          0  itHIT:          0  itMISS:          0  dtACCESS:          0  dtHIT:          0  dtMISS:          0
cpu0_STLB RFO          ACCESS:          0  HIT:          0  MISS:          0  iACCESS:          0  iHIT:          0  iMISS:          0  dACCESS:          0  dHIT:          0  dMISS:          0  itACCESS:          0  itHIT:          0  itMISS:          0  dtACCESS:          0  dtHIT:          0  dtMISS:          0
cpu0_STLB PREFETCH     ACCESS:          0  HIT:          0  MISS:          0  iACCESS:          0  iHIT:          0  iMISS:          0  dACCESS:          0  dHIT:          0  dMISS:          0  itACCESS:          0  itHIT:          0  itMISS:          0  dtACCESS:          0  dtHIT:          0  dtMISS:          0
cpu0_STLB WRITE        ACCESS:          0  HIT:          0  MISS:          0  iACCESS:          0  iHIT:          0  iMISS:          0  dACCESS:          0  dHIT:          0  dMISS:          0  itACCESS:          0  itHIT:          0  itMISS:          0  dtACCESS:          0  dtHIT:          0  dtMISS:          0
cpu0_STLB TRANSLATION  ACCESS:          0  HIT:          0  MISS:          0  iACCESS:          0  iHIT:          0  iMISS:          0  dACCESS:          0  dHIT:          0  dMISS:          0  itACCESS:          0  itHIT:          0  itMISS:          0  dtACCESS:          0  dtHIT:          0  dtMISS:          0
cpu0_STLB PREFETCH  REQUESTED:          0  ISSUED:          0  CROSSED:          0  USEFUL:          0  USELESS:          0
cpu0_STLB AVERAGE iMISS LATENCY: 53.9886 cycles
cpu0_STLB AVERAGE dMISS LATENCY: 195.369 cycles
cpu0_STLB AVERAGE itMISS LATENCY: 0 cycles
cpu0_STLB AVERAGE dtMISS LATENCY: 0 cycles
cpu0_STLB PAGE CROSSINGS (TLB HIT):         0 
cpu0_STLB PAGE CROSSINGS (TLB MISS):         0 
cpu0_STLB AVERAGE MISS LATENCY: 249.357 cycles
cpu0_L1D TOTAL       ACCESS:   45241564  HIT:   39341544  MISS:    5900020  iACCESS:          0  iHIT:          0  iMISS:          0  dACCESS:   44674834  dHIT:   39308268  dMISS:    5366566  itACCESS:     134437  itHIT:      14962  itMISS:     119475  dtACCESS:     432293  dtHIT:      18314  dtMISS:     413979
cpu0_L1D LOAD         ACCESS:   20438039  HIT:   18038999  MISS:    2399040  iACCESS:          0  iHIT:          0  iMISS:          0  dACCESS:   20438039  dHIT:   18038999  dMISS:    2399040  itACCESS:          0  itHIT:          0  itMISS:          0  dtACCESS:          0  dtHIT:          0  dtMISS:          0
cpu0_L1D RFO          ACCESS:          0  HIT:          0  MISS:          0  iACCESS:          0  iHIT:          0  iMISS:          0  dACCESS:          0  dHIT:          0  dMISS:          0  itACCESS:          0  itHIT:          0  itMISS:          0  dtACCESS:          0  dtHIT:          0  dtMISS:          0
cpu0_L1D PREFETCH     ACCESS:   14065653  HIT:   11681546  MISS:    2384107  iACCESS:          0  iHIT:          0  iMISS:          0  dACCESS:   14065653  dHIT:   11681546  dMISS:    2384107  itACCESS:          0  itHIT:          0  itMISS:          0  dtACCESS:          0  dtHIT:          0  dtMISS:          0
cpu0_L1D WRITE        ACCESS:   10171142  HIT:    9587723  MISS:     583419  iACCESS:          0  iHIT:          0  iMISS:          0  dACCESS:   10171142  dHIT:    9587723  dMISS:     583419  itACCESS:          0  itHIT:          0  itMISS:          0  dtACCESS:          0  dtHIT:          0  dtMISS:          0
cpu0_L1D TRANSLATION  ACCESS:     566730  HIT:      33276  MISS:     533454  iACCESS:          0  iHIT:          0  iMISS:          0  dACCESS:          0  dHIT:          0  dMISS:          0  itACCESS:     134437  itHIT:      14962  itMISS:     119475  dtACCESS:     432293  dtHIT:      18314  dtMISS:     413979
cpu0_L1D PREFETCH  REQUESTED:   20438039  ISSUED:   18545471  CROSSED:          0  USEFUL:     361776  USELESS:     934873
cpu0_L1D AVERAGE iMISS LATENCY: 0 cycles
cpu0_L1D AVERAGE dMISS LATENCY: 49.2261 cycles
cpu0_L1D AVERAGE itMISS LATENCY: 3.28659 cycles
cpu0_L1D AVERAGE dtMISS LATENCY: 11.8335 cycles
cpu0_L1D PAGE CROSSINGS (TLB HIT):         0 
cpu0_L1D PAGE CROSSINGS (TLB MISS):         0 
cpu0_L1D AVERAGE MISS LATENCY: 64.3461 cycles
cpu0_L2C TOTAL       ACCESS:    8649737  HIT:    4168951  MISS:    4480786  iACCESS:    3784595  iHIT:    2268339  iMISS:    1516256  dACCESS:    4372358  dHIT:    1840580  dMISS:    2531778  itACCESS:     118844  itHIT:      21129  itMISS:      97715  dtACCESS:     373940  dtHIT:      38903  dtMISS:     335037
cpu0_L2C LOAD         ACCESS:    2053697  HIT:    1002595  MISS:    1051102  iACCESS:     841554  iHIT:     528025  iMISS:     313529  dACCESS:    1212143  dHIT:     474570  dMISS:     737573  itACCESS:          0  itHIT:          0  itMISS:          0  dtACCESS:          0  dtHIT:          0  dtMISS:          0
cpu0_L2C RFO          ACCESS:     215307  HIT:      81356  MISS:     133951  iACCESS:          0  iHIT:          0  iMISS:          0  dACCESS:     215307  dHIT:      81356  dMISS:     133951  itACCESS:          0  itHIT:          0  itMISS:          0  dtACCESS:          0  dtHIT:          0  dtMISS:          0
cpu0_L2C PREFETCH     ACCESS:    5546731  HIT:    2687349  MISS:    2859382  iACCESS:    2943041  iHIT:    1740314  iMISS:    1202727  dACCESS:    2603690  dHIT:     947035  dMISS:    1656655  itACCESS:          0  itHIT:          0  itMISS:          0  dtACCESS:          0  dtHIT:          0  dtMISS:          0
cpu0_L2C WRITE        ACCESS:     341218  HIT:     337619  MISS:       3599  iACCESS:          0  iHIT:          0  iMISS:          0  dACCESS:     341218  dHIT:     337619  dMISS:       3599  itACCESS:          0  itHIT:          0  itMISS:          0  dtACCESS:          0  dtHIT:          0  dtMISS:          0
cpu0_L2C TRANSLATION  ACCESS:     492784  HIT:      60032  MISS:     432752  iACCESS:          0  iHIT:          0  iMISS:          0  dACCESS:          0  dHIT:          0  dMISS:          0  itACCESS:     118844  itHIT:      21129  itMISS:      97715  dtACCESS:     373940  dtHIT:      38903  dtMISS:     335037
cpu0_L2C PREFETCH  REQUESTED:    1541756  ISSUED:    1541755  CROSSED:          0  USEFUL:     361418  USELESS:     331036
cpu0_L2C AVERAGE iMISS LATENCY: 42.0554 cycles
cpu0_L2C AVERAGE dMISS LATENCY: 81.2205 cycles
cpu0_L2C AVERAGE itMISS LATENCY: 4.0663 cycles
cpu0_L2C AVERAGE dtMISS LATENCY: 14.751 cycles
cpu0_L2C PAGE CROSSINGS (TLB HIT):         0 
cpu0_L2C PAGE CROSSINGS (TLB MISS):         0 
cpu0_L2C AVERAGE MISS LATENCY: 142.094 cycles
LLC TOTAL       ACCESS:    4462177  HIT:    1247041  MISS:    3215136  iACCESS:    1423844  iHIT:     404399  iMISS:    1019445  dACCESS:    2605581  dHIT:     805604  dMISS:    1799977  itACCESS:      97715  itHIT:       6571  itMISS:      91144  dtACCESS:     335037  dtHIT:      30467  dtMISS:     304570
LLC LOAD         ACCESS:    1044506  HIT:     309583  MISS:     734923  iACCESS:     312375  iHIT:      95586  iMISS:     216789  dACCESS:     732131  dHIT:     213997  dMISS:     518134  itACCESS:          0  itHIT:          0  itMISS:          0  dtACCESS:          0  dtHIT:          0  dtMISS:          0
LLC RFO          ACCESS:     133943  HIT:      38397  MISS:      95546  iACCESS:          0  iHIT:          0  iMISS:          0  dACCESS:     133943  dHIT:      38397  dMISS:      95546  itACCESS:          0  itHIT:          0  itMISS:          0  dtACCESS:          0  dtHIT:          0  dtMISS:          0
LLC PREFETCH     ACCESS:    2642368  HIT:     663953  MISS:    1978415  iACCESS:    1111469  iHIT:     308813  iMISS:     802656  dACCESS:    1530899  dHIT:     355140  dMISS:    1175759  itACCESS:          0  itHIT:          0  itMISS:          0  dtACCESS:          0  dtHIT:          0  dtMISS:          0
LLC WRITE        ACCESS:     208608  HIT:     198070  MISS:      10538  iACCESS:          0  iHIT:          0  iMISS:          0  dACCESS:     208608  dHIT:     198070  dMISS:      10538  itACCESS:          0  itHIT:          0  itMISS:          0  dtACCESS:          0  dtHIT:          0  dtMISS:          0
LLC TRANSLATION  ACCESS:     432752  HIT:      37038  MISS:     395714  iACCESS:          0  iHIT:          0  iMISS:          0  dACCESS:          0  dHIT:          0  dMISS:          0  itACCESS:      97715  itHIT:       6571  itMISS:      91144  dtACCESS:     335037  dtHIT:      30467  dtMISS:     304570
LLC PREFETCH  REQUESTED:          0  ISSUED:          0  CROSSED:          0  USEFUL:          0  USELESS:          0
LLC AVERAGE iMISS LATENCY: 49.878 cycles
LLC AVERAGE dMISS LATENCY: 99.4695 cycles
LLC AVERAGE itMISS LATENCY: 5.06406 cycles
LLC AVERAGE dtMISS LATENCY: 18.4967 cycles
LLC PAGE CROSSINGS (TLB HIT):         0 
LLC PAGE CROSSINGS (TLB MISS):         0 
LLC AVERAGE MISS LATENCY: 172.909 cycles

PageTableWalker TOTAL       ACCESS:     186771  
PageTableWalker AVERAGE LATENCY: 6.46744 cycles
PageTableWalker TOTAL LATENCY: 1207930 cycles

DRAM Statistics
Channel 0
 RQ ROW_BUFFER_HIT:     682925
  ROW_BUFFER_MISS:    2502012
 AVG DBUS CONGESTED CYCLE:    3.65176
 WQ ROW_BUFFER_HIT:      67788
  ROW_BUFFER_MISS:      56459  FULL:          0

