last_page:0x200000000000000
VMEM_RES_CAP:0x100000
PAGE_SIZE:4096
LOG2_PAGE_SIZE:12
LOG2_PAGE_TABLE_SIZE:9
page_table_levels:5
WARNING: physical memory size is smaller than virtual memory size
FDiP enabled with aggresivity 16

*** ChampSim Multicore Out-of-Order Simulator ***

Warmup Instructions: 50000000
Simulation Instructions: 100000000
Number of CPUs: 1
Small page size: 4096
Large page size: 2097152

CPU 0 Bimodal branch predictor
Basic BTB sets: 1024 ways: 8 indirect buffer size: 4096 RAS size: 64
Instruction page size distrubution: 0
Loading instruction page size distribution from /home/bsc/bsc018186/scratch/itp_asplos25_AE/dump/smt_srv540_ap_srv495_ap_1024i.pdst
Data page size distrubution: 0
Loading data page size distribution from /home/bsc/bsc018186/scratch/itp_asplos25_AE/dump/smt_srv540_ap_srv495_ap_1024i.pdst
cpu0_L2C IP-based stride prefetcher
cpu0_L2C is using xPTP/LRU
	TLB_LOWER_STRESS_THRESHOLD:1
	TLB_UPPER_STRESS_THRESHOLD:4
	MIN_EVICTION_POSITION:4
cpu0_L1D next line prefetcher
cpu0_STLB using iTP with max lru@8
cpu0_STLB using iTP with instr@0 and data@2
Init sat counter with 3 bits (max:50).
cpu0_L1I next line prefetcher
Off-chip DRAM Size: 4 GiB Channels: 1 Width: 64-bit Data Rate: 3200 MT/s
Heartbeat CPU 0 instructions: 10000003 cycles: 2500238 heartbeat IPC: 3.99963 cumulative IPC: 3.99963 (Simulation time: 0 hr 0 min 37 sec) 
Heartbeat CPU 0 instructions: 20000000 cycles: 5000441 heartbeat IPC: 3.99968 cumulative IPC: 3.99965 (Simulation time: 0 hr 1 min 16 sec) 
Heartbeat CPU 0 instructions: 30000002 cycles: 7500582 heartbeat IPC: 3.99978 cumulative IPC: 3.99969 (Simulation time: 0 hr 1 min 55 sec) 
Heartbeat CPU 0 instructions: 40000000 cycles: 10000654 heartbeat IPC: 3.99989 cumulative IPC: 3.99974 (Simulation time: 0 hr 2 min 35 sec) 
Heartbeat CPU 0 instructions: 50000002 cycles: 12500719 heartbeat IPC: 3.9999 cumulative IPC: 3.99978 (Simulation time: 0 hr 3 min 14 sec) 
Warmup finished CPU 0 instructions: 50000002 cycles: 12500720 cumulative IPC: 3.99977 (Simulation time: 0 hr 3 min 14 sec) 

Warmup complete CPU 0 instructions: 50000002 cycles: 12500720 (Simulation time: 0 hr 3 min 14 sec) 

Heartbeat CPU 0 instructions: 60000001 cycles: 39719350 heartbeat IPC: 0.367396 cumulative IPC: 0.367396 (Simulation time: 0 hr 4 min 34 sec) 
Heartbeat CPU 0 instructions: 70000003 cycles: 66895063 heartbeat IPC: 0.367976 cumulative IPC: 0.367686 (Simulation time: 0 hr 5 min 54 sec) 
Heartbeat CPU 0 instructions: 80000002 cycles: 94365664 heartbeat IPC: 0.364026 cumulative IPC: 0.366458 (Simulation time: 0 hr 7 min 14 sec) 
Heartbeat CPU 0 instructions: 90000000 cycles: 121864106 heartbeat IPC: 0.363657 cumulative IPC: 0.365754 (Simulation time: 0 hr 8 min 34 sec) 
Heartbeat CPU 0 instructions: 100000002 cycles: 149206046 heartbeat IPC: 0.365739 cumulative IPC: 0.365751 (Simulation time: 0 hr 9 min 54 sec) 
Heartbeat CPU 0 instructions: 110000000 cycles: 175798787 heartbeat IPC: 0.376043 cumulative IPC: 0.367427 (Simulation time: 0 hr 11 min 13 sec) 
Heartbeat CPU 0 instructions: 120000000 cycles: 202914687 heartbeat IPC: 0.368788 cumulative IPC: 0.367621 (Simulation time: 0 hr 12 min 33 sec) 
Heartbeat CPU 0 instructions: 130000001 cycles: 229998300 heartbeat IPC: 0.369227 cumulative IPC: 0.367821 (Simulation time: 0 hr 13 min 53 sec) 
Heartbeat CPU 0 instructions: 140000002 cycles: 256740879 heartbeat IPC: 0.373936 cumulative IPC: 0.36849 (Simulation time: 0 hr 15 min 13 sec) 
Heartbeat CPU 0 instructions: 150000001 cycles: 282473905 heartbeat IPC: 0.388606 cumulative IPC: 0.370408 (Simulation time: 0 hr 16 min 31 sec) 
Simulation finished CPU 0 instructions: 100000004 cycles: 269973187 cumulative IPC: 0.370408 (Simulation time: 0 hr 16 min 31 sec) 

Simulation complete CPU 0 instructions: 100000004 cycles: 269973187 (Simulation time: 0 hr 16 min 31 sec) 


ChampSim completed all CPUs

Saving instructions large page distribution to /home/bsc/bsc018186/scratch/itp_asplos25_AE/dump/smt_srv540_ap_srv495_ap_1024i.pdst...
Saving data large page distribution to /home/bsc/bsc018186/scratch/itp_asplos25_AE/dump/smt_srv540_ap_srv495_ap_1024i.pdst...
=== Simulation ===
CPU 0 runs /gpfs/projects/bsc18/MN4/bsc18/romol/ChampSim/traces/qualcomm_srv/smt_srv540_ap_srv495_ap_1024i.champsimtrace.xz

Region of Interest Statistics

CPU 0 cumulative IPC: 0.370408 instructions: 100000004 cycles: 269973187
CPU 0 Branch Prediction Accuracy: 75.5046% MPKI: 44.1654 Average ROB Occupancy at Mispredict: 10.9119
Branch type MPKI
BRANCH_DIRECT_JUMP: 1.33859
BRANCH_INDIRECT: 22.7715
BRANCH_CONDITIONAL: 12.9584
BRANCH_DIRECT_CALL: 2.62042
BRANCH_INDIRECT_CALL: 0.98476
BRANCH_RETURN: 3.49187

Instructions large pages: 0
Instructions small pages: 9586
Large page distribution for instructions: 0%

Data large pages: 0
Data small pages: 8248
Large page distribution for data: 0%

cpu0_L1I TOTAL       ACCESS:   38932464  HIT:   30078377  MISS:    8854087  iACCESS:   38932464  iHIT:   30078377  iMISS:    8854087  dACCESS:          0  dHIT:          0  dMISS:          0  itACCESS:          0  itHIT:          0  itMISS:          0  dtACCESS:          0  dtHIT:          0  dtMISS:          0
cpu0_L1I LOAD         ACCESS:   11572020  HIT:    9162976  MISS:    2409044  iACCESS:   11572020  iHIT:    9162976  iMISS:    2409044  dACCESS:          0  dHIT:          0  dMISS:          0  itACCESS:          0  itHIT:          0  itMISS:          0  dtACCESS:          0  dtHIT:          0  dtMISS:          0
cpu0_L1I RFO          ACCESS:          0  HIT:          0  MISS:          0  iACCESS:          0  iHIT:          0  iMISS:          0  dACCESS:          0  dHIT:          0  dMISS:          0  itACCESS:          0  itHIT:          0  itMISS:          0  dtACCESS:          0  dtHIT:          0  dtMISS:          0
cpu0_L1I PREFETCH     ACCESS:   27360444  HIT:   20915401  MISS:    6445043  iACCESS:   27360444  iHIT:   20915401  iMISS:    6445043  dACCESS:          0  dHIT:          0  dMISS:          0  itACCESS:          0  itHIT:          0  itMISS:          0  dtACCESS:          0  dtHIT:          0  dtMISS:          0
cpu0_L1I WRITE        ACCESS:          0  HIT:          0  MISS:          0  iACCESS:          0  iHIT:          0  iMISS:          0  dACCESS:          0  dHIT:          0  dMISS:          0  itACCESS:          0  itHIT:          0  itMISS:          0  dtACCESS:          0  dtHIT:          0  dtMISS:          0
cpu0_L1I TRANSLATION  ACCESS:          0  HIT:          0  MISS:          0  iACCESS:          0  iHIT:          0  iMISS:          0  dACCESS:          0  dHIT:          0  dMISS:          0  itACCESS:          0  itHIT:          0  itMISS:          0  dtACCESS:          0  dtHIT:          0  dtMISS:          0
cpu0_L1I PREFETCH  REQUESTED:   30001663  ISSUED:   30001299  CROSSED:          0  USEFUL:    2183406  USELESS:     751260
cpu0_L1I AVERAGE iMISS LATENCY: 23.1112 cycles
cpu0_L1I AVERAGE dMISS LATENCY: 0 cycles
cpu0_L1I AVERAGE itMISS LATENCY: 0 cycles
cpu0_L1I AVERAGE dtMISS LATENCY: 0 cycles
cpu0_L1I PAGE CROSSINGS (TLB HIT):         0 
cpu0_L1I PAGE CROSSINGS (TLB MISS):         0 
cpu0_L1I AVERAGE MISS LATENCY: 23.1112 cycles
cpu0_ITLB TOTAL       ACCESS:   32907515  HIT:   30706510  MISS:    2201005  iACCESS:   32907515  iHIT:   30706510  iMISS:    2201005  dACCESS:          0  dHIT:          0  dMISS:          0  itACCESS:          0  itHIT:          0  itMISS:          0  dtACCESS:          0  dtHIT:          0  dtMISS:          0
cpu0_ITLB LOAD         ACCESS:   32907515  HIT:   30706510  MISS:    2201005  iACCESS:   32907515  iHIT:   30706510  iMISS:    2201005  dACCESS:          0  dHIT:          0  dMISS:          0  itACCESS:          0  itHIT:          0  itMISS:          0  dtACCESS:          0  dtHIT:          0  dtMISS:          0
cpu0_ITLB RFO          ACCESS:          0  HIT:          0  MISS:          0  iACCESS:          0  iHIT:          0  iMISS:          0  dACCESS:          0  dHIT:          0  dMISS:          0  itACCESS:          0  itHIT:          0  itMISS:          0  dtACCESS:          0  dtHIT:          0  dtMISS:          0
cpu0_ITLB PREFETCH     ACCESS:          0  HIT:          0  MISS:          0  iACCESS:          0  iHIT:          0  iMISS:          0  dACCESS:          0  dHIT:          0  dMISS:          0  itACCESS:          0  itHIT:          0  itMISS:          0  dtACCESS:          0  dtHIT:          0  dtMISS:          0
cpu0_ITLB WRITE        ACCESS:          0  HIT:          0  MISS:          0  iACCESS:          0  iHIT:          0  iMISS:          0  dACCESS:          0  dHIT:          0  dMISS:          0  itACCESS:          0  itHIT:          0  itMISS:          0  dtACCESS:          0  dtHIT:          0  dtMISS:          0
cpu0_ITLB TRANSLATION  ACCESS:          0  HIT:          0  MISS:          0  iACCESS:          0  iHIT:          0  iMISS:          0  dACCESS:          0  dHIT:          0  dMISS:          0  itACCESS:          0  itHIT:          0  itMISS:          0  dtACCESS:          0  dtHIT:          0  dtMISS:          0
cpu0_ITLB PREFETCH  REQUESTED:          0  ISSUED:          0  CROSSED:          0  USEFUL:     383455  USELESS:      78345
cpu0_ITLB AVERAGE iMISS LATENCY: 6.0996 cycles
cpu0_ITLB AVERAGE dMISS LATENCY: 0 cycles
cpu0_ITLB AVERAGE itMISS LATENCY: 0 cycles
cpu0_ITLB AVERAGE dtMISS LATENCY: 0 cycles
cpu0_ITLB PAGE CROSSINGS (TLB HIT):         0 
cpu0_ITLB PAGE CROSSINGS (TLB MISS):         0 
cpu0_ITLB AVERAGE MISS LATENCY: 6.0996 cycles
cpu0_DTLB TOTAL       ACCESS:   28828687  HIT:   25158527  MISS:    3670160  iACCESS:          0  iHIT:          0  iMISS:          0  dACCESS:   28828687  dHIT:   25158527  dMISS:    3670160  itACCESS:          0  itHIT:          0  itMISS:          0  dtACCESS:          0  dtHIT:          0  dtMISS:          0
cpu0_DTLB LOAD         ACCESS:   28828687  HIT:   25158527  MISS:    3670160  iACCESS:          0  iHIT:          0  iMISS:          0  dACCESS:   28828687  dHIT:   25158527  dMISS:    3670160  itACCESS:          0  itHIT:          0  itMISS:          0  dtACCESS:          0  dtHIT:          0  dtMISS:          0
cpu0_DTLB RFO          ACCESS:          0  HIT:          0  MISS:          0  iACCESS:          0  iHIT:          0  iMISS:          0  dACCESS:          0  dHIT:          0  dMISS:          0  itACCESS:          0  itHIT:          0  itMISS:          0  dtACCESS:          0  dtHIT:          0  dtMISS:          0
cpu0_DTLB PREFETCH     ACCESS:          0  HIT:          0  MISS:          0  iACCESS:          0  iHIT:          0  iMISS:          0  dACCESS:          0  dHIT:          0  dMISS:          0  itACCESS:          0  itHIT:          0  itMISS:          0  dtACCESS:          0  dtHIT:          0  dtMISS:          0
cpu0_DTLB WRITE        ACCESS:          0  HIT:          0  MISS:          0  iACCESS:          0  iHIT:          0  iMISS:          0  dACCESS:          0  dHIT:          0  dMISS:          0  itACCESS:          0  itHIT:          0  itMISS:          0  dtACCESS:          0  dtHIT:          0  dtMISS:          0
cpu0_DTLB TRANSLATION  ACCESS:          0  HIT:          0  MISS:          0  iACCESS:          0  iHIT:          0  iMISS:          0  dACCESS:          0  dHIT:          0  dMISS:          0  itACCESS:          0  itHIT:          0  itMISS:          0  dtACCESS:          0  dtHIT:          0  dtMISS:          0
cpu0_DTLB PREFETCH  REQUESTED:          0  ISSUED:          0  CROSSED:          0  USEFUL:          0  USELESS:          0
cpu0_DTLB AVERAGE iMISS LATENCY: 0 cycles
cpu0_DTLB AVERAGE dMISS LATENCY: 18.7026 cycles
cpu0_DTLB AVERAGE itMISS LATENCY: 0 cycles
cpu0_DTLB AVERAGE dtMISS LATENCY: 0 cycles
cpu0_DTLB PAGE CROSSINGS (TLB HIT):         0 
cpu0_DTLB PAGE CROSSINGS (TLB MISS):         0 
cpu0_DTLB AVERAGE MISS LATENCY: 18.7026 cycles
cpu0_STLB TOTAL       ACCESS:    2592495  HIT:    2212234  MISS:     380261  iACCESS:     461804  iHIT:     401179  iMISS:      60625  dACCESS:    2130691  dHIT:    1811055  dMISS:     319636  itACCESS:          0  itHIT:          0  itMISS:          0  dtACCESS:          0  dtHIT:          0  dtMISS:          0
cpu0_STLB LOAD         ACCESS:    2592495  HIT:    2212234  MISS:     380261  iACCESS:     461804  iHIT:     401179  iMISS:      60625  dACCESS:    2130691  dHIT:    1811055  dMISS:     319636  itACCESS:          0  itHIT:          0  itMISS:          0  dtACCESS:          0  dtHIT:          0  dtMISS:          0
cpu0_STLB RFO          ACCESS:          0  HIT:          0  MISS:          0  iACCESS:          0  iHIT:          0  iMISS:          0  dACCESS:          0  dHIT:          0  dMISS:          0  itACCESS:          0  itHIT:          0  itMISS:          0  dtACCESS:          0  dtHIT:          0  dtMISS:          0
cpu0_STLB PREFETCH     ACCESS:          0  HIT:          0  MISS:          0  iACCESS:          0  iHIT:          0  iMISS:          0  dACCESS:          0  dHIT:          0  dMISS:          0  itACCESS:          0  itHIT:          0  itMISS:          0  dtACCESS:          0  dtHIT:          0  dtMISS:          0
cpu0_STLB WRITE        ACCESS:          0  HIT:          0  MISS:          0  iACCESS:          0  iHIT:          0  iMISS:          0  dACCESS:          0  dHIT:          0  dMISS:          0  itACCESS:          0  itHIT:          0  itMISS:          0  dtACCESS:          0  dtHIT:          0  dtMISS:          0
cpu0_STLB TRANSLATION  ACCESS:          0  HIT:          0  MISS:          0  iACCESS:          0  iHIT:          0  iMISS:          0  dACCESS:          0  dHIT:          0  dMISS:          0  itACCESS:          0  itHIT:          0  itMISS:          0  dtACCESS:          0  dtHIT:          0  dtMISS:          0
cpu0_STLB PREFETCH  REQUESTED:          0  ISSUED:          0  CROSSED:          0  USEFUL:          0  USELESS:          0
cpu0_STLB AVERAGE iMISS LATENCY: 25.7465 cycles
cpu0_STLB AVERAGE dMISS LATENCY: 135.312 cycles
cpu0_STLB AVERAGE itMISS LATENCY: 0 cycles
cpu0_STLB AVERAGE dtMISS LATENCY: 0 cycles
cpu0_STLB PAGE CROSSINGS (TLB HIT):         0 
cpu0_STLB PAGE CROSSINGS (TLB MISS):         0 
cpu0_STLB AVERAGE MISS LATENCY: 161.059 cycles
cpu0_L1D TOTAL       ACCESS:   44666914  HIT:   38997732  MISS:    5669182  iACCESS:          0  iHIT:          0  iMISS:          0  dACCESS:   44087440  dHIT:   38967621  dMISS:    5119819  itACCESS:      71374  itHIT:       5625  itMISS:      65749  dtACCESS:     508100  dtHIT:      24486  dtMISS:     483614
cpu0_L1D LOAD         ACCESS:   20140994  HIT:   17844010  MISS:    2296984  iACCESS:          0  iHIT:          0  iMISS:          0  dACCESS:   20140994  dHIT:   17844010  dMISS:    2296984  itACCESS:          0  itHIT:          0  itMISS:          0  dtACCESS:          0  dtHIT:          0  dtMISS:          0
cpu0_L1D RFO          ACCESS:          0  HIT:          0  MISS:          0  iACCESS:          0  iHIT:          0  iMISS:          0  dACCESS:          0  dHIT:          0  dMISS:          0  itACCESS:          0  itHIT:          0  itMISS:          0  dtACCESS:          0  dtHIT:          0  dtMISS:          0
cpu0_L1D PREFETCH     ACCESS:   13802206  HIT:   11555285  MISS:    2246921  iACCESS:          0  iHIT:          0  iMISS:          0  dACCESS:   13802206  dHIT:   11555285  dMISS:    2246921  itACCESS:          0  itHIT:          0  itMISS:          0  dtACCESS:          0  dtHIT:          0  dtMISS:          0
cpu0_L1D WRITE        ACCESS:   10144240  HIT:    9568326  MISS:     575914  iACCESS:          0  iHIT:          0  iMISS:          0  dACCESS:   10144240  dHIT:    9568326  dMISS:     575914  itACCESS:          0  itHIT:          0  itMISS:          0  dtACCESS:          0  dtHIT:          0  dtMISS:          0
cpu0_L1D TRANSLATION  ACCESS:     579474  HIT:      30111  MISS:     549363  iACCESS:          0  iHIT:          0  iMISS:          0  dACCESS:          0  dHIT:          0  dMISS:          0  itACCESS:      71374  itHIT:       5625  itMISS:      65749  dtACCESS:     508100  dtHIT:      24486  dtMISS:     483614
cpu0_L1D PREFETCH  REQUESTED:   20140994  ISSUED:   18371963  CROSSED:          0  USEFUL:     361700  USELESS:     932789
cpu0_L1D AVERAGE iMISS LATENCY: 0 cycles
cpu0_L1D AVERAGE dMISS LATENCY: 49.0695 cycles
cpu0_L1D AVERAGE itMISS LATENCY: 1.61953 cycles
cpu0_L1D AVERAGE dtMISS LATENCY: 8.20965 cycles
cpu0_L1D PAGE CROSSINGS (TLB HIT):         0 
cpu0_L1D PAGE CROSSINGS (TLB MISS):         0 
cpu0_L1D AVERAGE MISS LATENCY: 58.8987 cycles
cpu0_L2C TOTAL       ACCESS:    8602823  HIT:    2479466  MISS:    6123357  iACCESS:    3727113  iHIT:    1384909  iMISS:    2342204  dACCESS:    4353083  dHIT:     860044  dMISS:    3493039  itACCESS:      65341  itHIT:      14222  itMISS:      51119  dtACCESS:     457286  dtHIT:     220291  dtMISS:     236995
cpu0_L2C LOAD         ACCESS:    2034014  HIT:     475906  MISS:    1558108  iACCESS:     828865  iHIT:     276586  iMISS:     552279  dACCESS:    1205149  dHIT:     199320  dMISS:    1005829  itACCESS:          0  itHIT:          0  itMISS:          0  dtACCESS:          0  dtHIT:          0  dtMISS:          0
cpu0_L2C RFO          ACCESS:     219626  HIT:      34086  MISS:     185540  iACCESS:          0  iHIT:          0  iMISS:          0  dACCESS:     219626  dHIT:      34086  dMISS:     185540  itACCESS:          0  itHIT:          0  itMISS:          0  dtACCESS:          0  dtHIT:          0  dtMISS:          0
cpu0_L2C PREFETCH     ACCESS:    5479277  HIT:    1607015  MISS:    3872262  iACCESS:    2898248  iHIT:    1108323  iMISS:    1789925  dACCESS:    2581029  dHIT:     498692  dMISS:    2082337  itACCESS:          0  itHIT:          0  itMISS:          0  dtACCESS:          0  dtHIT:          0  dtMISS:          0
cpu0_L2C WRITE        ACCESS:     347279  HIT:     127946  MISS:     219333  iACCESS:          0  iHIT:          0  iMISS:          0  dACCESS:     347279  dHIT:     127946  dMISS:     219333  itACCESS:          0  itHIT:          0  itMISS:          0  dtACCESS:          0  dtHIT:          0  dtMISS:          0
cpu0_L2C TRANSLATION  ACCESS:     522627  HIT:     234513  MISS:     288114  iACCESS:          0  iHIT:          0  iMISS:          0  dACCESS:          0  dHIT:          0  dMISS:          0  itACCESS:      65341  itHIT:      14222  itMISS:      51119  dtACCESS:     457286  dtHIT:     220291  dtMISS:     236995
cpu0_L2C PREFETCH  REQUESTED:    1525295  ISSUED:    1525288  CROSSED:          0  USEFUL:     382175  USELESS:     438255
cpu0_L2C AVERAGE iMISS LATENCY: 28.2588 cycles
cpu0_L2C AVERAGE dMISS LATENCY: 55.9063 cycles
cpu0_L2C AVERAGE itMISS LATENCY: 1.39469 cycles
cpu0_L2C AVERAGE dtMISS LATENCY: 6.88655 cycles
cpu0_L2C PAGE CROSSINGS (TLB HIT):         0 
cpu0_L2C PAGE CROSSINGS (TLB MISS):         0 
cpu0_L2C AVERAGE MISS LATENCY: 92.4463 cycles
LLC TOTAL       ACCESS:    5961992  HIT:    3311665  MISS:    2650327  iACCESS:    2252524  iHIT:    1436425  iMISS:     816099  dACCESS:    3421354  dHIT:    1825895  dMISS:    1595459  itACCESS:      51119  itHIT:       9015  itMISS:      42104  dtACCESS:     236995  dtHIT:      40330  dtMISS:     196665
LLC LOAD         ACCESS:    1551047  HIT:     918517  MISS:     632530  iACCESS:     550964  iHIT:     379137  iMISS:     171827  dACCESS:    1000083  dHIT:     539380  dMISS:     460703  itACCESS:          0  itHIT:          0  itMISS:          0  dtACCESS:          0  dtHIT:          0  dtMISS:          0
LLC RFO          ACCESS:     185521  HIT:      94997  MISS:      90524  iACCESS:          0  iHIT:          0  iMISS:          0  dACCESS:     185521  dHIT:      94997  dMISS:      90524  itACCESS:          0  itHIT:          0  itMISS:          0  dtACCESS:          0  dtHIT:          0  dtMISS:          0
LLC PREFETCH     ACCESS:    3661320  HIT:    1977344  MISS:    1683976  iACCESS:    1701560  iHIT:    1057288  iMISS:     644272  dACCESS:    1959760  dHIT:     920056  dMISS:    1039704  itACCESS:          0  itHIT:          0  itMISS:          0  dtACCESS:          0  dtHIT:          0  dtMISS:          0
LLC WRITE        ACCESS:     275990  HIT:     271462  MISS:       4528  iACCESS:          0  iHIT:          0  iMISS:          0  dACCESS:     275990  dHIT:     271462  dMISS:       4528  itACCESS:          0  itHIT:          0  itMISS:          0  dtACCESS:          0  dtHIT:          0  dtMISS:          0
LLC TRANSLATION  ACCESS:     288114  HIT:      49345  MISS:     238769  iACCESS:          0  iHIT:          0  iMISS:          0  dACCESS:          0  dHIT:          0  dMISS:          0  itACCESS:      51119  itHIT:       9015  itMISS:      42104  dtACCESS:     236995  dtHIT:      40330  dtMISS:     196665
LLC PREFETCH  REQUESTED:          0  ISSUED:          0  CROSSED:          0  USEFUL:          0  USELESS:          0
LLC AVERAGE iMISS LATENCY: 48.7475 cycles
LLC AVERAGE dMISS LATENCY: 107.022 cycles
LLC AVERAGE itMISS LATENCY: 2.84141 cycles
LLC AVERAGE dtMISS LATENCY: 14.145 cycles
LLC PAGE CROSSINGS (TLB HIT):         0 
LLC PAGE CROSSINGS (TLB MISS):         0 
LLC AVERAGE MISS LATENCY: 172.756 cycles

PageTableWalker TOTAL       ACCESS:     186877  
PageTableWalker AVERAGE LATENCY: 5.92311 cycles
PageTableWalker TOTAL LATENCY: 1106893 cycles

DRAM Statistics
Channel 0
 RQ ROW_BUFFER_HIT:     576319
  ROW_BUFFER_MISS:    2051021
 AVG DBUS CONGESTED CYCLE:    3.65949
 WQ ROW_BUFFER_HIT:      64352
  ROW_BUFFER_MISS:      64618  FULL:          0

