last_page:0x200000000000000
VMEM_RES_CAP:0x100000
PAGE_SIZE:4096
LOG2_PAGE_SIZE:12
LOG2_PAGE_TABLE_SIZE:9
page_table_levels:5
WARNING: physical memory size is smaller than virtual memory size
FDiP enabled with aggresivity 16

*** ChampSim Multicore Out-of-Order Simulator ***

Warmup Instructions: 50000000
Simulation Instructions: 100000000
Number of CPUs: 1
Small page size: 4096
Large page size: 2097152

CPU 0 Bimodal branch predictor
Basic BTB sets: 1024 ways: 8 indirect buffer size: 4096 RAS size: 64
Instruction page size distrubution: 0
Loading instruction page size distribution from /home/bsc/bsc018186/scratch/itp_asplos25_AE/dump/smt_srv12_ap_srv128_ap_1024i.pdst
Data page size distrubution: 0
Loading data page size distribution from /home/bsc/bsc018186/scratch/itp_asplos25_AE/dump/smt_srv12_ap_srv128_ap_1024i.pdst
cpu0_L2C IP-based stride prefetcher
cpu0_L2C is using xPTP/LRU
	TLB_LOWER_STRESS_THRESHOLD:1
	TLB_UPPER_STRESS_THRESHOLD:4
	MIN_EVICTION_POSITION:4
cpu0_L1D next line prefetcher
cpu0_STLB using iTP with max lru@8
cpu0_STLB using iTP with instr@0 and data@2
Init sat counter with 3 bits (max:50).
cpu0_L1I next line prefetcher
Off-chip DRAM Size: 4 GiB Channels: 1 Width: 64-bit Data Rate: 3200 MT/s
Heartbeat CPU 0 instructions: 10000000 cycles: 2500565 heartbeat IPC: 3.9991 cumulative IPC: 3.9991 (Simulation time: 0 hr 0 min 38 sec) 
Heartbeat CPU 0 instructions: 20000000 cycles: 5080657 heartbeat IPC: 3.87584 cumulative IPC: 3.9365 (Simulation time: 0 hr 1 min 19 sec) 
Heartbeat CPU 0 instructions: 30000000 cycles: 7664186 heartbeat IPC: 3.87068 cumulative IPC: 3.91432 (Simulation time: 0 hr 2 min 2 sec) 
Heartbeat CPU 0 instructions: 40000003 cycles: 10203288 heartbeat IPC: 3.93841 cumulative IPC: 3.92031 (Simulation time: 0 hr 2 min 45 sec) 
Heartbeat CPU 0 instructions: 50000002 cycles: 12703444 heartbeat IPC: 3.99976 cumulative IPC: 3.93595 (Simulation time: 0 hr 3 min 26 sec) 
Warmup finished CPU 0 instructions: 50000002 cycles: 12703445 cumulative IPC: 3.93595 (Simulation time: 0 hr 3 min 26 sec) 

Warmup complete CPU 0 instructions: 50000002 cycles: 12703445 (Simulation time: 0 hr 3 min 26 sec) 

Heartbeat CPU 0 instructions: 60000000 cycles: 40583628 heartbeat IPC: 0.358678 cumulative IPC: 0.358678 (Simulation time: 0 hr 4 min 47 sec) 
Heartbeat CPU 0 instructions: 70000000 cycles: 68363565 heartbeat IPC: 0.359973 cumulative IPC: 0.359324 (Simulation time: 0 hr 6 min 8 sec) 
Heartbeat CPU 0 instructions: 80000001 cycles: 97162771 heartbeat IPC: 0.347232 cumulative IPC: 0.355201 (Simulation time: 0 hr 7 min 30 sec) 
Heartbeat CPU 0 instructions: 90000000 cycles: 121976837 heartbeat IPC: 0.402998 cumulative IPC: 0.366055 (Simulation time: 0 hr 8 min 45 sec) 
Heartbeat CPU 0 instructions: 100000001 cycles: 149871269 heartbeat IPC: 0.358495 cumulative IPC: 0.364517 (Simulation time: 0 hr 10 min 6 sec) 
Heartbeat CPU 0 instructions: 110000000 cycles: 177506989 heartbeat IPC: 0.361851 cumulative IPC: 0.36407 (Simulation time: 0 hr 11 min 27 sec) 
Heartbeat CPU 0 instructions: 120000000 cycles: 205221468 heartbeat IPC: 0.360823 cumulative IPC: 0.363603 (Simulation time: 0 hr 12 min 47 sec) 
Heartbeat CPU 0 instructions: 130000000 cycles: 233025967 heartbeat IPC: 0.359655 cumulative IPC: 0.363105 (Simulation time: 0 hr 14 min 8 sec) 
Heartbeat CPU 0 instructions: 140000000 cycles: 260692882 heartbeat IPC: 0.361443 cumulative IPC: 0.362919 (Simulation time: 0 hr 15 min 29 sec) 
Heartbeat CPU 0 instructions: 150000002 cycles: 289030307 heartbeat IPC: 0.352891 cumulative IPC: 0.361891 (Simulation time: 0 hr 16 min 51 sec) 
Simulation finished CPU 0 instructions: 100000000 cycles: 276326863 cumulative IPC: 0.361891 (Simulation time: 0 hr 16 min 51 sec) 

Simulation complete CPU 0 instructions: 100000000 cycles: 276326863 (Simulation time: 0 hr 16 min 51 sec) 


ChampSim completed all CPUs

Saving instructions large page distribution to /home/bsc/bsc018186/scratch/itp_asplos25_AE/dump/smt_srv12_ap_srv128_ap_1024i.pdst...
Saving data large page distribution to /home/bsc/bsc018186/scratch/itp_asplos25_AE/dump/smt_srv12_ap_srv128_ap_1024i.pdst...
=== Simulation ===
CPU 0 runs /gpfs/projects/bsc18/MN4/bsc18/romol/ChampSim/traces/qualcomm_srv/smt_srv12_ap_srv128_ap_1024i.champsimtrace.xz

Region of Interest Statistics

CPU 0 cumulative IPC: 0.361891 instructions: 100000000 cycles: 276326863
CPU 0 Branch Prediction Accuracy: 74.5693% MPKI: 46.1111 Average ROB Occupancy at Mispredict: 10.328
Branch type MPKI
BRANCH_DIRECT_JUMP: 1.47275
BRANCH_INDIRECT: 23.5035
BRANCH_CONDITIONAL: 13.5821
BRANCH_DIRECT_CALL: 2.82674
BRANCH_INDIRECT_CALL: 1.14498
BRANCH_RETURN: 3.58121

Instructions large pages: 0
Instructions small pages: 11454
Large page distribution for instructions: 0%

Data large pages: 0
Data small pages: 9589
Large page distribution for data: 0%

cpu0_L1I TOTAL       ACCESS:   39472361  HIT:   30528207  MISS:    8944154  iACCESS:   39472361  iHIT:   30528207  iMISS:    8944154  dACCESS:          0  dHIT:          0  dMISS:          0  itACCESS:          0  itHIT:          0  itMISS:          0  dtACCESS:          0  dtHIT:          0  dtMISS:          0
cpu0_L1I LOAD         ACCESS:   11731453  HIT:    9310173  MISS:    2421280  iACCESS:   11731453  iHIT:    9310173  iMISS:    2421280  dACCESS:          0  dHIT:          0  dMISS:          0  itACCESS:          0  itHIT:          0  itMISS:          0  dtACCESS:          0  dtHIT:          0  dtMISS:          0
cpu0_L1I RFO          ACCESS:          0  HIT:          0  MISS:          0  iACCESS:          0  iHIT:          0  iMISS:          0  dACCESS:          0  dHIT:          0  dMISS:          0  itACCESS:          0  itHIT:          0  itMISS:          0  dtACCESS:          0  dtHIT:          0  dtMISS:          0
cpu0_L1I PREFETCH     ACCESS:   27740908  HIT:   21218034  MISS:    6522874  iACCESS:   27740908  iHIT:   21218034  iMISS:    6522874  dACCESS:          0  dHIT:          0  dMISS:          0  itACCESS:          0  itHIT:          0  itMISS:          0  dtACCESS:          0  dtHIT:          0  dtMISS:          0
cpu0_L1I WRITE        ACCESS:          0  HIT:          0  MISS:          0  iACCESS:          0  iHIT:          0  iMISS:          0  dACCESS:          0  dHIT:          0  dMISS:          0  itACCESS:          0  itHIT:          0  itMISS:          0  dtACCESS:          0  dtHIT:          0  dtMISS:          0
cpu0_L1I TRANSLATION  ACCESS:          0  HIT:          0  MISS:          0  iACCESS:          0  iHIT:          0  iMISS:          0  dACCESS:          0  dHIT:          0  dMISS:          0  itACCESS:          0  itHIT:          0  itMISS:          0  dtACCESS:          0  dtHIT:          0  dtMISS:          0
cpu0_L1I PREFETCH  REQUESTED:   30420905  ISSUED:   30420471  CROSSED:          0  USEFUL:    2224275  USELESS:     775300
cpu0_L1I AVERAGE iMISS LATENCY: 23.3996 cycles
cpu0_L1I AVERAGE dMISS LATENCY: 0 cycles
cpu0_L1I AVERAGE itMISS LATENCY: 0 cycles
cpu0_L1I AVERAGE dtMISS LATENCY: 0 cycles
cpu0_L1I PAGE CROSSINGS (TLB HIT):         0 
cpu0_L1I PAGE CROSSINGS (TLB MISS):         0 
cpu0_L1I AVERAGE MISS LATENCY: 23.3996 cycles
cpu0_ITLB TOTAL       ACCESS:   33432504  HIT:   31196580  MISS:    2235924  iACCESS:   33432504  iHIT:   31196580  iMISS:    2235924  dACCESS:          0  dHIT:          0  dMISS:          0  itACCESS:          0  itHIT:          0  itMISS:          0  dtACCESS:          0  dtHIT:          0  dtMISS:          0
cpu0_ITLB LOAD         ACCESS:   33432504  HIT:   31196580  MISS:    2235924  iACCESS:   33432504  iHIT:   31196580  iMISS:    2235924  dACCESS:          0  dHIT:          0  dMISS:          0  itACCESS:          0  itHIT:          0  itMISS:          0  dtACCESS:          0  dtHIT:          0  dtMISS:          0
cpu0_ITLB RFO          ACCESS:          0  HIT:          0  MISS:          0  iACCESS:          0  iHIT:          0  iMISS:          0  dACCESS:          0  dHIT:          0  dMISS:          0  itACCESS:          0  itHIT:          0  itMISS:          0  dtACCESS:          0  dtHIT:          0  dtMISS:          0
cpu0_ITLB PREFETCH     ACCESS:          0  HIT:          0  MISS:          0  iACCESS:          0  iHIT:          0  iMISS:          0  dACCESS:          0  dHIT:          0  dMISS:          0  itACCESS:          0  itHIT:          0  itMISS:          0  dtACCESS:          0  dtHIT:          0  dtMISS:          0
cpu0_ITLB WRITE        ACCESS:          0  HIT:          0  MISS:          0  iACCESS:          0  iHIT:          0  iMISS:          0  dACCESS:          0  dHIT:          0  dMISS:          0  itACCESS:          0  itHIT:          0  itMISS:          0  dtACCESS:          0  dtHIT:          0  dtMISS:          0
cpu0_ITLB TRANSLATION  ACCESS:          0  HIT:          0  MISS:          0  iACCESS:          0  iHIT:          0  iMISS:          0  dACCESS:          0  dHIT:          0  dMISS:          0  itACCESS:          0  itHIT:          0  itMISS:          0  dtACCESS:          0  dtHIT:          0  dtMISS:          0
cpu0_ITLB PREFETCH  REQUESTED:          0  ISSUED:          0  CROSSED:          0  USEFUL:     396749  USELESS:      80494
cpu0_ITLB AVERAGE iMISS LATENCY: 6.39141 cycles
cpu0_ITLB AVERAGE dMISS LATENCY: 0 cycles
cpu0_ITLB AVERAGE itMISS LATENCY: 0 cycles
cpu0_ITLB AVERAGE dtMISS LATENCY: 0 cycles
cpu0_ITLB PAGE CROSSINGS (TLB HIT):         0 
cpu0_ITLB PAGE CROSSINGS (TLB MISS):         0 
cpu0_ITLB AVERAGE MISS LATENCY: 6.39141 cycles
cpu0_DTLB TOTAL       ACCESS:   29009773  HIT:   25544825  MISS:    3464948  iACCESS:          0  iHIT:          0  iMISS:          0  dACCESS:   29009773  dHIT:   25544825  dMISS:    3464948  itACCESS:          0  itHIT:          0  itMISS:          0  dtACCESS:          0  dtHIT:          0  dtMISS:          0
cpu0_DTLB LOAD         ACCESS:   29009773  HIT:   25544825  MISS:    3464948  iACCESS:          0  iHIT:          0  iMISS:          0  dACCESS:   29009773  dHIT:   25544825  dMISS:    3464948  itACCESS:          0  itHIT:          0  itMISS:          0  dtACCESS:          0  dtHIT:          0  dtMISS:          0
cpu0_DTLB RFO          ACCESS:          0  HIT:          0  MISS:          0  iACCESS:          0  iHIT:          0  iMISS:          0  dACCESS:          0  dHIT:          0  dMISS:          0  itACCESS:          0  itHIT:          0  itMISS:          0  dtACCESS:          0  dtHIT:          0  dtMISS:          0
cpu0_DTLB PREFETCH     ACCESS:          0  HIT:          0  MISS:          0  iACCESS:          0  iHIT:          0  iMISS:          0  dACCESS:          0  dHIT:          0  dMISS:          0  itACCESS:          0  itHIT:          0  itMISS:          0  dtACCESS:          0  dtHIT:          0  dtMISS:          0
cpu0_DTLB WRITE        ACCESS:          0  HIT:          0  MISS:          0  iACCESS:          0  iHIT:          0  iMISS:          0  dACCESS:          0  dHIT:          0  dMISS:          0  itACCESS:          0  itHIT:          0  itMISS:          0  dtACCESS:          0  dtHIT:          0  dtMISS:          0
cpu0_DTLB TRANSLATION  ACCESS:          0  HIT:          0  MISS:          0  iACCESS:          0  iHIT:          0  iMISS:          0  dACCESS:          0  dHIT:          0  dMISS:          0  itACCESS:          0  itHIT:          0  itMISS:          0  dtACCESS:          0  dtHIT:          0  dtMISS:          0
cpu0_DTLB PREFETCH  REQUESTED:          0  ISSUED:          0  CROSSED:          0  USEFUL:          0  USELESS:          0
cpu0_DTLB AVERAGE iMISS LATENCY: 0 cycles
cpu0_DTLB AVERAGE dMISS LATENCY: 19.4171 cycles
cpu0_DTLB AVERAGE itMISS LATENCY: 0 cycles
cpu0_DTLB AVERAGE dtMISS LATENCY: 0 cycles
cpu0_DTLB PAGE CROSSINGS (TLB HIT):         0 
cpu0_DTLB PAGE CROSSINGS (TLB MISS):         0 
cpu0_DTLB AVERAGE MISS LATENCY: 19.4171 cycles
cpu0_STLB TOTAL       ACCESS:    2527664  HIT:    2154638  MISS:     373026  iACCESS:     477249  iHIT:     411619  iMISS:      65630  dACCESS:    2050415  dHIT:    1743019  dMISS:     307396  itACCESS:          0  itHIT:          0  itMISS:          0  dtACCESS:          0  dtHIT:          0  dtMISS:          0
cpu0_STLB LOAD         ACCESS:    2527664  HIT:    2154638  MISS:     373026  iACCESS:     477249  iHIT:     411619  iMISS:      65630  dACCESS:    2050415  dHIT:    1743019  dMISS:     307396  itACCESS:          0  itHIT:          0  itMISS:          0  dtACCESS:          0  dtHIT:          0  dtMISS:          0
cpu0_STLB RFO          ACCESS:          0  HIT:          0  MISS:          0  iACCESS:          0  iHIT:          0  iMISS:          0  dACCESS:          0  dHIT:          0  dMISS:          0  itACCESS:          0  itHIT:          0  itMISS:          0  dtACCESS:          0  dtHIT:          0  dtMISS:          0
cpu0_STLB PREFETCH     ACCESS:          0  HIT:          0  MISS:          0  iACCESS:          0  iHIT:          0  iMISS:          0  dACCESS:          0  dHIT:          0  dMISS:          0  itACCESS:          0  itHIT:          0  itMISS:          0  dtACCESS:          0  dtHIT:          0  dtMISS:          0
cpu0_STLB WRITE        ACCESS:          0  HIT:          0  MISS:          0  iACCESS:          0  iHIT:          0  iMISS:          0  dACCESS:          0  dHIT:          0  dMISS:          0  itACCESS:          0  itHIT:          0  itMISS:          0  dtACCESS:          0  dtHIT:          0  dtMISS:          0
cpu0_STLB TRANSLATION  ACCESS:          0  HIT:          0  MISS:          0  iACCESS:          0  iHIT:          0  iMISS:          0  dACCESS:          0  dHIT:          0  dMISS:          0  itACCESS:          0  itHIT:          0  itMISS:          0  dtACCESS:          0  dtHIT:          0  dtMISS:          0
cpu0_STLB PREFETCH  REQUESTED:          0  ISSUED:          0  CROSSED:          0  USEFUL:          0  USELESS:          0
cpu0_STLB AVERAGE iMISS LATENCY: 28.2322 cycles
cpu0_STLB AVERAGE dMISS LATENCY: 136.047 cycles
cpu0_STLB AVERAGE itMISS LATENCY: 0 cycles
cpu0_STLB AVERAGE dtMISS LATENCY: 0 cycles
cpu0_STLB PAGE CROSSINGS (TLB HIT):         0 
cpu0_STLB PAGE CROSSINGS (TLB MISS):         0 
cpu0_STLB AVERAGE MISS LATENCY: 164.279 cycles
cpu0_L1D TOTAL       ACCESS:   45203679  HIT:   39373989  MISS:    5829690  iACCESS:          0  iHIT:          0  iMISS:          0  dACCESS:   44631834  dHIT:   39345080  dMISS:    5286754  itACCESS:      76410  itHIT:       6214  itMISS:      70196  dtACCESS:     495435  dtHIT:      22695  dtMISS:     472740
cpu0_L1D LOAD         ACCESS:   20391355  HIT:   18031837  MISS:    2359518  iACCESS:          0  iHIT:          0  iMISS:          0  dACCESS:   20391355  dHIT:   18031837  dMISS:    2359518  itACCESS:          0  itHIT:          0  itMISS:          0  dtACCESS:          0  dtHIT:          0  dtMISS:          0
cpu0_L1D RFO          ACCESS:          0  HIT:          0  MISS:          0  iACCESS:          0  iHIT:          0  iMISS:          0  dACCESS:          0  dHIT:          0  dMISS:          0  itACCESS:          0  itHIT:          0  itMISS:          0  dtACCESS:          0  dtHIT:          0  dtMISS:          0
cpu0_L1D PREFETCH     ACCESS:   14049032  HIT:   11711236  MISS:    2337796  iACCESS:          0  iHIT:          0  iMISS:          0  dACCESS:   14049032  dHIT:   11711236  dMISS:    2337796  itACCESS:          0  itHIT:          0  itMISS:          0  dtACCESS:          0  dtHIT:          0  dtMISS:          0
cpu0_L1D WRITE        ACCESS:   10191447  HIT:    9602007  MISS:     589440  iACCESS:          0  iHIT:          0  iMISS:          0  dACCESS:   10191447  dHIT:    9602007  dMISS:     589440  itACCESS:          0  itHIT:          0  itMISS:          0  dtACCESS:          0  dtHIT:          0  dtMISS:          0
cpu0_L1D TRANSLATION  ACCESS:     571845  HIT:      28909  MISS:     542936  iACCESS:          0  iHIT:          0  iMISS:          0  dACCESS:          0  dHIT:          0  dMISS:          0  itACCESS:      76410  itHIT:       6214  itMISS:      70196  dtACCESS:     495435  dtHIT:      22695  dtMISS:     472740
cpu0_L1D PREFETCH  REQUESTED:   20391355  ISSUED:   18593821  CROSSED:          0  USEFUL:     362864  USELESS:     930522
cpu0_L1D AVERAGE iMISS LATENCY: 0 cycles
cpu0_L1D AVERAGE dMISS LATENCY: 47.7075 cycles
cpu0_L1D AVERAGE itMISS LATENCY: 1.67559 cycles
cpu0_L1D AVERAGE dtMISS LATENCY: 7.84293 cycles
cpu0_L1D PAGE CROSSINGS (TLB HIT):         0 
cpu0_L1D PAGE CROSSINGS (TLB MISS):         0 
cpu0_L1D AVERAGE MISS LATENCY: 57.226 cycles
cpu0_L2C TOTAL       ACCESS:    8675579  HIT:    2482111  MISS:    6193468  iACCESS:    3803826  iHIT:    1402555  iMISS:    2401271  dACCESS:    4361207  dHIT:     856144  dMISS:    3505063  itACCESS:      69674  itHIT:      15728  itMISS:      53946  dtACCESS:     440872  dtHIT:     207684  dtMISS:     233188
cpu0_L2C LOAD         ACCESS:    2043960  HIT:     479339  MISS:    1564621  iACCESS:     840444  iHIT:     284499  iMISS:     555945  dACCESS:    1203516  dHIT:     194840  dMISS:    1008676  itACCESS:          0  itHIT:          0  itMISS:          0  dtACCESS:          0  dtHIT:          0  dtMISS:          0
cpu0_L2C RFO          ACCESS:     215554  HIT:      30953  MISS:     184601  iACCESS:          0  iHIT:          0  iMISS:          0  dACCESS:     215554  dHIT:      30953  dMISS:     184601  itACCESS:          0  itHIT:          0  itMISS:          0  dtACCESS:          0  dtHIT:          0  dtMISS:          0
cpu0_L2C PREFETCH     ACCESS:    5566039  HIT:    1627523  MISS:    3938516  iACCESS:    2963382  iHIT:    1118056  iMISS:    1845326  dACCESS:    2602657  dHIT:     509467  dMISS:    2093190  itACCESS:          0  itHIT:          0  itMISS:          0  dtACCESS:          0  dtHIT:          0  dtMISS:          0
cpu0_L2C WRITE        ACCESS:     339480  HIT:     120884  MISS:     218596  iACCESS:          0  iHIT:          0  iMISS:          0  dACCESS:     339480  dHIT:     120884  dMISS:     218596  itACCESS:          0  itHIT:          0  itMISS:          0  dtACCESS:          0  dtHIT:          0  dtMISS:          0
cpu0_L2C TRANSLATION  ACCESS:     510546  HIT:     223412  MISS:     287134  iACCESS:          0  iHIT:          0  iMISS:          0  dACCESS:          0  dHIT:          0  dMISS:          0  itACCESS:      69674  itHIT:      15728  itMISS:      53946  dtACCESS:     440872  dtHIT:     207684  dtMISS:     233188
cpu0_L2C PREFETCH  REQUESTED:    1544609  ISSUED:    1544607  CROSSED:          0  USEFUL:     386057  USELESS:     447992
cpu0_L2C AVERAGE iMISS LATENCY: 28.6248 cycles
cpu0_L2C AVERAGE dMISS LATENCY: 55.3855 cycles
cpu0_L2C AVERAGE itMISS LATENCY: 1.46688 cycles
cpu0_L2C AVERAGE dtMISS LATENCY: 6.70087 cycles
cpu0_L2C PAGE CROSSINGS (TLB HIT):         0 
cpu0_L2C PAGE CROSSINGS (TLB MISS):         0 
cpu0_L2C AVERAGE MISS LATENCY: 92.178 cycles
LLC TOTAL       ACCESS:    6031249  HIT:    3341987  MISS:    2689262  iACCESS:    2312293  iHIT:    1468783  iMISS:     843510  dACCESS:    3431822  dHIT:    1824773  dMISS:    1607049  itACCESS:      53946  itHIT:       9038  itMISS:      44908  dtACCESS:     233188  dtHIT:      39393  dtMISS:     193795
LLC LOAD         ACCESS:    1557932  HIT:     918957  MISS:     638975  iACCESS:     554805  iHIT:     378022  iMISS:     176783  dACCESS:    1003127  dHIT:     540935  dMISS:     462192  itACCESS:          0  itHIT:          0  itMISS:          0  dtACCESS:          0  dtHIT:          0  dtMISS:          0
LLC RFO          ACCESS:     184587  HIT:      91539  MISS:      93048  iACCESS:          0  iHIT:          0  iMISS:          0  dACCESS:     184587  dHIT:      91539  dMISS:      93048  itACCESS:          0  itHIT:          0  itMISS:          0  dtACCESS:          0  dtHIT:          0  dtMISS:          0
LLC PREFETCH     ACCESS:    3729590  HIT:    2015702  MISS:    1713888  iACCESS:    1757488  iHIT:    1090761  iMISS:     666727  dACCESS:    1972102  dHIT:     924941  dMISS:    1047161  itACCESS:          0  itHIT:          0  itMISS:          0  dtACCESS:          0  dtHIT:          0  dtMISS:          0
LLC WRITE        ACCESS:     272006  HIT:     267358  MISS:       4648  iACCESS:          0  iHIT:          0  iMISS:          0  dACCESS:     272006  dHIT:     267358  dMISS:       4648  itACCESS:          0  itHIT:          0  itMISS:          0  dtACCESS:          0  dtHIT:          0  dtMISS:          0
LLC TRANSLATION  ACCESS:     287134  HIT:      48431  MISS:     238703  iACCESS:          0  iHIT:          0  iMISS:          0  dACCESS:          0  dHIT:          0  dMISS:          0  itACCESS:      53946  itHIT:       9038  itMISS:      44908  dtACCESS:     233188  dtHIT:      39393  dtMISS:     193795
LLC PREFETCH  REQUESTED:          0  ISSUED:          0  CROSSED:          0  USEFUL:          0  USELESS:          0
LLC AVERAGE iMISS LATENCY: 49.1967 cycles
LLC AVERAGE dMISS LATENCY: 105.634 cycles
LLC AVERAGE itMISS LATENCY: 2.98195 cycles
LLC AVERAGE dtMISS LATENCY: 13.7202 cycles
LLC PAGE CROSSINGS (TLB HIT):         0 
LLC PAGE CROSSINGS (TLB MISS):         0 
LLC AVERAGE MISS LATENCY: 171.533 cycles

PageTableWalker TOTAL       ACCESS:     133212  
PageTableWalker AVERAGE LATENCY: 6.16886 cycles
PageTableWalker TOTAL LATENCY: 821765 cycles

DRAM Statistics
Channel 0
 RQ ROW_BUFFER_HIT:     603739
  ROW_BUFFER_MISS:    2062279
 AVG DBUS CONGESTED CYCLE:    3.65373
 WQ ROW_BUFFER_HIT:      66565
  ROW_BUFFER_MISS:      63124  FULL:          0

