last_page:0x200000000000000
VMEM_RES_CAP:0x100000
PAGE_SIZE:4096
LOG2_PAGE_SIZE:12
LOG2_PAGE_TABLE_SIZE:9
page_table_levels:5
WARNING: physical memory size is smaller than virtual memory size
FDiP enabled with aggresivity 16

*** ChampSim Multicore Out-of-Order Simulator ***

Warmup Instructions: 50000000
Simulation Instructions: 100000000
Number of CPUs: 1
Small page size: 4096
Large page size: 2097152

CPU 0 Bimodal branch predictor
Basic BTB sets: 1024 ways: 8 indirect buffer size: 4096 RAS size: 64
Instruction page size distrubution: 0
Loading instruction page size distribution from /home/bsc/bsc018186/scratch/itp_asplos25_AE/dump/smt_srv540_ap_srv224_ap_1024i.pdst
Data page size distrubution: 0
Loading data page size distribution from /home/bsc/bsc018186/scratch/itp_asplos25_AE/dump/smt_srv540_ap_srv224_ap_1024i.pdst
cpu0_L2C IP-based stride prefetcher
cpu0_L2C is using PTP replacement policy:
	TLB_STRESS_THRESHOLD:0
	PTE_EVICTION_RATIO:0
cpu0_L1D next line prefetcher
CHiRPing...
cpu0_L1I next line prefetcher
Off-chip DRAM Size: 4 GiB Channels: 1 Width: 64-bit Data Rate: 3200 MT/s
Heartbeat CPU 0 instructions: 10000003 cycles: 2500460 heartbeat IPC: 3.99927 cumulative IPC: 3.99927 (Simulation time: 0 hr 0 min 36 sec) 
Heartbeat CPU 0 instructions: 20000000 cycles: 5000804 heartbeat IPC: 3.99945 cumulative IPC: 3.99936 (Simulation time: 0 hr 1 min 14 sec) 
Heartbeat CPU 0 instructions: 30000001 cycles: 7501123 heartbeat IPC: 3.9995 cumulative IPC: 3.99941 (Simulation time: 0 hr 1 min 53 sec) 
Heartbeat CPU 0 instructions: 40000002 cycles: 10048582 heartbeat IPC: 3.92549 cumulative IPC: 3.98067 (Simulation time: 0 hr 2 min 32 sec) 
Heartbeat CPU 0 instructions: 50000003 cycles: 12608635 heartbeat IPC: 3.90617 cumulative IPC: 3.96554 (Simulation time: 0 hr 3 min 13 sec) 
Warmup finished CPU 0 instructions: 50000003 cycles: 12608636 cumulative IPC: 3.96554 (Simulation time: 0 hr 3 min 13 sec) 

Warmup complete CPU 0 instructions: 50000003 cycles: 12608636 (Simulation time: 0 hr 3 min 13 sec) 

Heartbeat CPU 0 instructions: 60000002 cycles: 29225853 heartbeat IPC: 0.601786 cumulative IPC: 0.601786 (Simulation time: 0 hr 4 min 19 sec) 
Heartbeat CPU 0 instructions: 70000003 cycles: 57547547 heartbeat IPC: 0.353087 cumulative IPC: 0.445049 (Simulation time: 0 hr 5 min 39 sec) 
Heartbeat CPU 0 instructions: 80000002 cycles: 85867820 heartbeat IPC: 0.353104 cumulative IPC: 0.409505 (Simulation time: 0 hr 6 min 58 sec) 
Heartbeat CPU 0 instructions: 90000000 cycles: 115514426 heartbeat IPC: 0.337307 cumulative IPC: 0.388706 (Simulation time: 0 hr 8 min 20 sec) 
Heartbeat CPU 0 instructions: 100000001 cycles: 145255171 heartbeat IPC: 0.33624 cumulative IPC: 0.376942 (Simulation time: 0 hr 9 min 42 sec) 
Heartbeat CPU 0 instructions: 110000001 cycles: 173584036 heartbeat IPC: 0.352997 cumulative IPC: 0.372728 (Simulation time: 0 hr 11 min 1 sec) 
Heartbeat CPU 0 instructions: 120000002 cycles: 202454825 heartbeat IPC: 0.346371 cumulative IPC: 0.36872 (Simulation time: 0 hr 12 min 22 sec) 
Heartbeat CPU 0 instructions: 130000003 cycles: 231826661 heartbeat IPC: 0.340463 cumulative IPC: 0.364934 (Simulation time: 0 hr 13 min 43 sec) 
Heartbeat CPU 0 instructions: 140000002 cycles: 261032166 heartbeat IPC: 0.342402 cumulative IPC: 0.362285 (Simulation time: 0 hr 15 min 5 sec) 
Heartbeat CPU 0 instructions: 150000001 cycles: 289161704 heartbeat IPC: 0.355499 cumulative IPC: 0.361595 (Simulation time: 0 hr 16 min 25 sec) 
Simulation finished CPU 0 instructions: 100000003 cycles: 276553070 cumulative IPC: 0.361595 (Simulation time: 0 hr 16 min 25 sec) 

Simulation complete CPU 0 instructions: 100000003 cycles: 276553070 (Simulation time: 0 hr 16 min 25 sec) 


ChampSim completed all CPUs

Saving instructions large page distribution to /home/bsc/bsc018186/scratch/itp_asplos25_AE/dump/smt_srv540_ap_srv224_ap_1024i.pdst...
Saving data large page distribution to /home/bsc/bsc018186/scratch/itp_asplos25_AE/dump/smt_srv540_ap_srv224_ap_1024i.pdst...
=== Simulation ===
CPU 0 runs /gpfs/projects/bsc18/MN4/bsc18/romol/ChampSim/traces/qualcomm_srv/smt_srv540_ap_srv224_ap_1024i.champsimtrace.xz

Region of Interest Statistics

CPU 0 cumulative IPC: 0.361595 instructions: 100000003 cycles: 276553070
CPU 0 Branch Prediction Accuracy: 76.9778% MPKI: 42.7248 Average ROB Occupancy at Mispredict: 11.608
Branch type MPKI
BRANCH_DIRECT_JUMP: 1.25324
BRANCH_INDIRECT: 22.4673
BRANCH_CONDITIONAL: 12.3144
BRANCH_DIRECT_CALL: 2.36653
BRANCH_INDIRECT_CALL: 1.00633
BRANCH_RETURN: 3.31707

Instructions large pages: 0
Instructions small pages: 13228
Large page distribution for instructions: 0%

Data large pages: 0
Data small pages: 11873
Large page distribution for data: 0%

cpu0_L1I TOTAL       ACCESS:   39547195  HIT:   31483090  MISS:    8064105  iACCESS:   39547195  iHIT:   31483090  iMISS:    8064105  dACCESS:          0  dHIT:          0  dMISS:          0  itACCESS:          0  itHIT:          0  itMISS:          0  dtACCESS:          0  dtHIT:          0  dtMISS:          0
cpu0_L1I LOAD         ACCESS:   11673278  HIT:    9475259  MISS:    2198019  iACCESS:   11673278  iHIT:    9475259  iMISS:    2198019  dACCESS:          0  dHIT:          0  dMISS:          0  itACCESS:          0  itHIT:          0  itMISS:          0  dtACCESS:          0  dtHIT:          0  dtMISS:          0
cpu0_L1I RFO          ACCESS:          0  HIT:          0  MISS:          0  iACCESS:          0  iHIT:          0  iMISS:          0  dACCESS:          0  dHIT:          0  dMISS:          0  itACCESS:          0  itHIT:          0  itMISS:          0  dtACCESS:          0  dtHIT:          0  dtMISS:          0
cpu0_L1I PREFETCH     ACCESS:   27873917  HIT:   22007831  MISS:    5866086  iACCESS:   27873917  iHIT:   22007831  iMISS:    5866086  dACCESS:          0  dHIT:          0  dMISS:          0  itACCESS:          0  itHIT:          0  itMISS:          0  dtACCESS:          0  dtHIT:          0  dtMISS:          0
cpu0_L1I WRITE        ACCESS:          0  HIT:          0  MISS:          0  iACCESS:          0  iHIT:          0  iMISS:          0  dACCESS:          0  dHIT:          0  dMISS:          0  itACCESS:          0  itHIT:          0  itMISS:          0  dtACCESS:          0  dtHIT:          0  dtMISS:          0
cpu0_L1I TRANSLATION  ACCESS:          0  HIT:          0  MISS:          0  iACCESS:          0  iHIT:          0  iMISS:          0  dACCESS:          0  dHIT:          0  dMISS:          0  itACCESS:          0  itHIT:          0  itMISS:          0  dtACCESS:          0  dtHIT:          0  dtMISS:          0
cpu0_L1I PREFETCH  REQUESTED:   30720657  ISSUED:   30720629  CROSSED:          0  USEFUL:    2051940  USELESS:     698981
cpu0_L1I AVERAGE iMISS LATENCY: 23.1716 cycles
cpu0_L1I AVERAGE dMISS LATENCY: 0 cycles
cpu0_L1I AVERAGE itMISS LATENCY: 0 cycles
cpu0_L1I AVERAGE dtMISS LATENCY: 0 cycles
cpu0_L1I PAGE CROSSINGS (TLB HIT):         0 
cpu0_L1I PAGE CROSSINGS (TLB MISS):         0 
cpu0_L1I AVERAGE MISS LATENCY: 23.1716 cycles
cpu0_ITLB TOTAL       ACCESS:   33258754  HIT:   31204413  MISS:    2054341  iACCESS:   33258754  iHIT:   31204413  iMISS:    2054341  dACCESS:          0  dHIT:          0  dMISS:          0  itACCESS:          0  itHIT:          0  itMISS:          0  dtACCESS:          0  dtHIT:          0  dtMISS:          0
cpu0_ITLB LOAD         ACCESS:   33258754  HIT:   31204413  MISS:    2054341  iACCESS:   33258754  iHIT:   31204413  iMISS:    2054341  dACCESS:          0  dHIT:          0  dMISS:          0  itACCESS:          0  itHIT:          0  itMISS:          0  dtACCESS:          0  dtHIT:          0  dtMISS:          0
cpu0_ITLB RFO          ACCESS:          0  HIT:          0  MISS:          0  iACCESS:          0  iHIT:          0  iMISS:          0  dACCESS:          0  dHIT:          0  dMISS:          0  itACCESS:          0  itHIT:          0  itMISS:          0  dtACCESS:          0  dtHIT:          0  dtMISS:          0
cpu0_ITLB PREFETCH     ACCESS:          0  HIT:          0  MISS:          0  iACCESS:          0  iHIT:          0  iMISS:          0  dACCESS:          0  dHIT:          0  dMISS:          0  itACCESS:          0  itHIT:          0  itMISS:          0  dtACCESS:          0  dtHIT:          0  dtMISS:          0
cpu0_ITLB WRITE        ACCESS:          0  HIT:          0  MISS:          0  iACCESS:          0  iHIT:          0  iMISS:          0  dACCESS:          0  dHIT:          0  dMISS:          0  itACCESS:          0  itHIT:          0  itMISS:          0  dtACCESS:          0  dtHIT:          0  dtMISS:          0
cpu0_ITLB TRANSLATION  ACCESS:          0  HIT:          0  MISS:          0  iACCESS:          0  iHIT:          0  iMISS:          0  dACCESS:          0  dHIT:          0  dMISS:          0  itACCESS:          0  itHIT:          0  itMISS:          0  dtACCESS:          0  dtHIT:          0  dtMISS:          0
cpu0_ITLB PREFETCH  REQUESTED:          0  ISSUED:          0  CROSSED:          0  USEFUL:     356668  USELESS:      74022
cpu0_ITLB AVERAGE iMISS LATENCY: 10.0233 cycles
cpu0_ITLB AVERAGE dMISS LATENCY: 0 cycles
cpu0_ITLB AVERAGE itMISS LATENCY: 0 cycles
cpu0_ITLB AVERAGE dtMISS LATENCY: 0 cycles
cpu0_ITLB PAGE CROSSINGS (TLB HIT):         0 
cpu0_ITLB PAGE CROSSINGS (TLB MISS):         0 
cpu0_ITLB AVERAGE MISS LATENCY: 10.0233 cycles
cpu0_DTLB TOTAL       ACCESS:   29633208  HIT:   24879339  MISS:    4753869  iACCESS:          0  iHIT:          0  iMISS:          0  dACCESS:   29633208  dHIT:   24879339  dMISS:    4753869  itACCESS:          0  itHIT:          0  itMISS:          0  dtACCESS:          0  dtHIT:          0  dtMISS:          0
cpu0_DTLB LOAD         ACCESS:   29633208  HIT:   24879339  MISS:    4753869  iACCESS:          0  iHIT:          0  iMISS:          0  dACCESS:   29633208  dHIT:   24879339  dMISS:    4753869  itACCESS:          0  itHIT:          0  itMISS:          0  dtACCESS:          0  dtHIT:          0  dtMISS:          0
cpu0_DTLB RFO          ACCESS:          0  HIT:          0  MISS:          0  iACCESS:          0  iHIT:          0  iMISS:          0  dACCESS:          0  dHIT:          0  dMISS:          0  itACCESS:          0  itHIT:          0  itMISS:          0  dtACCESS:          0  dtHIT:          0  dtMISS:          0
cpu0_DTLB PREFETCH     ACCESS:          0  HIT:          0  MISS:          0  iACCESS:          0  iHIT:          0  iMISS:          0  dACCESS:          0  dHIT:          0  dMISS:          0  itACCESS:          0  itHIT:          0  itMISS:          0  dtACCESS:          0  dtHIT:          0  dtMISS:          0
cpu0_DTLB WRITE        ACCESS:          0  HIT:          0  MISS:          0  iACCESS:          0  iHIT:          0  iMISS:          0  dACCESS:          0  dHIT:          0  dMISS:          0  itACCESS:          0  itHIT:          0  itMISS:          0  dtACCESS:          0  dtHIT:          0  dtMISS:          0
cpu0_DTLB TRANSLATION  ACCESS:          0  HIT:          0  MISS:          0  iACCESS:          0  iHIT:          0  iMISS:          0  dACCESS:          0  dHIT:          0  dMISS:          0  itACCESS:          0  itHIT:          0  itMISS:          0  dtACCESS:          0  dtHIT:          0  dtMISS:          0
cpu0_DTLB PREFETCH  REQUESTED:          0  ISSUED:          0  CROSSED:          0  USEFUL:          0  USELESS:          0
cpu0_DTLB AVERAGE iMISS LATENCY: 0 cycles
cpu0_DTLB AVERAGE dMISS LATENCY: 18.1945 cycles
cpu0_DTLB AVERAGE itMISS LATENCY: 0 cycles
cpu0_DTLB AVERAGE dtMISS LATENCY: 0 cycles
cpu0_DTLB PAGE CROSSINGS (TLB HIT):         0 
cpu0_DTLB PAGE CROSSINGS (TLB MISS):         0 
cpu0_DTLB AVERAGE MISS LATENCY: 18.1945 cycles
cpu0_STLB TOTAL       ACCESS:    3033133  HIT:    2690780  MISS:     342353  iACCESS:     430698  iHIT:     327443  iMISS:     103255  dACCESS:    2602435  dHIT:    2363337  dMISS:     239098  itACCESS:          0  itHIT:          0  itMISS:          0  dtACCESS:          0  dtHIT:          0  dtMISS:          0
cpu0_STLB LOAD         ACCESS:    3033133  HIT:    2690780  MISS:     342353  iACCESS:     430698  iHIT:     327443  iMISS:     103255  dACCESS:    2602435  dHIT:    2363337  dMISS:     239098  itACCESS:          0  itHIT:          0  itMISS:          0  dtACCESS:          0  dtHIT:          0  dtMISS:          0
cpu0_STLB RFO          ACCESS:          0  HIT:          0  MISS:          0  iACCESS:          0  iHIT:          0  iMISS:          0  dACCESS:          0  dHIT:          0  dMISS:          0  itACCESS:          0  itHIT:          0  itMISS:          0  dtACCESS:          0  dtHIT:          0  dtMISS:          0
cpu0_STLB PREFETCH     ACCESS:          0  HIT:          0  MISS:          0  iACCESS:          0  iHIT:          0  iMISS:          0  dACCESS:          0  dHIT:          0  dMISS:          0  itACCESS:          0  itHIT:          0  itMISS:          0  dtACCESS:          0  dtHIT:          0  dtMISS:          0
cpu0_STLB WRITE        ACCESS:          0  HIT:          0  MISS:          0  iACCESS:          0  iHIT:          0  iMISS:          0  dACCESS:          0  dHIT:          0  dMISS:          0  itACCESS:          0  itHIT:          0  itMISS:          0  dtACCESS:          0  dtHIT:          0  dtMISS:          0
cpu0_STLB TRANSLATION  ACCESS:          0  HIT:          0  MISS:          0  iACCESS:          0  iHIT:          0  iMISS:          0  dACCESS:          0  dHIT:          0  dMISS:          0  itACCESS:          0  itHIT:          0  itMISS:          0  dtACCESS:          0  dtHIT:          0  dtMISS:          0
cpu0_STLB PREFETCH  REQUESTED:          0  ISSUED:          0  CROSSED:          0  USEFUL:          0  USELESS:          0
cpu0_STLB AVERAGE iMISS LATENCY: 50.0857 cycles
cpu0_STLB AVERAGE dMISS LATENCY: 191.301 cycles
cpu0_STLB AVERAGE itMISS LATENCY: 0 cycles
cpu0_STLB AVERAGE dtMISS LATENCY: 0 cycles
cpu0_STLB PAGE CROSSINGS (TLB HIT):         0 
cpu0_STLB PAGE CROSSINGS (TLB MISS):         0 
cpu0_STLB AVERAGE MISS LATENCY: 241.387 cycles
cpu0_L1D TOTAL       ACCESS:   45504204  HIT:   39294871  MISS:    6209333  iACCESS:          0  iHIT:          0  iMISS:          0  dACCESS:   45008991  dHIT:   39264095  dMISS:    5744896  itACCESS:     115510  itHIT:      12289  itMISS:     103221  dtACCESS:     379703  dtHIT:      18487  dtMISS:     361216
cpu0_L1D LOAD         ACCESS:   21063244  HIT:   18137564  MISS:    2925680  iACCESS:          0  iHIT:          0  iMISS:          0  dACCESS:   21063244  dHIT:   18137564  dMISS:    2925680  itACCESS:          0  itHIT:          0  itMISS:          0  dtACCESS:          0  dtHIT:          0  dtMISS:          0
cpu0_L1D RFO          ACCESS:          0  HIT:          0  MISS:          0  iACCESS:          0  iHIT:          0  iMISS:          0  dACCESS:          0  dHIT:          0  dMISS:          0  itACCESS:          0  itHIT:          0  itMISS:          0  dtACCESS:          0  dtHIT:          0  dtMISS:          0
cpu0_L1D PREFETCH     ACCESS:   13925575  HIT:   11646129  MISS:    2279446  iACCESS:          0  iHIT:          0  iMISS:          0  dACCESS:   13925575  dHIT:   11646129  dMISS:    2279446  itACCESS:          0  itHIT:          0  itMISS:          0  dtACCESS:          0  dtHIT:          0  dtMISS:          0
cpu0_L1D WRITE        ACCESS:   10020172  HIT:    9480402  MISS:     539770  iACCESS:          0  iHIT:          0  iMISS:          0  dACCESS:   10020172  dHIT:    9480402  dMISS:     539770  itACCESS:          0  itHIT:          0  itMISS:          0  dtACCESS:          0  dtHIT:          0  dtMISS:          0
cpu0_L1D TRANSLATION  ACCESS:     495213  HIT:      30776  MISS:     464437  iACCESS:          0  iHIT:          0  iMISS:          0  dACCESS:          0  dHIT:          0  dMISS:          0  itACCESS:     115510  itHIT:      12289  itMISS:     103221  dtACCESS:     379703  dtHIT:      18487  dtMISS:     361216
cpu0_L1D PREFETCH  REQUESTED:   21063244  ISSUED:   18546532  CROSSED:          0  USEFUL:     339878  USELESS:    1019202
cpu0_L1D AVERAGE iMISS LATENCY: 0 cycles
cpu0_L1D AVERAGE dMISS LATENCY: 42.3454 cycles
cpu0_L1D AVERAGE itMISS LATENCY: 2.60607 cycles
cpu0_L1D AVERAGE dtMISS LATENCY: 9.7474 cycles
cpu0_L1D PAGE CROSSINGS (TLB HIT):         0 
cpu0_L1D PAGE CROSSINGS (TLB MISS):         0 
cpu0_L1D AVERAGE MISS LATENCY: 54.6989 cycles
cpu0_L2C TOTAL       ACCESS:    8948904  HIT:    4706244  MISS:    4242660  iACCESS:    3495316  iHIT:    2107453  iMISS:    1387863  dACCESS:    5009108  dHIT:    2538857  dMISS:    2470251  itACCESS:     102958  itHIT:      19575  itMISS:      83383  dtACCESS:     341522  dtHIT:      40359  dtMISS:     301163
cpu0_L2C LOAD         ACCESS:    2661297  HIT:    1577761  MISS:    1083536  iACCESS:     780427  iHIT:     487574  iMISS:     292853  dACCESS:    1880870  dHIT:    1090187  dMISS:     790683  itACCESS:          0  itHIT:          0  itMISS:          0  dtACCESS:          0  dtHIT:          0  dtMISS:          0
cpu0_L2C RFO          ACCESS:     216679  HIT:      92915  MISS:     123764  iACCESS:          0  iHIT:          0  iMISS:          0  dACCESS:     216679  dHIT:      92915  dMISS:     123764  itACCESS:          0  itHIT:          0  itMISS:          0  dtACCESS:          0  dtHIT:          0  dtMISS:          0
cpu0_L2C PREFETCH     ACCESS:    5292060  HIT:    2658049  MISS:    2634011  iACCESS:    2714889  iHIT:    1619879  iMISS:    1095010  dACCESS:    2577171  dHIT:    1038170  dMISS:    1539001  itACCESS:          0  itHIT:          0  itMISS:          0  dtACCESS:          0  dtHIT:          0  dtMISS:          0
cpu0_L2C WRITE        ACCESS:     334388  HIT:     317585  MISS:      16803  iACCESS:          0  iHIT:          0  iMISS:          0  dACCESS:     334388  dHIT:     317585  dMISS:      16803  itACCESS:          0  itHIT:          0  itMISS:          0  dtACCESS:          0  dtHIT:          0  dtMISS:          0
cpu0_L2C TRANSLATION  ACCESS:     444480  HIT:      59934  MISS:     384546  iACCESS:          0  iHIT:          0  iMISS:          0  dACCESS:          0  dHIT:          0  dMISS:          0  itACCESS:     102958  itHIT:      19575  itMISS:      83383  dtACCESS:     341522  dtHIT:      40359  dtMISS:     301163
cpu0_L2C PREFETCH  REQUESTED:    1439994  ISSUED:    1439979  CROSSED:          0  USEFUL:     337576  USELESS:     300836
cpu0_L2C AVERAGE iMISS LATENCY: 37.0638 cycles
cpu0_L2C AVERAGE dMISS LATENCY: 73.6408 cycles
cpu0_L2C AVERAGE itMISS LATENCY: 3.57539 cycles
cpu0_L2C AVERAGE dtMISS LATENCY: 13.4658 cycles
cpu0_L2C PAGE CROSSINGS (TLB HIT):         0 
cpu0_L2C PAGE CROSSINGS (TLB MISS):         0 
cpu0_L2C AVERAGE MISS LATENCY: 127.746 cycles
LLC TOTAL       ACCESS:    4229892  HIT:    1508452  MISS:    2721440  iACCESS:    1302819  iHIT:     462647  iMISS:     840172  dACCESS:    2542527  dHIT:    1004931  dMISS:    1537596  itACCESS:      83383  itHIT:       7260  itMISS:      76123  dtACCESS:     301163  dtHIT:      33614  dtMISS:     267549
LLC LOAD         ACCESS:    1078584  HIT:     456245  MISS:     622339  iACCESS:     291598  iHIT:     110943  iMISS:     180655  dACCESS:     786986  dHIT:     345302  dMISS:     441684  itACCESS:          0  itHIT:          0  itMISS:          0  dtACCESS:          0  dtHIT:          0  dtMISS:          0
LLC RFO          ACCESS:     123760  HIT:      43120  MISS:      80640  iACCESS:          0  iHIT:          0  iMISS:          0  dACCESS:     123760  dHIT:      43120  dMISS:      80640  itACCESS:          0  itHIT:          0  itMISS:          0  dtACCESS:          0  dtHIT:          0  dtMISS:          0
LLC PREFETCH     ACCESS:    2440847  HIT:     775871  MISS:    1664976  iACCESS:    1011221  iHIT:     351704  iMISS:     659517  dACCESS:    1429626  dHIT:     424167  dMISS:    1005459  itACCESS:          0  itHIT:          0  itMISS:          0  dtACCESS:          0  dtHIT:          0  dtMISS:          0
LLC WRITE        ACCESS:     202155  HIT:     192342  MISS:       9813  iACCESS:          0  iHIT:          0  iMISS:          0  dACCESS:     202155  dHIT:     192342  dMISS:       9813  itACCESS:          0  itHIT:          0  itMISS:          0  dtACCESS:          0  dtHIT:          0  dtMISS:          0
LLC TRANSLATION  ACCESS:     384546  HIT:      40874  MISS:     343672  iACCESS:          0  iHIT:          0  iMISS:          0  dACCESS:          0  dHIT:          0  dMISS:          0  itACCESS:      83383  itHIT:       7260  itMISS:      76123  dtACCESS:     301163  dtHIT:      33614  dtMISS:     267549
LLC PREFETCH  REQUESTED:          0  ISSUED:          0  CROSSED:          0  USEFUL:          0  USELESS:          0
LLC AVERAGE iMISS LATENCY: 48.3582 cycles
LLC AVERAGE dMISS LATENCY: 98.634 cycles
LLC AVERAGE itMISS LATENCY: 4.96638 cycles
LLC AVERAGE dtMISS LATENCY: 18.8055 cycles
LLC PAGE CROSSINGS (TLB HIT):         0 
LLC PAGE CROSSINGS (TLB MISS):         0 
LLC AVERAGE MISS LATENCY: 170.765 cycles

PageTableWalker TOTAL       ACCESS:     163979  
PageTableWalker AVERAGE LATENCY: 6.31549 cycles
PageTableWalker TOTAL LATENCY: 1035607 cycles

DRAM Statistics
Channel 0
 RQ ROW_BUFFER_HIT:     590373
  ROW_BUFFER_MISS:    2110548
 AVG DBUS CONGESTED CYCLE:    3.64955
 WQ ROW_BUFFER_HIT:      58352
  ROW_BUFFER_MISS:      49654  FULL:          0

