last_page:0x200000000000000
VMEM_RES_CAP:0x100000
PAGE_SIZE:4096
LOG2_PAGE_SIZE:12
LOG2_PAGE_TABLE_SIZE:9
page_table_levels:5
WARNING: physical memory size is smaller than virtual memory size
FDiP enabled with aggresivity 16

*** ChampSim Multicore Out-of-Order Simulator ***

Warmup Instructions: 50000000
Simulation Instructions: 100000000
Number of CPUs: 1
Small page size: 4096
Large page size: 2097152

CPU 0 Bimodal branch predictor
Basic BTB sets: 1024 ways: 8 indirect buffer size: 4096 RAS size: 64
Instruction page size distrubution: 0
Loading instruction page size distribution from /home/bsc/bsc018186/scratch/itp_asplos25_AE/dump/smt_srv540_ap_srv697_ap_1024i.pdst
Data page size distrubution: 0
Loading data page size distribution from /home/bsc/bsc018186/scratch/itp_asplos25_AE/dump/smt_srv540_ap_srv697_ap_1024i.pdst
cpu0_L2C IP-based stride prefetcher
cpu0_L2C is using xPTP/LRU
	TLB_LOWER_STRESS_THRESHOLD:1
	TLB_UPPER_STRESS_THRESHOLD:4
	MIN_EVICTION_POSITION:4
cpu0_L1D next line prefetcher
cpu0_STLB using iTP with max lru@8
cpu0_STLB using iTP with instr@0 and data@2
Init sat counter with 3 bits (max:50).
cpu0_L1I next line prefetcher
Off-chip DRAM Size: 4 GiB Channels: 1 Width: 64-bit Data Rate: 3200 MT/s
Heartbeat CPU 0 instructions: 10000002 cycles: 2500201 heartbeat IPC: 3.99968 cumulative IPC: 3.99968 (Simulation time: 0 hr 0 min 41 sec) 
Heartbeat CPU 0 instructions: 20000000 cycles: 5000275 heartbeat IPC: 3.99989 cumulative IPC: 3.99979 (Simulation time: 0 hr 1 min 24 sec) 
Heartbeat CPU 0 instructions: 30000001 cycles: 7500371 heartbeat IPC: 3.99985 cumulative IPC: 3.99981 (Simulation time: 0 hr 2 min 7 sec) 
Heartbeat CPU 0 instructions: 40000002 cycles: 10000439 heartbeat IPC: 3.9999 cumulative IPC: 3.99983 (Simulation time: 0 hr 2 min 50 sec) 
Heartbeat CPU 0 instructions: 50000003 cycles: 12500532 heartbeat IPC: 3.99986 cumulative IPC: 3.99984 (Simulation time: 0 hr 3 min 34 sec) 
Warmup finished CPU 0 instructions: 50000003 cycles: 12500533 cumulative IPC: 3.99983 (Simulation time: 0 hr 3 min 34 sec) 

Warmup complete CPU 0 instructions: 50000003 cycles: 12500533 (Simulation time: 0 hr 3 min 34 sec) 

Heartbeat CPU 0 instructions: 60000003 cycles: 38495129 heartbeat IPC: 0.384696 cumulative IPC: 0.384696 (Simulation time: 0 hr 4 min 57 sec) 
Heartbeat CPU 0 instructions: 70000002 cycles: 62865355 heartbeat IPC: 0.410337 cumulative IPC: 0.397103 (Simulation time: 0 hr 6 min 19 sec) 
Heartbeat CPU 0 instructions: 80000002 cycles: 88213311 heartbeat IPC: 0.39451 cumulative IPC: 0.396235 (Simulation time: 0 hr 7 min 41 sec) 
Heartbeat CPU 0 instructions: 90000000 cycles: 114350407 heartbeat IPC: 0.382598 cumulative IPC: 0.392735 (Simulation time: 0 hr 9 min 1 sec) 
Heartbeat CPU 0 instructions: 100000001 cycles: 140604163 heartbeat IPC: 0.380898 cumulative IPC: 0.390309 (Simulation time: 0 hr 10 min 20 sec) 
Heartbeat CPU 0 instructions: 110000002 cycles: 165400616 heartbeat IPC: 0.403284 cumulative IPC: 0.392414 (Simulation time: 0 hr 11 min 37 sec) 
Heartbeat CPU 0 instructions: 120000000 cycles: 191096033 heartbeat IPC: 0.389175 cumulative IPC: 0.391948 (Simulation time: 0 hr 12 min 56 sec) 
Heartbeat CPU 0 instructions: 130000004 cycles: 216774582 heartbeat IPC: 0.389431 cumulative IPC: 0.391631 (Simulation time: 0 hr 14 min 14 sec) 
Heartbeat CPU 0 instructions: 140000000 cycles: 241534419 heartbeat IPC: 0.40388 cumulative IPC: 0.392955 (Simulation time: 0 hr 15 min 31 sec) 
Heartbeat CPU 0 instructions: 150000001 cycles: 266631045 heartbeat IPC: 0.39846 cumulative IPC: 0.393499 (Simulation time: 0 hr 16 min 49 sec) 
Simulation finished CPU 0 instructions: 100000003 cycles: 254130514 cumulative IPC: 0.393499 (Simulation time: 0 hr 16 min 49 sec) 

Simulation complete CPU 0 instructions: 100000003 cycles: 254130514 (Simulation time: 0 hr 16 min 49 sec) 


ChampSim completed all CPUs

Saving instructions large page distribution to /home/bsc/bsc018186/scratch/itp_asplos25_AE/dump/smt_srv540_ap_srv697_ap_1024i.pdst...
Saving data large page distribution to /home/bsc/bsc018186/scratch/itp_asplos25_AE/dump/smt_srv540_ap_srv697_ap_1024i.pdst...
=== Simulation ===
CPU 0 runs /gpfs/projects/bsc18/MN4/bsc18/romol/ChampSim/traces/qualcomm_srv/smt_srv540_ap_srv697_ap_1024i.champsimtrace.xz

Region of Interest Statistics

CPU 0 cumulative IPC: 0.393499 instructions: 100000003 cycles: 254130514
CPU 0 Branch Prediction Accuracy: 76.0837% MPKI: 43.0053 Average ROB Occupancy at Mispredict: 11.3176
Branch type MPKI
BRANCH_DIRECT_JUMP: 1.28818
BRANCH_INDIRECT: 22.3946
BRANCH_CONDITIONAL: 12.4928
BRANCH_DIRECT_CALL: 2.47657
BRANCH_INDIRECT_CALL: 0.92706
BRANCH_RETURN: 3.42608

Instructions large pages: 0
Instructions small pages: 12891
Large page distribution for instructions: 0%

Data large pages: 0
Data small pages: 11667
Large page distribution for data: 0%

cpu0_L1I TOTAL       ACCESS:   39048727  HIT:   30207516  MISS:    8841211  iACCESS:   39048727  iHIT:   30207516  iMISS:    8841211  dACCESS:          0  dHIT:          0  dMISS:          0  itACCESS:          0  itHIT:          0  itMISS:          0  dtACCESS:          0  dtHIT:          0  dtMISS:          0
cpu0_L1I LOAD         ACCESS:   11720141  HIT:    9311921  MISS:    2408220  iACCESS:   11720141  iHIT:    9311921  iMISS:    2408220  dACCESS:          0  dHIT:          0  dMISS:          0  itACCESS:          0  itHIT:          0  itMISS:          0  dtACCESS:          0  dtHIT:          0  dtMISS:          0
cpu0_L1I RFO          ACCESS:          0  HIT:          0  MISS:          0  iACCESS:          0  iHIT:          0  iMISS:          0  dACCESS:          0  dHIT:          0  dMISS:          0  itACCESS:          0  itHIT:          0  itMISS:          0  dtACCESS:          0  dtHIT:          0  dtMISS:          0
cpu0_L1I PREFETCH     ACCESS:   27328586  HIT:   20895595  MISS:    6432991  iACCESS:   27328586  iHIT:   20895595  iMISS:    6432991  dACCESS:          0  dHIT:          0  dMISS:          0  itACCESS:          0  itHIT:          0  itMISS:          0  dtACCESS:          0  dtHIT:          0  dtMISS:          0
cpu0_L1I WRITE        ACCESS:          0  HIT:          0  MISS:          0  iACCESS:          0  iHIT:          0  iMISS:          0  dACCESS:          0  dHIT:          0  dMISS:          0  itACCESS:          0  itHIT:          0  itMISS:          0  dtACCESS:          0  dtHIT:          0  dtMISS:          0
cpu0_L1I TRANSLATION  ACCESS:          0  HIT:          0  MISS:          0  iACCESS:          0  iHIT:          0  iMISS:          0  dACCESS:          0  dHIT:          0  dMISS:          0  itACCESS:          0  itHIT:          0  itMISS:          0  dtACCESS:          0  dtHIT:          0  dtMISS:          0
cpu0_L1I PREFETCH  REQUESTED:   30106251  ISSUED:   30105981  CROSSED:          0  USEFUL:    2185553  USELESS:     744684
cpu0_L1I AVERAGE iMISS LATENCY: 21.3811 cycles
cpu0_L1I AVERAGE dMISS LATENCY: 0 cycles
cpu0_L1I AVERAGE itMISS LATENCY: 0 cycles
cpu0_L1I AVERAGE dtMISS LATENCY: 0 cycles
cpu0_L1I PAGE CROSSINGS (TLB HIT):         0 
cpu0_L1I PAGE CROSSINGS (TLB MISS):         0 
cpu0_L1I AVERAGE MISS LATENCY: 21.3811 cycles
cpu0_ITLB TOTAL       ACCESS:   32875746  HIT:   30709978  MISS:    2165768  iACCESS:   32875746  iHIT:   30709978  iMISS:    2165768  dACCESS:          0  dHIT:          0  dMISS:          0  itACCESS:          0  itHIT:          0  itMISS:          0  dtACCESS:          0  dtHIT:          0  dtMISS:          0
cpu0_ITLB LOAD         ACCESS:   32875746  HIT:   30709978  MISS:    2165768  iACCESS:   32875746  iHIT:   30709978  iMISS:    2165768  dACCESS:          0  dHIT:          0  dMISS:          0  itACCESS:          0  itHIT:          0  itMISS:          0  dtACCESS:          0  dtHIT:          0  dtMISS:          0
cpu0_ITLB RFO          ACCESS:          0  HIT:          0  MISS:          0  iACCESS:          0  iHIT:          0  iMISS:          0  dACCESS:          0  dHIT:          0  dMISS:          0  itACCESS:          0  itHIT:          0  itMISS:          0  dtACCESS:          0  dtHIT:          0  dtMISS:          0
cpu0_ITLB PREFETCH     ACCESS:          0  HIT:          0  MISS:          0  iACCESS:          0  iHIT:          0  iMISS:          0  dACCESS:          0  dHIT:          0  dMISS:          0  itACCESS:          0  itHIT:          0  itMISS:          0  dtACCESS:          0  dtHIT:          0  dtMISS:          0
cpu0_ITLB WRITE        ACCESS:          0  HIT:          0  MISS:          0  iACCESS:          0  iHIT:          0  iMISS:          0  dACCESS:          0  dHIT:          0  dMISS:          0  itACCESS:          0  itHIT:          0  itMISS:          0  dtACCESS:          0  dtHIT:          0  dtMISS:          0
cpu0_ITLB TRANSLATION  ACCESS:          0  HIT:          0  MISS:          0  iACCESS:          0  iHIT:          0  iMISS:          0  dACCESS:          0  dHIT:          0  dMISS:          0  itACCESS:          0  itHIT:          0  itMISS:          0  dtACCESS:          0  dtHIT:          0  dtMISS:          0
cpu0_ITLB PREFETCH  REQUESTED:          0  ISSUED:          0  CROSSED:          0  USEFUL:     379233  USELESS:      75971
cpu0_ITLB AVERAGE iMISS LATENCY: 5.29804 cycles
cpu0_ITLB AVERAGE dMISS LATENCY: 0 cycles
cpu0_ITLB AVERAGE itMISS LATENCY: 0 cycles
cpu0_ITLB AVERAGE dtMISS LATENCY: 0 cycles
cpu0_ITLB PAGE CROSSINGS (TLB HIT):         0 
cpu0_ITLB PAGE CROSSINGS (TLB MISS):         0 
cpu0_ITLB AVERAGE MISS LATENCY: 5.29804 cycles
cpu0_DTLB TOTAL       ACCESS:   28749491  HIT:   25027118  MISS:    3722373  iACCESS:          0  iHIT:          0  iMISS:          0  dACCESS:   28749491  dHIT:   25027118  dMISS:    3722373  itACCESS:          0  itHIT:          0  itMISS:          0  dtACCESS:          0  dtHIT:          0  dtMISS:          0
cpu0_DTLB LOAD         ACCESS:   28749491  HIT:   25027118  MISS:    3722373  iACCESS:          0  iHIT:          0  iMISS:          0  dACCESS:   28749491  dHIT:   25027118  dMISS:    3722373  itACCESS:          0  itHIT:          0  itMISS:          0  dtACCESS:          0  dtHIT:          0  dtMISS:          0
cpu0_DTLB RFO          ACCESS:          0  HIT:          0  MISS:          0  iACCESS:          0  iHIT:          0  iMISS:          0  dACCESS:          0  dHIT:          0  dMISS:          0  itACCESS:          0  itHIT:          0  itMISS:          0  dtACCESS:          0  dtHIT:          0  dtMISS:          0
cpu0_DTLB PREFETCH     ACCESS:          0  HIT:          0  MISS:          0  iACCESS:          0  iHIT:          0  iMISS:          0  dACCESS:          0  dHIT:          0  dMISS:          0  itACCESS:          0  itHIT:          0  itMISS:          0  dtACCESS:          0  dtHIT:          0  dtMISS:          0
cpu0_DTLB WRITE        ACCESS:          0  HIT:          0  MISS:          0  iACCESS:          0  iHIT:          0  iMISS:          0  dACCESS:          0  dHIT:          0  dMISS:          0  itACCESS:          0  itHIT:          0  itMISS:          0  dtACCESS:          0  dtHIT:          0  dtMISS:          0
cpu0_DTLB TRANSLATION  ACCESS:          0  HIT:          0  MISS:          0  iACCESS:          0  iHIT:          0  iMISS:          0  dACCESS:          0  dHIT:          0  dMISS:          0  itACCESS:          0  itHIT:          0  itMISS:          0  dtACCESS:          0  dtHIT:          0  dtMISS:          0
cpu0_DTLB PREFETCH  REQUESTED:          0  ISSUED:          0  CROSSED:          0  USEFUL:          0  USELESS:          0
cpu0_DTLB AVERAGE iMISS LATENCY: 0 cycles
cpu0_DTLB AVERAGE dMISS LATENCY: 17.4944 cycles
cpu0_DTLB AVERAGE itMISS LATENCY: 0 cycles
cpu0_DTLB AVERAGE dtMISS LATENCY: 0 cycles
cpu0_DTLB PAGE CROSSINGS (TLB HIT):         0 
cpu0_DTLB PAGE CROSSINGS (TLB MISS):         0 
cpu0_DTLB AVERAGE MISS LATENCY: 17.4944 cycles
cpu0_STLB TOTAL       ACCESS:    2598611  HIT:    2243850  MISS:     354761  iACCESS:     455207  iHIT:     405472  iMISS:      49735  dACCESS:    2143404  dHIT:    1838378  dMISS:     305026  itACCESS:          0  itHIT:          0  itMISS:          0  dtACCESS:          0  dtHIT:          0  dtMISS:          0
cpu0_STLB LOAD         ACCESS:    2598611  HIT:    2243850  MISS:     354761  iACCESS:     455207  iHIT:     405472  iMISS:      49735  dACCESS:    2143404  dHIT:    1838378  dMISS:     305026  itACCESS:          0  itHIT:          0  itMISS:          0  dtACCESS:          0  dtHIT:          0  dtMISS:          0
cpu0_STLB RFO          ACCESS:          0  HIT:          0  MISS:          0  iACCESS:          0  iHIT:          0  iMISS:          0  dACCESS:          0  dHIT:          0  dMISS:          0  itACCESS:          0  itHIT:          0  itMISS:          0  dtACCESS:          0  dtHIT:          0  dtMISS:          0
cpu0_STLB PREFETCH     ACCESS:          0  HIT:          0  MISS:          0  iACCESS:          0  iHIT:          0  iMISS:          0  dACCESS:          0  dHIT:          0  dMISS:          0  itACCESS:          0  itHIT:          0  itMISS:          0  dtACCESS:          0  dtHIT:          0  dtMISS:          0
cpu0_STLB WRITE        ACCESS:          0  HIT:          0  MISS:          0  iACCESS:          0  iHIT:          0  iMISS:          0  dACCESS:          0  dHIT:          0  dMISS:          0  itACCESS:          0  itHIT:          0  itMISS:          0  dtACCESS:          0  dtHIT:          0  dtMISS:          0
cpu0_STLB TRANSLATION  ACCESS:          0  HIT:          0  MISS:          0  iACCESS:          0  iHIT:          0  iMISS:          0  dACCESS:          0  dHIT:          0  dMISS:          0  itACCESS:          0  itHIT:          0  itMISS:          0  dtACCESS:          0  dtHIT:          0  dtMISS:          0
cpu0_STLB PREFETCH  REQUESTED:          0  ISSUED:          0  CROSSED:          0  USEFUL:          0  USELESS:          0
cpu0_STLB AVERAGE iMISS LATENCY: 22.2782 cycles
cpu0_STLB AVERAGE dMISS LATENCY: 134.868 cycles
cpu0_STLB AVERAGE itMISS LATENCY: 0 cycles
cpu0_STLB AVERAGE dtMISS LATENCY: 0 cycles
cpu0_STLB PAGE CROSSINGS (TLB HIT):         0 
cpu0_STLB PAGE CROSSINGS (TLB MISS):         0 
cpu0_STLB AVERAGE MISS LATENCY: 157.146 cycles
cpu0_L1D TOTAL       ACCESS:   44230717  HIT:   38927314  MISS:    5303403  iACCESS:          0  iHIT:          0  iMISS:          0  dACCESS:   43684782  dHIT:   38897673  dMISS:    4787109  itACCESS:      59508  itHIT:       5030  itMISS:      54478  dtACCESS:     486427  dtHIT:      24611  dtMISS:     461816
cpu0_L1D LOAD         ACCESS:   19957259  HIT:   17821801  MISS:    2135458  iACCESS:          0  iHIT:          0  iMISS:          0  dACCESS:   19957259  dHIT:   17821801  dMISS:    2135458  itACCESS:          0  itHIT:          0  itMISS:          0  dtACCESS:          0  dtHIT:          0  dtMISS:          0
cpu0_L1D RFO          ACCESS:          0  HIT:          0  MISS:          0  iACCESS:          0  iHIT:          0  iMISS:          0  dACCESS:          0  dHIT:          0  dMISS:          0  itACCESS:          0  itHIT:          0  itMISS:          0  dtACCESS:          0  dtHIT:          0  dtMISS:          0
cpu0_L1D PREFETCH     ACCESS:   13593799  HIT:   11493190  MISS:    2100609  iACCESS:          0  iHIT:          0  iMISS:          0  dACCESS:   13593799  dHIT:   11493190  dMISS:    2100609  itACCESS:          0  itHIT:          0  itMISS:          0  dtACCESS:          0  dtHIT:          0  dtMISS:          0
cpu0_L1D WRITE        ACCESS:   10133724  HIT:    9582682  MISS:     551042  iACCESS:          0  iHIT:          0  iMISS:          0  dACCESS:   10133724  dHIT:    9582682  dMISS:     551042  itACCESS:          0  itHIT:          0  itMISS:          0  dtACCESS:          0  dtHIT:          0  dtMISS:          0
cpu0_L1D TRANSLATION  ACCESS:     545935  HIT:      29641  MISS:     516294  iACCESS:          0  iHIT:          0  iMISS:          0  dACCESS:          0  dHIT:          0  dMISS:          0  itACCESS:      59508  itHIT:       5030  itMISS:      54478  dtACCESS:     486427  dtHIT:      24611  dtMISS:     461816
cpu0_L1D PREFETCH  REQUESTED:   19957259  ISSUED:   18287458  CROSSED:          0  USEFUL:     358575  USELESS:     919720
cpu0_L1D AVERAGE iMISS LATENCY: 0 cycles
cpu0_L1D AVERAGE dMISS LATENCY: 48.473 cycles
cpu0_L1D AVERAGE itMISS LATENCY: 1.39635 cycles
cpu0_L1D AVERAGE dtMISS LATENCY: 7.98156 cycles
cpu0_L1D PAGE CROSSINGS (TLB HIT):         0 
cpu0_L1D PAGE CROSSINGS (TLB MISS):         0 
cpu0_L1D AVERAGE MISS LATENCY: 57.8509 cycles
cpu0_L2C TOTAL       ACCESS:    8494620  HIT:    2548032  MISS:    5946588  iACCESS:    3721563  iHIT:    1436803  iMISS:    2284760  dACCESS:    4282405  dHIT:     881537  dMISS:    3400868  itACCESS:      53982  itHIT:      13334  itMISS:      40648  dtACCESS:     436670  dtHIT:     216358  dtMISS:     220312
cpu0_L2C LOAD         ACCESS:    2009345  HIT:     491477  MISS:    1517868  iACCESS:     828999  iHIT:     288776  iMISS:     540223  dACCESS:    1180346  dHIT:     202701  dMISS:     977645  itACCESS:          0  itHIT:          0  itMISS:          0  dtACCESS:          0  dtHIT:          0  dtMISS:          0
cpu0_L2C RFO          ACCESS:     212798  HIT:      33454  MISS:     179344  iACCESS:          0  iHIT:          0  iMISS:          0  dACCESS:     212798  dHIT:      33454  dMISS:     179344  itACCESS:          0  itHIT:          0  itMISS:          0  dtACCESS:          0  dtHIT:          0  dtMISS:          0
cpu0_L2C PREFETCH     ACCESS:    5436771  HIT:    1665758  MISS:    3771013  iACCESS:    2892564  iHIT:    1148027  iMISS:    1744537  dACCESS:    2544207  dHIT:     517731  dMISS:    2026476  itACCESS:          0  itHIT:          0  itMISS:          0  dtACCESS:          0  dtHIT:          0  dtMISS:          0
cpu0_L2C WRITE        ACCESS:     345054  HIT:     127651  MISS:     217403  iACCESS:          0  iHIT:          0  iMISS:          0  dACCESS:     345054  dHIT:     127651  dMISS:     217403  itACCESS:          0  itHIT:          0  itMISS:          0  dtACCESS:          0  dtHIT:          0  dtMISS:          0
cpu0_L2C TRANSLATION  ACCESS:     490652  HIT:     229692  MISS:     260960  iACCESS:          0  iHIT:          0  iMISS:          0  dACCESS:          0  dHIT:          0  dMISS:          0  itACCESS:      53982  itHIT:      13334  itMISS:      40648  dtACCESS:     436670  dtHIT:     216358  dtMISS:     220312
cpu0_L2C PREFETCH  REQUESTED:    1512242  ISSUED:    1512235  CROSSED:          0  USEFUL:     381505  USELESS:     431633
cpu0_L2C AVERAGE iMISS LATENCY: 26.391 cycles
cpu0_L2C AVERAGE dMISS LATENCY: 52.7986 cycles
cpu0_L2C AVERAGE itMISS LATENCY: 1.15657 cycles
cpu0_L2C AVERAGE dtMISS LATENCY: 6.41692 cycles
cpu0_L2C PAGE CROSSINGS (TLB HIT):         0 
cpu0_L2C PAGE CROSSINGS (TLB MISS):         0 
cpu0_L2C AVERAGE MISS LATENCY: 86.7631 cycles
LLC TOTAL       ACCESS:    5802601  HIT:    3423162  MISS:    2379439  iACCESS:    2196540  iHIT:    1474100  iMISS:     722440  dACCESS:    3345101  dHIT:    1902750  dMISS:    1442351  itACCESS:      40648  itHIT:       6820  itMISS:      33828  dtACCESS:     220312  dtHIT:      39492  dtMISS:     180820
LLC LOAD         ACCESS:    1512631  HIT:     947344  MISS:     565287  iACCESS:     538959  iHIT:     388697  iMISS:     150262  dACCESS:     973672  dHIT:     558647  dMISS:     415025  itACCESS:          0  itHIT:          0  itMISS:          0  dtACCESS:          0  dtHIT:          0  dtMISS:          0
LLC RFO          ACCESS:     179316  HIT:      96149  MISS:      83167  iACCESS:          0  iHIT:          0  iMISS:          0  dACCESS:     179316  dHIT:      96149  dMISS:      83167  itACCESS:          0  itHIT:          0  itMISS:          0  dtACCESS:          0  dtHIT:          0  dtMISS:          0
LLC PREFETCH     ACCESS:    3573510  HIT:    2061641  MISS:    1511869  iACCESS:    1657581  iHIT:    1085403  iMISS:     572178  dACCESS:    1915929  dHIT:     976238  dMISS:     939691  itACCESS:          0  itHIT:          0  itMISS:          0  dtACCESS:          0  dtHIT:          0  dtMISS:          0
LLC WRITE        ACCESS:     276184  HIT:     271716  MISS:       4468  iACCESS:          0  iHIT:          0  iMISS:          0  dACCESS:     276184  dHIT:     271716  dMISS:       4468  itACCESS:          0  itHIT:          0  itMISS:          0  dtACCESS:          0  dtHIT:          0  dtMISS:          0
LLC TRANSLATION  ACCESS:     260960  HIT:      46312  MISS:     214648  iACCESS:          0  iHIT:          0  iMISS:          0  dACCESS:          0  dHIT:          0  dMISS:          0  itACCESS:      40648  itHIT:       6820  itMISS:      33828  dtACCESS:     220312  dtHIT:      39492  dtMISS:     180820
LLC PREFETCH  REQUESTED:          0  ISSUED:          0  CROSSED:          0  USEFUL:          0  USELESS:          0
LLC AVERAGE iMISS LATENCY: 48.0172 cycles
LLC AVERAGE dMISS LATENCY: 107.849 cycles
LLC AVERAGE itMISS LATENCY: 2.55302 cycles
LLC AVERAGE dtMISS LATENCY: 14.2083 cycles
LLC PAGE CROSSINGS (TLB HIT):         0 
LLC PAGE CROSSINGS (TLB MISS):         0 
LLC AVERAGE MISS LATENCY: 172.628 cycles

PageTableWalker TOTAL       ACCESS:     176030  
PageTableWalker AVERAGE LATENCY: 5.89487 cycles
PageTableWalker TOTAL LATENCY: 1037673 cycles

DRAM Statistics
Channel 0
 RQ ROW_BUFFER_HIT:     520865
  ROW_BUFFER_MISS:    1842880
 AVG DBUS CONGESTED CYCLE:    3.65274
 WQ ROW_BUFFER_HIT:      60719
  ROW_BUFFER_MISS:      61419  FULL:          0

