last_page:0x200000000000000
VMEM_RES_CAP:0x100000
PAGE_SIZE:4096
LOG2_PAGE_SIZE:12
LOG2_PAGE_TABLE_SIZE:9
page_table_levels:5
WARNING: physical memory size is smaller than virtual memory size
FDiP enabled with aggresivity 16

*** ChampSim Multicore Out-of-Order Simulator ***

Warmup Instructions: 50000000
Simulation Instructions: 100000000
Number of CPUs: 1
Small page size: 4096
Large page size: 2097152

CPU 0 Bimodal branch predictor
Basic BTB sets: 1024 ways: 8 indirect buffer size: 4096 RAS size: 64
Instruction page size distrubution: 0
Loading instruction page size distribution from /home/bsc/bsc018186/scratch/itp_asplos25_AE/dump/smt_srv537_ap_srv180_ap_1024i.pdst
Data page size distrubution: 0
Loading data page size distribution from /home/bsc/bsc018186/scratch/itp_asplos25_AE/dump/smt_srv537_ap_srv180_ap_1024i.pdst
cpu0_L2C IP-based stride prefetcher
cpu0_L1D next line prefetcher
cpu0_L1I next line prefetcher
Off-chip DRAM Size: 4 GiB Channels: 1 Width: 64-bit Data Rate: 3200 MT/s
Heartbeat CPU 0 instructions: 10000001 cycles: 2500623 heartbeat IPC: 3.99901 cumulative IPC: 3.99901 (Simulation time: 0 hr 0 min 39 sec) 
Heartbeat CPU 0 instructions: 20000002 cycles: 5000754 heartbeat IPC: 3.9998 cumulative IPC: 3.9994 (Simulation time: 0 hr 1 min 21 sec) 
Heartbeat CPU 0 instructions: 30000002 cycles: 7500915 heartbeat IPC: 3.99975 cumulative IPC: 3.99952 (Simulation time: 0 hr 2 min 4 sec) 
Heartbeat CPU 0 instructions: 40000001 cycles: 10001298 heartbeat IPC: 3.99939 cumulative IPC: 3.99949 (Simulation time: 0 hr 2 min 47 sec) 
Heartbeat CPU 0 instructions: 50000003 cycles: 12501448 heartbeat IPC: 3.99977 cumulative IPC: 3.99954 (Simulation time: 0 hr 3 min 27 sec) 
Warmup finished CPU 0 instructions: 50000003 cycles: 12501449 cumulative IPC: 3.99954 (Simulation time: 0 hr 3 min 27 sec) 

Warmup complete CPU 0 instructions: 50000003 cycles: 12501449 (Simulation time: 0 hr 3 min 27 sec) 

Heartbeat CPU 0 instructions: 60000001 cycles: 41609254 heartbeat IPC: 0.343551 cumulative IPC: 0.343551 (Simulation time: 0 hr 4 min 55 sec) 
Heartbeat CPU 0 instructions: 70000003 cycles: 69803220 heartbeat IPC: 0.354686 cumulative IPC: 0.34903 (Simulation time: 0 hr 6 min 20 sec) 
Heartbeat CPU 0 instructions: 80000003 cycles: 98776355 heartbeat IPC: 0.345148 cumulative IPC: 0.347726 (Simulation time: 0 hr 7 min 48 sec) 
Heartbeat CPU 0 instructions: 90000000 cycles: 126937780 heartbeat IPC: 0.355096 cumulative IPC: 0.34954 (Simulation time: 0 hr 9 min 12 sec) 
Heartbeat CPU 0 instructions: 100000003 cycles: 155168101 heartbeat IPC: 0.35423 cumulative IPC: 0.350468 (Simulation time: 0 hr 10 min 41 sec) 
Heartbeat CPU 0 instructions: 110000000 cycles: 184781276 heartbeat IPC: 0.337688 cumulative IPC: 0.348271 (Simulation time: 0 hr 12 min 9 sec) 
Heartbeat CPU 0 instructions: 120000000 cycles: 212951617 heartbeat IPC: 0.354984 cumulative IPC: 0.349214 (Simulation time: 0 hr 13 min 37 sec) 
Heartbeat CPU 0 instructions: 130000000 cycles: 239936093 heartbeat IPC: 0.370584 cumulative IPC: 0.35175 (Simulation time: 0 hr 15 min 2 sec) 
Heartbeat CPU 0 instructions: 140000003 cycles: 268945179 heartbeat IPC: 0.34472 cumulative IPC: 0.350955 (Simulation time: 0 hr 16 min 30 sec) 
Heartbeat CPU 0 instructions: 150000002 cycles: 296932539 heartbeat IPC: 0.357305 cumulative IPC: 0.35158 (Simulation time: 0 hr 17 min 52 sec) 
Simulation finished CPU 0 instructions: 100000004 cycles: 284431092 cumulative IPC: 0.35158 (Simulation time: 0 hr 17 min 52 sec) 

Simulation complete CPU 0 instructions: 100000004 cycles: 284431092 (Simulation time: 0 hr 17 min 52 sec) 


ChampSim completed all CPUs

Saving instructions large page distribution to /home/bsc/bsc018186/scratch/itp_asplos25_AE/dump/smt_srv537_ap_srv180_ap_1024i.pdst...
Saving data large page distribution to /home/bsc/bsc018186/scratch/itp_asplos25_AE/dump/smt_srv537_ap_srv180_ap_1024i.pdst...
=== Simulation ===
CPU 0 runs /gpfs/projects/bsc18/MN4/bsc18/romol/ChampSim/traces/qualcomm_srv/smt_srv537_ap_srv180_ap_1024i.champsimtrace.xz

Region of Interest Statistics

CPU 0 cumulative IPC: 0.35158 instructions: 100000004 cycles: 284431092
CPU 0 Branch Prediction Accuracy: 76.1345% MPKI: 42.9765 Average ROB Occupancy at Mispredict: 11.4207
Branch type MPKI
BRANCH_DIRECT_JUMP: 1.28044
BRANCH_INDIRECT: 22.3442
BRANCH_CONDITIONAL: 12.5476
BRANCH_DIRECT_CALL: 2.47422
BRANCH_INDIRECT_CALL: 0.92457
BRANCH_RETURN: 3.40554

Instructions large pages: 0
Instructions small pages: 13692
Large page distribution for instructions: 0%

Data large pages: 0
Data small pages: 12405
Large page distribution for data: 0%

cpu0_L1I TOTAL       ACCESS:   39054487  HIT:   30378792  MISS:    8675695  iACCESS:   39054487  iHIT:   30378792  iMISS:    8675695  dACCESS:          0  dHIT:          0  dMISS:          0  itACCESS:          0  itHIT:          0  itMISS:          0  dtACCESS:          0  dtHIT:          0  dtMISS:          0
cpu0_L1I LOAD         ACCESS:   11747418  HIT:    9376695  MISS:    2370723  iACCESS:   11747418  iHIT:    9376695  iMISS:    2370723  dACCESS:          0  dHIT:          0  dMISS:          0  itACCESS:          0  itHIT:          0  itMISS:          0  dtACCESS:          0  dtHIT:          0  dtMISS:          0
cpu0_L1I RFO          ACCESS:          0  HIT:          0  MISS:          0  iACCESS:          0  iHIT:          0  iMISS:          0  dACCESS:          0  dHIT:          0  dMISS:          0  itACCESS:          0  itHIT:          0  itMISS:          0  dtACCESS:          0  dtHIT:          0  dtMISS:          0
cpu0_L1I PREFETCH     ACCESS:   27307069  HIT:   21002097  MISS:    6304972  iACCESS:   27307069  iHIT:   21002097  iMISS:    6304972  dACCESS:          0  dHIT:          0  dMISS:          0  itACCESS:          0  itHIT:          0  itMISS:          0  dtACCESS:          0  dtHIT:          0  dtMISS:          0
cpu0_L1I WRITE        ACCESS:          0  HIT:          0  MISS:          0  iACCESS:          0  iHIT:          0  iMISS:          0  dACCESS:          0  dHIT:          0  dMISS:          0  itACCESS:          0  itHIT:          0  itMISS:          0  dtACCESS:          0  dtHIT:          0  dtMISS:          0
cpu0_L1I TRANSLATION  ACCESS:          0  HIT:          0  MISS:          0  iACCESS:          0  iHIT:          0  iMISS:          0  dACCESS:          0  dHIT:          0  dMISS:          0  itACCESS:          0  itHIT:          0  itMISS:          0  dtACCESS:          0  dtHIT:          0  dtMISS:          0
cpu0_L1I PREFETCH  REQUESTED:   30189564  ISSUED:   30189560  CROSSED:          0  USEFUL:    2195681  USELESS:     751971
cpu0_L1I AVERAGE iMISS LATENCY: 22.9175 cycles
cpu0_L1I AVERAGE dMISS LATENCY: 0 cycles
cpu0_L1I AVERAGE itMISS LATENCY: 0 cycles
cpu0_L1I AVERAGE dtMISS LATENCY: 0 cycles
cpu0_L1I PAGE CROSSINGS (TLB HIT):         0 
cpu0_L1I PAGE CROSSINGS (TLB MISS):         0 
cpu0_L1I AVERAGE MISS LATENCY: 22.9175 cycles
cpu0_ITLB TOTAL       ACCESS:   32948420  HIT:   30741988  MISS:    2206432  iACCESS:   32948420  iHIT:   30741988  iMISS:    2206432  dACCESS:          0  dHIT:          0  dMISS:          0  itACCESS:          0  itHIT:          0  itMISS:          0  dtACCESS:          0  dtHIT:          0  dtMISS:          0
cpu0_ITLB LOAD         ACCESS:   32948420  HIT:   30741988  MISS:    2206432  iACCESS:   32948420  iHIT:   30741988  iMISS:    2206432  dACCESS:          0  dHIT:          0  dMISS:          0  itACCESS:          0  itHIT:          0  itMISS:          0  dtACCESS:          0  dtHIT:          0  dtMISS:          0
cpu0_ITLB RFO          ACCESS:          0  HIT:          0  MISS:          0  iACCESS:          0  iHIT:          0  iMISS:          0  dACCESS:          0  dHIT:          0  dMISS:          0  itACCESS:          0  itHIT:          0  itMISS:          0  dtACCESS:          0  dtHIT:          0  dtMISS:          0
cpu0_ITLB PREFETCH     ACCESS:          0  HIT:          0  MISS:          0  iACCESS:          0  iHIT:          0  iMISS:          0  dACCESS:          0  dHIT:          0  dMISS:          0  itACCESS:          0  itHIT:          0  itMISS:          0  dtACCESS:          0  dtHIT:          0  dtMISS:          0
cpu0_ITLB WRITE        ACCESS:          0  HIT:          0  MISS:          0  iACCESS:          0  iHIT:          0  iMISS:          0  dACCESS:          0  dHIT:          0  dMISS:          0  itACCESS:          0  itHIT:          0  itMISS:          0  dtACCESS:          0  dtHIT:          0  dtMISS:          0
cpu0_ITLB TRANSLATION  ACCESS:          0  HIT:          0  MISS:          0  iACCESS:          0  iHIT:          0  iMISS:          0  dACCESS:          0  dHIT:          0  dMISS:          0  itACCESS:          0  itHIT:          0  itMISS:          0  dtACCESS:          0  dtHIT:          0  dtMISS:          0
cpu0_ITLB PREFETCH  REQUESTED:          0  ISSUED:          0  CROSSED:          0  USEFUL:     383335  USELESS:      77601
cpu0_ITLB AVERAGE iMISS LATENCY: 9.43137 cycles
cpu0_ITLB AVERAGE dMISS LATENCY: 0 cycles
cpu0_ITLB AVERAGE itMISS LATENCY: 0 cycles
cpu0_ITLB AVERAGE dtMISS LATENCY: 0 cycles
cpu0_ITLB PAGE CROSSINGS (TLB HIT):         0 
cpu0_ITLB PAGE CROSSINGS (TLB MISS):         0 
cpu0_ITLB AVERAGE MISS LATENCY: 9.43137 cycles
cpu0_DTLB TOTAL       ACCESS:   28720952  HIT:   25281230  MISS:    3439722  iACCESS:          0  iHIT:          0  iMISS:          0  dACCESS:   28720952  dHIT:   25281230  dMISS:    3439722  itACCESS:          0  itHIT:          0  itMISS:          0  dtACCESS:          0  dtHIT:          0  dtMISS:          0
cpu0_DTLB LOAD         ACCESS:   28720952  HIT:   25281230  MISS:    3439722  iACCESS:          0  iHIT:          0  iMISS:          0  dACCESS:   28720952  dHIT:   25281230  dMISS:    3439722  itACCESS:          0  itHIT:          0  itMISS:          0  dtACCESS:          0  dtHIT:          0  dtMISS:          0
cpu0_DTLB RFO          ACCESS:          0  HIT:          0  MISS:          0  iACCESS:          0  iHIT:          0  iMISS:          0  dACCESS:          0  dHIT:          0  dMISS:          0  itACCESS:          0  itHIT:          0  itMISS:          0  dtACCESS:          0  dtHIT:          0  dtMISS:          0
cpu0_DTLB PREFETCH     ACCESS:          0  HIT:          0  MISS:          0  iACCESS:          0  iHIT:          0  iMISS:          0  dACCESS:          0  dHIT:          0  dMISS:          0  itACCESS:          0  itHIT:          0  itMISS:          0  dtACCESS:          0  dtHIT:          0  dtMISS:          0
cpu0_DTLB WRITE        ACCESS:          0  HIT:          0  MISS:          0  iACCESS:          0  iHIT:          0  iMISS:          0  dACCESS:          0  dHIT:          0  dMISS:          0  itACCESS:          0  itHIT:          0  itMISS:          0  dtACCESS:          0  dtHIT:          0  dtMISS:          0
cpu0_DTLB TRANSLATION  ACCESS:          0  HIT:          0  MISS:          0  iACCESS:          0  iHIT:          0  iMISS:          0  dACCESS:          0  dHIT:          0  dMISS:          0  itACCESS:          0  itHIT:          0  itMISS:          0  dtACCESS:          0  dtHIT:          0  dtMISS:          0
cpu0_DTLB PREFETCH  REQUESTED:          0  ISSUED:          0  CROSSED:          0  USEFUL:          0  USELESS:          0
cpu0_DTLB AVERAGE iMISS LATENCY: 0 cycles
cpu0_DTLB AVERAGE dMISS LATENCY: 24.6508 cycles
cpu0_DTLB AVERAGE itMISS LATENCY: 0 cycles
cpu0_DTLB AVERAGE dtMISS LATENCY: 0 cycles
cpu0_DTLB PAGE CROSSINGS (TLB HIT):         0 
cpu0_DTLB PAGE CROSSINGS (TLB MISS):         0 
cpu0_DTLB AVERAGE MISS LATENCY: 24.6508 cycles
cpu0_STLB TOTAL       ACCESS:    2425456  HIT:    2077908  MISS:     347548  iACCESS:     460938  iHIT:     354809  iMISS:     106129  dACCESS:    1964518  dHIT:    1723099  dMISS:     241419  itACCESS:          0  itHIT:          0  itMISS:          0  dtACCESS:          0  dtHIT:          0  dtMISS:          0
cpu0_STLB LOAD         ACCESS:    2425456  HIT:    2077908  MISS:     347548  iACCESS:     460938  iHIT:     354809  iMISS:     106129  dACCESS:    1964518  dHIT:    1723099  dMISS:     241419  itACCESS:          0  itHIT:          0  itMISS:          0  dtACCESS:          0  dtHIT:          0  dtMISS:          0
cpu0_STLB RFO          ACCESS:          0  HIT:          0  MISS:          0  iACCESS:          0  iHIT:          0  iMISS:          0  dACCESS:          0  dHIT:          0  dMISS:          0  itACCESS:          0  itHIT:          0  itMISS:          0  dtACCESS:          0  dtHIT:          0  dtMISS:          0
cpu0_STLB PREFETCH     ACCESS:          0  HIT:          0  MISS:          0  iACCESS:          0  iHIT:          0  iMISS:          0  dACCESS:          0  dHIT:          0  dMISS:          0  itACCESS:          0  itHIT:          0  itMISS:          0  dtACCESS:          0  dtHIT:          0  dtMISS:          0
cpu0_STLB WRITE        ACCESS:          0  HIT:          0  MISS:          0  iACCESS:          0  iHIT:          0  iMISS:          0  dACCESS:          0  dHIT:          0  dMISS:          0  itACCESS:          0  itHIT:          0  itMISS:          0  dtACCESS:          0  dtHIT:          0  dtMISS:          0
cpu0_STLB TRANSLATION  ACCESS:          0  HIT:          0  MISS:          0  iACCESS:          0  iHIT:          0  iMISS:          0  dACCESS:          0  dHIT:          0  dMISS:          0  itACCESS:          0  itHIT:          0  itMISS:          0  dtACCESS:          0  dtHIT:          0  dtMISS:          0
cpu0_STLB PREFETCH  REQUESTED:          0  ISSUED:          0  CROSSED:          0  USEFUL:          0  USELESS:          0
cpu0_STLB AVERAGE iMISS LATENCY: 49.2875 cycles
cpu0_STLB AVERAGE dMISS LATENCY: 198.538 cycles
cpu0_STLB AVERAGE itMISS LATENCY: 0 cycles
cpu0_STLB AVERAGE dtMISS LATENCY: 0 cycles
cpu0_STLB PAGE CROSSINGS (TLB HIT):         0 
cpu0_STLB PAGE CROSSINGS (TLB MISS):         0 
cpu0_STLB AVERAGE MISS LATENCY: 247.826 cycles
cpu0_L1D TOTAL       ACCESS:   44281474  HIT:   39042458  MISS:    5239016  iACCESS:          0  iHIT:          0  iMISS:          0  dACCESS:   43761224  dHIT:   39008650  dMISS:    4752574  itACCESS:     118582  itHIT:      15534  itMISS:     103048  dtACCESS:     401668  dtHIT:      18274  dtMISS:     383394
cpu0_L1D LOAD         ACCESS:   19964220  HIT:   17837957  MISS:    2126263  iACCESS:          0  iHIT:          0  iMISS:          0  dACCESS:   19964220  dHIT:   17837957  dMISS:    2126263  itACCESS:          0  itHIT:          0  itMISS:          0  dtACCESS:          0  dtHIT:          0  dtMISS:          0
cpu0_L1D RFO          ACCESS:          0  HIT:          0  MISS:          0  iACCESS:          0  iHIT:          0  iMISS:          0  dACCESS:          0  dHIT:          0  dMISS:          0  itACCESS:          0  itHIT:          0  itMISS:          0  dtACCESS:          0  dtHIT:          0  dtMISS:          0
cpu0_L1D PREFETCH     ACCESS:   13636473  HIT:   11550010  MISS:    2086463  iACCESS:          0  iHIT:          0  iMISS:          0  dACCESS:   13636473  dHIT:   11550010  dMISS:    2086463  itACCESS:          0  itHIT:          0  itMISS:          0  dtACCESS:          0  dtHIT:          0  dtMISS:          0
cpu0_L1D WRITE        ACCESS:   10160531  HIT:    9620683  MISS:     539848  iACCESS:          0  iHIT:          0  iMISS:          0  dACCESS:   10160531  dHIT:    9620683  dMISS:     539848  itACCESS:          0  itHIT:          0  itMISS:          0  dtACCESS:          0  dtHIT:          0  dtMISS:          0
cpu0_L1D TRANSLATION  ACCESS:     520250  HIT:      33808  MISS:     486442  iACCESS:          0  iHIT:          0  iMISS:          0  dACCESS:          0  dHIT:          0  dMISS:          0  itACCESS:     118582  itHIT:      15534  itMISS:     103048  dtACCESS:     401668  dtHIT:      18274  dtMISS:     383394
cpu0_L1D PREFETCH  REQUESTED:   19964220  ISSUED:   18208519  CROSSED:          0  USEFUL:     370469  USELESS:     906231
cpu0_L1D AVERAGE iMISS LATENCY: 0 cycles
cpu0_L1D AVERAGE dMISS LATENCY: 50.6267 cycles
cpu0_L1D AVERAGE itMISS LATENCY: 3.07953 cycles
cpu0_L1D AVERAGE dtMISS LATENCY: 12.1688 cycles
cpu0_L1D PAGE CROSSINGS (TLB HIT):         0 
cpu0_L1D PAGE CROSSINGS (TLB MISS):         0 
cpu0_L1D AVERAGE MISS LATENCY: 65.875 cycles
cpu0_L2C TOTAL       ACCESS:    8488122  HIT:    4211882  MISS:    4276240  iACCESS:    3754297  iHIT:    2322700  iMISS:    1431597  dACCESS:    4281483  dHIT:    1832746  dMISS:    2448737  itACCESS:     102578  itHIT:      19383  itMISS:      83195  dtACCESS:     349764  dtHIT:      37053  dtMISS:     312711
cpu0_L2C LOAD         ACCESS:    2038932  HIT:    1027238  MISS:    1011694  iACCESS:     845983  iHIT:     551245  iMISS:     294738  dACCESS:    1192949  dHIT:     475993  dMISS:     716956  itACCESS:          0  itHIT:          0  itMISS:          0  dtACCESS:          0  dtHIT:          0  dtMISS:          0
cpu0_L2C RFO          ACCESS:     208221  HIT:      80339  MISS:     127882  iACCESS:          0  iHIT:          0  iMISS:          0  dACCESS:     208221  dHIT:      80339  dMISS:     127882  itACCESS:          0  itHIT:          0  itMISS:          0  dtACCESS:          0  dtHIT:          0  dtMISS:          0
cpu0_L2C PREFETCH     ACCESS:    5441705  HIT:    2705907  MISS:    2735798  iACCESS:    2908314  iHIT:    1771455  iMISS:    1136859  dACCESS:    2533391  dHIT:     934452  dMISS:    1598939  itACCESS:          0  itHIT:          0  itMISS:          0  dtACCESS:          0  dtHIT:          0  dtMISS:          0
cpu0_L2C WRITE        ACCESS:     346922  HIT:     341962  MISS:       4960  iACCESS:          0  iHIT:          0  iMISS:          0  dACCESS:     346922  dHIT:     341962  dMISS:       4960  itACCESS:          0  itHIT:          0  itMISS:          0  dtACCESS:          0  dtHIT:          0  dtMISS:          0
cpu0_L2C TRANSLATION  ACCESS:     452342  HIT:      56436  MISS:     395906  iACCESS:          0  iHIT:          0  iMISS:          0  dACCESS:          0  dHIT:          0  dMISS:          0  itACCESS:     102578  itHIT:      19383  itMISS:      83195  dtACCESS:     349764  dtHIT:      37053  dtMISS:     312711
cpu0_L2C PREFETCH  REQUESTED:    1502287  ISSUED:    1502284  CROSSED:          0  USEFUL:     357160  USELESS:     315492
cpu0_L2C AVERAGE iMISS LATENCY: 38.9484 cycles
cpu0_L2C AVERAGE dMISS LATENCY: 77.2041 cycles
cpu0_L2C AVERAGE itMISS LATENCY: 3.53684 cycles
cpu0_L2C AVERAGE dtMISS LATENCY: 14.0946 cycles
cpu0_L2C PAGE CROSSINGS (TLB HIT):         0 
cpu0_L2C PAGE CROSSINGS (TLB MISS):         0 
cpu0_L2C AVERAGE MISS LATENCY: 133.784 cycles
LLC TOTAL       ACCESS:    4275040  HIT:    1391192  MISS:    2883848  iACCESS:    1340113  iHIT:     449244  iMISS:     890869  dACCESS:    2539021  dHIT:     901782  dMISS:    1637239  itACCESS:      83195  itHIT:       7695  itMISS:      75500  dtACCESS:     312711  dtHIT:      32471  dtMISS:     280240
LLC LOAD         ACCESS:    1006971  HIT:     346830  MISS:     660141  iACCESS:     293599  iHIT:     104656  iMISS:     188943  dACCESS:     713372  dHIT:     242174  dMISS:     471198  itACCESS:          0  itHIT:          0  itMISS:          0  dtACCESS:          0  dtHIT:          0  dtMISS:          0
LLC RFO          ACCESS:     127867  HIT:      41656  MISS:      86211  iACCESS:          0  iHIT:          0  iMISS:          0  dACCESS:     127867  dHIT:      41656  dMISS:      86211  itACCESS:          0  itHIT:          0  itMISS:          0  dtACCESS:          0  dtHIT:          0  dtMISS:          0
LLC PREFETCH     ACCESS:    2530836  HIT:     760829  MISS:    1770007  iACCESS:    1046514  iHIT:     344588  iMISS:     701926  dACCESS:    1484322  dHIT:     416241  dMISS:    1068081  itACCESS:          0  itHIT:          0  itMISS:          0  dtACCESS:          0  dtHIT:          0  dtMISS:          0
LLC WRITE        ACCESS:     213460  HIT:     201711  MISS:      11749  iACCESS:          0  iHIT:          0  iMISS:          0  dACCESS:     213460  dHIT:     201711  dMISS:      11749  itACCESS:          0  itHIT:          0  itMISS:          0  dtACCESS:          0  dtHIT:          0  dtMISS:          0
LLC TRANSLATION  ACCESS:     395906  HIT:      40166  MISS:     355740  iACCESS:          0  iHIT:          0  iMISS:          0  dACCESS:          0  dHIT:          0  dMISS:          0  itACCESS:      83195  itHIT:       7695  itMISS:      75500  dtACCESS:     312711  dtHIT:      32471  dtMISS:     280240
LLC PREFETCH  REQUESTED:          0  ISSUED:          0  CROSSED:          0  USEFUL:          0  USELESS:          0
LLC AVERAGE iMISS LATENCY: 48.6079 cycles
LLC AVERAGE dMISS LATENCY: 99.2009 cycles
LLC AVERAGE itMISS LATENCY: 4.6729 cycles
LLC AVERAGE dtMISS LATENCY: 18.7561 cycles
LLC PAGE CROSSINGS (TLB HIT):         0 
LLC PAGE CROSSINGS (TLB MISS):         0 
LLC AVERAGE MISS LATENCY: 171.238 cycles

PageTableWalker TOTAL       ACCESS:     170331  
PageTableWalker AVERAGE LATENCY: 6.56447 cycles
PageTableWalker TOTAL LATENCY: 1118132 cycles

DRAM Statistics
Channel 0
 RQ ROW_BUFFER_HIT:     615160
  ROW_BUFFER_MISS:    2247545
 AVG DBUS CONGESTED CYCLE:    3.64936
 WQ ROW_BUFFER_HIT:      63954
  ROW_BUFFER_MISS:      54039  FULL:          0

