last_page:0x200000000000000
VMEM_RES_CAP:0x100000
PAGE_SIZE:4096
LOG2_PAGE_SIZE:12
LOG2_PAGE_TABLE_SIZE:9
page_table_levels:5
WARNING: physical memory size is smaller than virtual memory size
FDiP enabled with aggresivity 16

*** ChampSim Multicore Out-of-Order Simulator ***

Warmup Instructions: 50000000
Simulation Instructions: 100000000
Number of CPUs: 1
Small page size: 4096
Large page size: 2097152

CPU 0 Bimodal branch predictor
Basic BTB sets: 1024 ways: 8 indirect buffer size: 4096 RAS size: 64
Instruction page size distrubution: 0
Loading instruction page size distribution from /home/bsc/bsc018186/scratch/itp_asplos25_AE/dump/smt_srv12_ap_srv346_ap_1024i.pdst
Data page size distrubution: 0
Loading data page size distribution from /home/bsc/bsc018186/scratch/itp_asplos25_AE/dump/smt_srv12_ap_srv346_ap_1024i.pdst
cpu0_L2C IP-based stride prefetcher
cpu0_L2C is using xPTP/LRU
	TLB_LOWER_STRESS_THRESHOLD:1
	TLB_UPPER_STRESS_THRESHOLD:4
	MIN_EVICTION_POSITION:4
cpu0_L1D next line prefetcher
cpu0_STLB using iTP with max lru@8
cpu0_STLB using iTP with instr@0 and data@2
Init sat counter with 3 bits (max:50).
cpu0_L1I next line prefetcher
Off-chip DRAM Size: 4 GiB Channels: 1 Width: 64-bit Data Rate: 3200 MT/s
Heartbeat CPU 0 instructions: 10000003 cycles: 2500420 heartbeat IPC: 3.99933 cumulative IPC: 3.99933 (Simulation time: 0 hr 0 min 37 sec) 
Heartbeat CPU 0 instructions: 20000002 cycles: 5000496 heartbeat IPC: 3.99988 cumulative IPC: 3.99961 (Simulation time: 0 hr 1 min 16 sec) 
Heartbeat CPU 0 instructions: 30000003 cycles: 7501115 heartbeat IPC: 3.99902 cumulative IPC: 3.99941 (Simulation time: 0 hr 1 min 56 sec) 
Heartbeat CPU 0 instructions: 40000001 cycles: 10001231 heartbeat IPC: 3.99982 cumulative IPC: 3.99951 (Simulation time: 0 hr 2 min 35 sec) 
Heartbeat CPU 0 instructions: 50000003 cycles: 12501302 heartbeat IPC: 3.99989 cumulative IPC: 3.99959 (Simulation time: 0 hr 3 min 15 sec) 
Warmup finished CPU 0 instructions: 50000003 cycles: 12501303 cumulative IPC: 3.99959 (Simulation time: 0 hr 3 min 15 sec) 

Warmup complete CPU 0 instructions: 50000003 cycles: 12501303 (Simulation time: 0 hr 3 min 15 sec) 

Heartbeat CPU 0 instructions: 60000000 cycles: 39327363 heartbeat IPC: 0.372772 cumulative IPC: 0.372772 (Simulation time: 0 hr 4 min 34 sec) 
Heartbeat CPU 0 instructions: 70000003 cycles: 65944912 heartbeat IPC: 0.375693 cumulative IPC: 0.374227 (Simulation time: 0 hr 5 min 53 sec) 
Heartbeat CPU 0 instructions: 80000001 cycles: 93297021 heartbeat IPC: 0.365603 cumulative IPC: 0.371307 (Simulation time: 0 hr 7 min 12 sec) 
Heartbeat CPU 0 instructions: 90000000 cycles: 116814477 heartbeat IPC: 0.425217 cumulative IPC: 0.383461 (Simulation time: 0 hr 8 min 26 sec) 
Heartbeat CPU 0 instructions: 100000000 cycles: 142958323 heartbeat IPC: 0.3825 cumulative IPC: 0.383268 (Simulation time: 0 hr 9 min 45 sec) 
Heartbeat CPU 0 instructions: 110000001 cycles: 169497546 heartbeat IPC: 0.376801 cumulative IPC: 0.382175 (Simulation time: 0 hr 11 min 4 sec) 
Heartbeat CPU 0 instructions: 120000000 cycles: 195212537 heartbeat IPC: 0.388879 cumulative IPC: 0.383119 (Simulation time: 0 hr 12 min 22 sec) 
Heartbeat CPU 0 instructions: 130000004 cycles: 221656232 heartbeat IPC: 0.378163 cumulative IPC: 0.382492 (Simulation time: 0 hr 13 min 41 sec) 
Heartbeat CPU 0 instructions: 140000000 cycles: 248232529 heartbeat IPC: 0.376275 cumulative IPC: 0.381791 (Simulation time: 0 hr 15 min 0 sec) 
Heartbeat CPU 0 instructions: 150000002 cycles: 274733701 heartbeat IPC: 0.377342 cumulative IPC: 0.381342 (Simulation time: 0 hr 16 min 20 sec) 
Simulation finished CPU 0 instructions: 100000004 cycles: 262232400 cumulative IPC: 0.381342 (Simulation time: 0 hr 16 min 20 sec) 

Simulation complete CPU 0 instructions: 100000004 cycles: 262232400 (Simulation time: 0 hr 16 min 20 sec) 


ChampSim completed all CPUs

Saving instructions large page distribution to /home/bsc/bsc018186/scratch/itp_asplos25_AE/dump/smt_srv12_ap_srv346_ap_1024i.pdst...
Saving data large page distribution to /home/bsc/bsc018186/scratch/itp_asplos25_AE/dump/smt_srv12_ap_srv346_ap_1024i.pdst...
=== Simulation ===
CPU 0 runs /gpfs/projects/bsc18/MN4/bsc18/romol/ChampSim/traces/qualcomm_srv/smt_srv12_ap_srv346_ap_1024i.champsimtrace.xz

Region of Interest Statistics

CPU 0 cumulative IPC: 0.381342 instructions: 100000004 cycles: 262232400
CPU 0 Branch Prediction Accuracy: 75.5397% MPKI: 44.1957 Average ROB Occupancy at Mispredict: 10.9668
Branch type MPKI
BRANCH_DIRECT_JUMP: 1.3554
BRANCH_INDIRECT: 22.7018
BRANCH_CONDITIONAL: 13.0378
BRANCH_DIRECT_CALL: 2.60332
BRANCH_INDIRECT_CALL: 1.04025
BRANCH_RETURN: 3.45711

Instructions large pages: 0
Instructions small pages: 14619
Large page distribution for instructions: 0%

Data large pages: 0
Data small pages: 12879
Large page distribution for data: 0%

cpu0_L1I TOTAL       ACCESS:   39175822  HIT:   30316370  MISS:    8859452  iACCESS:   39175822  iHIT:   30316370  iMISS:    8859452  dACCESS:          0  dHIT:          0  dMISS:          0  itACCESS:          0  itHIT:          0  itMISS:          0  dtACCESS:          0  dtHIT:          0  dtMISS:          0
cpu0_L1I LOAD         ACCESS:   11705619  HIT:    9295327  MISS:    2410292  iACCESS:   11705619  iHIT:    9295327  iMISS:    2410292  dACCESS:          0  dHIT:          0  dMISS:          0  itACCESS:          0  itHIT:          0  itMISS:          0  dtACCESS:          0  dtHIT:          0  dtMISS:          0
cpu0_L1I RFO          ACCESS:          0  HIT:          0  MISS:          0  iACCESS:          0  iHIT:          0  iMISS:          0  dACCESS:          0  dHIT:          0  dMISS:          0  itACCESS:          0  itHIT:          0  itMISS:          0  dtACCESS:          0  dtHIT:          0  dtMISS:          0
cpu0_L1I PREFETCH     ACCESS:   27470203  HIT:   21021043  MISS:    6449160  iACCESS:   27470203  iHIT:   21021043  iMISS:    6449160  dACCESS:          0  dHIT:          0  dMISS:          0  itACCESS:          0  itHIT:          0  itMISS:          0  dtACCESS:          0  dtHIT:          0  dtMISS:          0
cpu0_L1I WRITE        ACCESS:          0  HIT:          0  MISS:          0  iACCESS:          0  iHIT:          0  iMISS:          0  dACCESS:          0  dHIT:          0  dMISS:          0  itACCESS:          0  itHIT:          0  itMISS:          0  dtACCESS:          0  dtHIT:          0  dtMISS:          0
cpu0_L1I TRANSLATION  ACCESS:          0  HIT:          0  MISS:          0  iACCESS:          0  iHIT:          0  iMISS:          0  dACCESS:          0  dHIT:          0  dMISS:          0  itACCESS:          0  itHIT:          0  itMISS:          0  dtACCESS:          0  dtHIT:          0  dtMISS:          0
cpu0_L1I PREFETCH  REQUESTED:   30211335  ISSUED:   30210942  CROSSED:          0  USEFUL:    2193928  USELESS:     754343
cpu0_L1I AVERAGE iMISS LATENCY: 22.3477 cycles
cpu0_L1I AVERAGE dMISS LATENCY: 0 cycles
cpu0_L1I AVERAGE itMISS LATENCY: 0 cycles
cpu0_L1I AVERAGE dtMISS LATENCY: 0 cycles
cpu0_L1I PAGE CROSSINGS (TLB HIT):         0 
cpu0_L1I PAGE CROSSINGS (TLB MISS):         0 
cpu0_L1I AVERAGE MISS LATENCY: 22.3477 cycles
cpu0_ITLB TOTAL       ACCESS:   33059668  HIT:   30874404  MISS:    2185264  iACCESS:   33059668  iHIT:   30874404  iMISS:    2185264  dACCESS:          0  dHIT:          0  dMISS:          0  itACCESS:          0  itHIT:          0  itMISS:          0  dtACCESS:          0  dtHIT:          0  dtMISS:          0
cpu0_ITLB LOAD         ACCESS:   33059668  HIT:   30874404  MISS:    2185264  iACCESS:   33059668  iHIT:   30874404  iMISS:    2185264  dACCESS:          0  dHIT:          0  dMISS:          0  itACCESS:          0  itHIT:          0  itMISS:          0  dtACCESS:          0  dtHIT:          0  dtMISS:          0
cpu0_ITLB RFO          ACCESS:          0  HIT:          0  MISS:          0  iACCESS:          0  iHIT:          0  iMISS:          0  dACCESS:          0  dHIT:          0  dMISS:          0  itACCESS:          0  itHIT:          0  itMISS:          0  dtACCESS:          0  dtHIT:          0  dtMISS:          0
cpu0_ITLB PREFETCH     ACCESS:          0  HIT:          0  MISS:          0  iACCESS:          0  iHIT:          0  iMISS:          0  dACCESS:          0  dHIT:          0  dMISS:          0  itACCESS:          0  itHIT:          0  itMISS:          0  dtACCESS:          0  dtHIT:          0  dtMISS:          0
cpu0_ITLB WRITE        ACCESS:          0  HIT:          0  MISS:          0  iACCESS:          0  iHIT:          0  iMISS:          0  dACCESS:          0  dHIT:          0  dMISS:          0  itACCESS:          0  itHIT:          0  itMISS:          0  dtACCESS:          0  dtHIT:          0  dtMISS:          0
cpu0_ITLB TRANSLATION  ACCESS:          0  HIT:          0  MISS:          0  iACCESS:          0  iHIT:          0  iMISS:          0  dACCESS:          0  dHIT:          0  dMISS:          0  itACCESS:          0  itHIT:          0  itMISS:          0  dtACCESS:          0  dtHIT:          0  dtMISS:          0
cpu0_ITLB PREFETCH  REQUESTED:          0  ISSUED:          0  CROSSED:          0  USEFUL:     386510  USELESS:      77817
cpu0_ITLB AVERAGE iMISS LATENCY: 5.53258 cycles
cpu0_ITLB AVERAGE dMISS LATENCY: 0 cycles
cpu0_ITLB AVERAGE itMISS LATENCY: 0 cycles
cpu0_ITLB AVERAGE dtMISS LATENCY: 0 cycles
cpu0_ITLB PAGE CROSSINGS (TLB HIT):         0 
cpu0_ITLB PAGE CROSSINGS (TLB MISS):         0 
cpu0_ITLB AVERAGE MISS LATENCY: 5.53258 cycles
cpu0_DTLB TOTAL       ACCESS:   28889951  HIT:   25353251  MISS:    3536700  iACCESS:          0  iHIT:          0  iMISS:          0  dACCESS:   28889951  dHIT:   25353251  dMISS:    3536700  itACCESS:          0  itHIT:          0  itMISS:          0  dtACCESS:          0  dtHIT:          0  dtMISS:          0
cpu0_DTLB LOAD         ACCESS:   28889951  HIT:   25353251  MISS:    3536700  iACCESS:          0  iHIT:          0  iMISS:          0  dACCESS:   28889951  dHIT:   25353251  dMISS:    3536700  itACCESS:          0  itHIT:          0  itMISS:          0  dtACCESS:          0  dtHIT:          0  dtMISS:          0
cpu0_DTLB RFO          ACCESS:          0  HIT:          0  MISS:          0  iACCESS:          0  iHIT:          0  iMISS:          0  dACCESS:          0  dHIT:          0  dMISS:          0  itACCESS:          0  itHIT:          0  itMISS:          0  dtACCESS:          0  dtHIT:          0  dtMISS:          0
cpu0_DTLB PREFETCH     ACCESS:          0  HIT:          0  MISS:          0  iACCESS:          0  iHIT:          0  iMISS:          0  dACCESS:          0  dHIT:          0  dMISS:          0  itACCESS:          0  itHIT:          0  itMISS:          0  dtACCESS:          0  dtHIT:          0  dtMISS:          0
cpu0_DTLB WRITE        ACCESS:          0  HIT:          0  MISS:          0  iACCESS:          0  iHIT:          0  iMISS:          0  dACCESS:          0  dHIT:          0  dMISS:          0  itACCESS:          0  itHIT:          0  itMISS:          0  dtACCESS:          0  dtHIT:          0  dtMISS:          0
cpu0_DTLB TRANSLATION  ACCESS:          0  HIT:          0  MISS:          0  iACCESS:          0  iHIT:          0  iMISS:          0  dACCESS:          0  dHIT:          0  dMISS:          0  itACCESS:          0  itHIT:          0  itMISS:          0  dtACCESS:          0  dtHIT:          0  dtMISS:          0
cpu0_DTLB PREFETCH  REQUESTED:          0  ISSUED:          0  CROSSED:          0  USEFUL:          0  USELESS:          0
cpu0_DTLB AVERAGE iMISS LATENCY: 0 cycles
cpu0_DTLB AVERAGE dMISS LATENCY: 18.3998 cycles
cpu0_DTLB AVERAGE itMISS LATENCY: 0 cycles
cpu0_DTLB AVERAGE dtMISS LATENCY: 0 cycles
cpu0_DTLB PAGE CROSSINGS (TLB HIT):         0 
cpu0_DTLB PAGE CROSSINGS (TLB MISS):         0 
cpu0_DTLB AVERAGE MISS LATENCY: 18.3998 cycles
cpu0_STLB TOTAL       ACCESS:    2532967  HIT:    2173838  MISS:     359129  iACCESS:     464335  iHIT:     409880  iMISS:      54455  dACCESS:    2068632  dHIT:    1763958  dMISS:     304674  itACCESS:          0  itHIT:          0  itMISS:          0  dtACCESS:          0  dtHIT:          0  dtMISS:          0
cpu0_STLB LOAD         ACCESS:    2532967  HIT:    2173838  MISS:     359129  iACCESS:     464335  iHIT:     409880  iMISS:      54455  dACCESS:    2068632  dHIT:    1763958  dMISS:     304674  itACCESS:          0  itHIT:          0  itMISS:          0  dtACCESS:          0  dtHIT:          0  dtMISS:          0
cpu0_STLB RFO          ACCESS:          0  HIT:          0  MISS:          0  iACCESS:          0  iHIT:          0  iMISS:          0  dACCESS:          0  dHIT:          0  dMISS:          0  itACCESS:          0  itHIT:          0  itMISS:          0  dtACCESS:          0  dtHIT:          0  dtMISS:          0
cpu0_STLB PREFETCH     ACCESS:          0  HIT:          0  MISS:          0  iACCESS:          0  iHIT:          0  iMISS:          0  dACCESS:          0  dHIT:          0  dMISS:          0  itACCESS:          0  itHIT:          0  itMISS:          0  dtACCESS:          0  dtHIT:          0  dtMISS:          0
cpu0_STLB WRITE        ACCESS:          0  HIT:          0  MISS:          0  iACCESS:          0  iHIT:          0  iMISS:          0  dACCESS:          0  dHIT:          0  dMISS:          0  itACCESS:          0  itHIT:          0  itMISS:          0  dtACCESS:          0  dtHIT:          0  dtMISS:          0
cpu0_STLB TRANSLATION  ACCESS:          0  HIT:          0  MISS:          0  iACCESS:          0  iHIT:          0  iMISS:          0  dACCESS:          0  dHIT:          0  dMISS:          0  itACCESS:          0  itHIT:          0  itMISS:          0  dtACCESS:          0  dtHIT:          0  dtMISS:          0
cpu0_STLB PREFETCH  REQUESTED:          0  ISSUED:          0  CROSSED:          0  USEFUL:          0  USELESS:          0
cpu0_STLB AVERAGE iMISS LATENCY: 23.5121 cycles
cpu0_STLB AVERAGE dMISS LATENCY: 134.77 cycles
cpu0_STLB AVERAGE itMISS LATENCY: 0 cycles
cpu0_STLB AVERAGE dtMISS LATENCY: 0 cycles
cpu0_STLB PAGE CROSSINGS (TLB HIT):         0 
cpu0_STLB PAGE CROSSINGS (TLB MISS):         0 
cpu0_STLB AVERAGE MISS LATENCY: 158.282 cycles
cpu0_L1D TOTAL       ACCESS:   44395485  HIT:   39193046  MISS:    5202439  iACCESS:          0  iHIT:          0  iMISS:          0  dACCESS:   43840938  dHIT:   39163468  dMISS:    4677470  itACCESS:      64950  itHIT:       5621  itMISS:      59329  dtACCESS:     489597  dtHIT:      23957  dtMISS:     465640
cpu0_L1D LOAD         ACCESS:   20045557  HIT:   17969027  MISS:    2076530  iACCESS:          0  iHIT:          0  iMISS:          0  dACCESS:   20045557  dHIT:   17969027  dMISS:    2076530  itACCESS:          0  itHIT:          0  itMISS:          0  dtACCESS:          0  dtHIT:          0  dtMISS:          0
cpu0_L1D RFO          ACCESS:          0  HIT:          0  MISS:          0  iACCESS:          0  iHIT:          0  iMISS:          0  dACCESS:          0  dHIT:          0  dMISS:          0  itACCESS:          0  itHIT:          0  itMISS:          0  dtACCESS:          0  dtHIT:          0  dtMISS:          0
cpu0_L1D PREFETCH     ACCESS:   13636265  HIT:   11593811  MISS:    2042454  iACCESS:          0  iHIT:          0  iMISS:          0  dACCESS:   13636265  dHIT:   11593811  dMISS:    2042454  itACCESS:          0  itHIT:          0  itMISS:          0  dtACCESS:          0  dtHIT:          0  dtMISS:          0
cpu0_L1D WRITE        ACCESS:   10159116  HIT:    9600630  MISS:     558486  iACCESS:          0  iHIT:          0  iMISS:          0  dACCESS:   10159116  dHIT:    9600630  dMISS:     558486  itACCESS:          0  itHIT:          0  itMISS:          0  dtACCESS:          0  dtHIT:          0  dtMISS:          0
cpu0_L1D TRANSLATION  ACCESS:     554547  HIT:      29578  MISS:     524969  iACCESS:          0  iHIT:          0  iMISS:          0  dACCESS:          0  dHIT:          0  dMISS:          0  itACCESS:      64950  itHIT:       5621  itMISS:      59329  dtACCESS:     489597  dtHIT:      23957  dtMISS:     465640
cpu0_L1D PREFETCH  REQUESTED:   20045557  ISSUED:   18409142  CROSSED:          0  USEFUL:     359743  USELESS:     925922
cpu0_L1D AVERAGE iMISS LATENCY: 0 cycles
cpu0_L1D AVERAGE dMISS LATENCY: 50.2671 cycles
cpu0_L1D AVERAGE itMISS LATENCY: 1.4958 cycles
cpu0_L1D AVERAGE dtMISS LATENCY: 8.19381 cycles
cpu0_L1D PAGE CROSSINGS (TLB HIT):         0 
cpu0_L1D PAGE CROSSINGS (TLB MISS):         0 
cpu0_L1D AVERAGE MISS LATENCY: 59.9567 cycles
cpu0_L2C TOTAL       ACCESS:    8531571  HIT:    2474430  MISS:    6057141  iACCESS:    3741664  iHIT:    1396258  iMISS:    2345406  dACCESS:    4292406  dHIT:     841104  dMISS:    3451302  itACCESS:      58853  itHIT:      17007  itMISS:      41846  dtACCESS:     438648  dtHIT:     220061  dtMISS:     218587
cpu0_L2C LOAD         ACCESS:    2023930  HIT:     472980  MISS:    1550950  iACCESS:     830930  iHIT:     282892  iMISS:     548038  dACCESS:    1193000  dHIT:     190088  dMISS:    1002912  itACCESS:          0  itHIT:          0  itMISS:          0  dtACCESS:          0  dtHIT:          0  dtMISS:          0
cpu0_L2C RFO          ACCESS:     209688  HIT:      30383  MISS:     179305  iACCESS:          0  iHIT:          0  iMISS:          0  dACCESS:     209688  dHIT:      30383  dMISS:     179305  itACCESS:          0  itHIT:          0  itMISS:          0  dtACCESS:          0  dtHIT:          0  dtMISS:          0
cpu0_L2C PREFETCH     ACCESS:    5460408  HIT:    1610663  MISS:    3849745  iACCESS:    2910734  iHIT:    1113366  iMISS:    1797368  dACCESS:    2549674  dHIT:     497297  dMISS:    2052377  itACCESS:          0  itHIT:          0  itMISS:          0  dtACCESS:          0  dtHIT:          0  dtMISS:          0
cpu0_L2C WRITE        ACCESS:     340044  HIT:     123336  MISS:     216708  iACCESS:          0  iHIT:          0  iMISS:          0  dACCESS:     340044  dHIT:     123336  dMISS:     216708  itACCESS:          0  itHIT:          0  itMISS:          0  dtACCESS:          0  dtHIT:          0  dtMISS:          0
cpu0_L2C TRANSLATION  ACCESS:     497501  HIT:     237068  MISS:     260433  iACCESS:          0  iHIT:          0  iMISS:          0  dACCESS:          0  dHIT:          0  dMISS:          0  itACCESS:      58853  itHIT:      17007  itMISS:      41846  dtACCESS:     438648  dtHIT:     220061  dtMISS:     218587
cpu0_L2C PREFETCH  REQUESTED:    1503081  ISSUED:    1503080  CROSSED:          0  USEFUL:     384695  USELESS:     445570
cpu0_L2C AVERAGE iMISS LATENCY: 27.3716 cycles
cpu0_L2C AVERAGE dMISS LATENCY: 53.1684 cycles
cpu0_L2C AVERAGE itMISS LATENCY: 1.19013 cycles
cpu0_L2C AVERAGE dtMISS LATENCY: 6.34656 cycles
cpu0_L2C PAGE CROSSINGS (TLB HIT):         0 
cpu0_L2C PAGE CROSSINGS (TLB MISS):         0 
cpu0_L2C AVERAGE MISS LATENCY: 88.0766 cycles
LLC TOTAL       ACCESS:    5908306  HIT:    3409352  MISS:    2498954  iACCESS:    2255686  iHIT:    1475931  iMISS:     779755  dACCESS:    3392187  dHIT:    1889819  dMISS:    1502368  itACCESS:      41846  itHIT:       6385  itMISS:      35461  dtACCESS:     218587  dtHIT:      37217  dtMISS:     181370
LLC LOAD         ACCESS:    1546209  HIT:     954641  MISS:     591568  iACCESS:     546738  iHIT:     385788  iMISS:     160950  dACCESS:     999471  dHIT:     568853  dMISS:     430618  itACCESS:          0  itHIT:          0  itMISS:          0  dtACCESS:          0  dtHIT:          0  dtMISS:          0
LLC RFO          ACCESS:     179289  HIT:      94368  MISS:      84921  iACCESS:          0  iHIT:          0  iMISS:          0  dACCESS:     179289  dHIT:      94368  dMISS:      84921  itACCESS:          0  itHIT:          0  itMISS:          0  dtACCESS:          0  dtHIT:          0  dtMISS:          0
LLC PREFETCH     ACCESS:    3648999  HIT:    2047882  MISS:    1601117  iACCESS:    1708948  iHIT:    1090143  iMISS:     618805  dACCESS:    1940051  dHIT:     957739  dMISS:     982312  itACCESS:          0  itHIT:          0  itMISS:          0  dtACCESS:          0  dtHIT:          0  dtMISS:          0
LLC WRITE        ACCESS:     273376  HIT:     268859  MISS:       4517  iACCESS:          0  iHIT:          0  iMISS:          0  dACCESS:     273376  dHIT:     268859  dMISS:       4517  itACCESS:          0  itHIT:          0  itMISS:          0  dtACCESS:          0  dtHIT:          0  dtMISS:          0
LLC TRANSLATION  ACCESS:     260433  HIT:      43602  MISS:     216831  iACCESS:          0  iHIT:          0  iMISS:          0  dACCESS:          0  dHIT:          0  dMISS:          0  itACCESS:      41846  itHIT:       6385  itMISS:      35461  dtACCESS:     218587  dtHIT:      37217  dtMISS:     181370
LLC PREFETCH  REQUESTED:          0  ISSUED:          0  CROSSED:          0  USEFUL:          0  USELESS:          0
LLC AVERAGE iMISS LATENCY: 48.7944 cycles
LLC AVERAGE dMISS LATENCY: 105.178 cycles
LLC AVERAGE itMISS LATENCY: 2.55381 cycles
LLC AVERAGE dtMISS LATENCY: 13.6559 cycles
LLC PAGE CROSSINGS (TLB HIT):         0 
LLC PAGE CROSSINGS (TLB MISS):         0 
LLC AVERAGE MISS LATENCY: 170.182 cycles

PageTableWalker TOTAL       ACCESS:     169976  
PageTableWalker AVERAGE LATENCY: 5.93034 cycles
PageTableWalker TOTAL LATENCY: 1008015 cycles

DRAM Statistics
Channel 0
 RQ ROW_BUFFER_HIT:     578088
  ROW_BUFFER_MISS:    1907314
 AVG DBUS CONGESTED CYCLE:    3.64853
 WQ ROW_BUFFER_HIT:      62982
  ROW_BUFFER_MISS:      60389  FULL:          0

