last_page:0x200000000000000
VMEM_RES_CAP:0x100000
PAGE_SIZE:4096
LOG2_PAGE_SIZE:12
LOG2_PAGE_TABLE_SIZE:9
page_table_levels:5
WARNING: physical memory size is smaller than virtual memory size
FDiP enabled with aggresivity 16

*** ChampSim Multicore Out-of-Order Simulator ***

Warmup Instructions: 50000000
Simulation Instructions: 100000000
Number of CPUs: 1
Small page size: 4096
Large page size: 2097152

CPU 0 Bimodal branch predictor
Basic BTB sets: 1024 ways: 8 indirect buffer size: 4096 RAS size: 64
Instruction page size distrubution: 0
Loading instruction page size distribution from /home/bsc/bsc018186/scratch/itp_asplos25_AE/dump/smt_srv85_ap_srv180_ap_1024i.pdst
Data page size distrubution: 0
Loading data page size distribution from /home/bsc/bsc018186/scratch/itp_asplos25_AE/dump/smt_srv85_ap_srv180_ap_1024i.pdst
cpu0_L2C IP-based stride prefetcher
cpu0_L1D next line prefetcher
CHiRPing...
cpu0_L1I next line prefetcher
Off-chip DRAM Size: 4 GiB Channels: 1 Width: 64-bit Data Rate: 3200 MT/s
Heartbeat CPU 0 instructions: 10000001 cycles: 2500619 heartbeat IPC: 3.99902 cumulative IPC: 3.99902 (Simulation time: 0 hr 0 min 40 sec) 
Heartbeat CPU 0 instructions: 20000003 cycles: 5000996 heartbeat IPC: 3.9994 cumulative IPC: 3.99921 (Simulation time: 0 hr 1 min 21 sec) 
Heartbeat CPU 0 instructions: 30000002 cycles: 7501296 heartbeat IPC: 3.99952 cumulative IPC: 3.99931 (Simulation time: 0 hr 2 min 4 sec) 
Heartbeat CPU 0 instructions: 40000002 cycles: 10001731 heartbeat IPC: 3.99931 cumulative IPC: 3.99931 (Simulation time: 0 hr 2 min 47 sec) 
Heartbeat CPU 0 instructions: 50000003 cycles: 12501963 heartbeat IPC: 3.99963 cumulative IPC: 3.99938 (Simulation time: 0 hr 3 min 30 sec) 
Warmup finished CPU 0 instructions: 50000003 cycles: 12501964 cumulative IPC: 3.99938 (Simulation time: 0 hr 3 min 30 sec) 

Warmup complete CPU 0 instructions: 50000003 cycles: 12501964 (Simulation time: 0 hr 3 min 30 sec) 

Heartbeat CPU 0 instructions: 60000004 cycles: 39446954 heartbeat IPC: 0.371127 cumulative IPC: 0.371127 (Simulation time: 0 hr 4 min 52 sec) 
Heartbeat CPU 0 instructions: 70000003 cycles: 65711179 heartbeat IPC: 0.380747 cumulative IPC: 0.375875 (Simulation time: 0 hr 6 min 15 sec) 
Heartbeat CPU 0 instructions: 80000002 cycles: 93281631 heartbeat IPC: 0.362708 cumulative IPC: 0.371381 (Simulation time: 0 hr 7 min 39 sec) 
Heartbeat CPU 0 instructions: 90000002 cycles: 120397185 heartbeat IPC: 0.368793 cumulative IPC: 0.370731 (Simulation time: 0 hr 9 min 3 sec) 
Heartbeat CPU 0 instructions: 100000000 cycles: 147344583 heartbeat IPC: 0.371094 cumulative IPC: 0.370803 (Simulation time: 0 hr 10 min 27 sec) 
Heartbeat CPU 0 instructions: 110000000 cycles: 174893826 heartbeat IPC: 0.362987 cumulative IPC: 0.369477 (Simulation time: 0 hr 11 min 52 sec) 
Heartbeat CPU 0 instructions: 120000002 cycles: 201647423 heartbeat IPC: 0.373782 cumulative IPC: 0.370086 (Simulation time: 0 hr 13 min 15 sec) 
Heartbeat CPU 0 instructions: 130000000 cycles: 227461676 heartbeat IPC: 0.387383 cumulative IPC: 0.372163 (Simulation time: 0 hr 14 min 38 sec) 
Heartbeat CPU 0 instructions: 140000002 cycles: 254616090 heartbeat IPC: 0.368265 cumulative IPC: 0.371726 (Simulation time: 0 hr 16 min 2 sec) 
Heartbeat CPU 0 instructions: 150000000 cycles: 281479693 heartbeat IPC: 0.372251 cumulative IPC: 0.371778 (Simulation time: 0 hr 17 min 26 sec) 
Simulation finished CPU 0 instructions: 100000002 cycles: 268977731 cumulative IPC: 0.371778 (Simulation time: 0 hr 17 min 26 sec) 

Simulation complete CPU 0 instructions: 100000002 cycles: 268977731 (Simulation time: 0 hr 17 min 26 sec) 


ChampSim completed all CPUs

Saving instructions large page distribution to /home/bsc/bsc018186/scratch/itp_asplos25_AE/dump/smt_srv85_ap_srv180_ap_1024i.pdst...
Saving data large page distribution to /home/bsc/bsc018186/scratch/itp_asplos25_AE/dump/smt_srv85_ap_srv180_ap_1024i.pdst...
=== Simulation ===
CPU 0 runs /gpfs/projects/bsc18/MN4/bsc18/romol/ChampSim/traces/qualcomm_srv/smt_srv85_ap_srv180_ap_1024i.champsimtrace.xz

Region of Interest Statistics

CPU 0 cumulative IPC: 0.371778 instructions: 100000002 cycles: 268977731
CPU 0 Branch Prediction Accuracy: 75.818% MPKI: 43.4496 Average ROB Occupancy at Mispredict: 11.0605
Branch type MPKI
BRANCH_DIRECT_JUMP: 1.30954
BRANCH_INDIRECT: 22.6756
BRANCH_CONDITIONAL: 12.6136
BRANCH_DIRECT_CALL: 2.49478
BRANCH_INDIRECT_CALL: 0.92066
BRANCH_RETURN: 3.43539

Instructions large pages: 0
Instructions small pages: 13336
Large page distribution for instructions: 0%

Data large pages: 0
Data small pages: 12088
Large page distribution for data: 0%

cpu0_L1I TOTAL       ACCESS:   39436320  HIT:   30273833  MISS:    9162487  iACCESS:   39436320  iHIT:   30273833  iMISS:    9162487  dACCESS:          0  dHIT:          0  dMISS:          0  itACCESS:          0  itHIT:          0  itMISS:          0  dtACCESS:          0  dtHIT:          0  dtMISS:          0
cpu0_L1I LOAD         ACCESS:   11844155  HIT:    9353497  MISS:    2490658  iACCESS:   11844155  iHIT:    9353497  iMISS:    2490658  dACCESS:          0  dHIT:          0  dMISS:          0  itACCESS:          0  itHIT:          0  itMISS:          0  dtACCESS:          0  dtHIT:          0  dtMISS:          0
cpu0_L1I RFO          ACCESS:          0  HIT:          0  MISS:          0  iACCESS:          0  iHIT:          0  iMISS:          0  dACCESS:          0  dHIT:          0  dMISS:          0  itACCESS:          0  itHIT:          0  itMISS:          0  dtACCESS:          0  dtHIT:          0  dtMISS:          0
cpu0_L1I PREFETCH     ACCESS:   27592165  HIT:   20920336  MISS:    6671829  iACCESS:   27592165  iHIT:   20920336  iMISS:    6671829  dACCESS:          0  dHIT:          0  dMISS:          0  itACCESS:          0  itHIT:          0  itMISS:          0  dtACCESS:          0  dtHIT:          0  dtMISS:          0
cpu0_L1I WRITE        ACCESS:          0  HIT:          0  MISS:          0  iACCESS:          0  iHIT:          0  iMISS:          0  dACCESS:          0  dHIT:          0  dMISS:          0  itACCESS:          0  itHIT:          0  itMISS:          0  dtACCESS:          0  dtHIT:          0  dtMISS:          0
cpu0_L1I TRANSLATION  ACCESS:          0  HIT:          0  MISS:          0  iACCESS:          0  iHIT:          0  iMISS:          0  dACCESS:          0  dHIT:          0  dMISS:          0  itACCESS:          0  itHIT:          0  itMISS:          0  dtACCESS:          0  dtHIT:          0  dtMISS:          0
cpu0_L1I PREFETCH  REQUESTED:   30272093  ISSUED:   30270853  CROSSED:          0  USEFUL:    2200611  USELESS:     751108
cpu0_L1I AVERAGE iMISS LATENCY: 23.0235 cycles
cpu0_L1I AVERAGE dMISS LATENCY: 0 cycles
cpu0_L1I AVERAGE itMISS LATENCY: 0 cycles
cpu0_L1I AVERAGE dtMISS LATENCY: 0 cycles
cpu0_L1I PAGE CROSSINGS (TLB HIT):         0 
cpu0_L1I PAGE CROSSINGS (TLB MISS):         0 
cpu0_L1I AVERAGE MISS LATENCY: 23.0235 cycles
cpu0_ITLB TOTAL       ACCESS:   33073046  HIT:   30877030  MISS:    2196016  iACCESS:   33073046  iHIT:   30877030  iMISS:    2196016  dACCESS:          0  dHIT:          0  dMISS:          0  itACCESS:          0  itHIT:          0  itMISS:          0  dtACCESS:          0  dtHIT:          0  dtMISS:          0
cpu0_ITLB LOAD         ACCESS:   33073046  HIT:   30877030  MISS:    2196016  iACCESS:   33073046  iHIT:   30877030  iMISS:    2196016  dACCESS:          0  dHIT:          0  dMISS:          0  itACCESS:          0  itHIT:          0  itMISS:          0  dtACCESS:          0  dtHIT:          0  dtMISS:          0
cpu0_ITLB RFO          ACCESS:          0  HIT:          0  MISS:          0  iACCESS:          0  iHIT:          0  iMISS:          0  dACCESS:          0  dHIT:          0  dMISS:          0  itACCESS:          0  itHIT:          0  itMISS:          0  dtACCESS:          0  dtHIT:          0  dtMISS:          0
cpu0_ITLB PREFETCH     ACCESS:          0  HIT:          0  MISS:          0  iACCESS:          0  iHIT:          0  iMISS:          0  dACCESS:          0  dHIT:          0  dMISS:          0  itACCESS:          0  itHIT:          0  itMISS:          0  dtACCESS:          0  dtHIT:          0  dtMISS:          0
cpu0_ITLB WRITE        ACCESS:          0  HIT:          0  MISS:          0  iACCESS:          0  iHIT:          0  iMISS:          0  dACCESS:          0  dHIT:          0  dMISS:          0  itACCESS:          0  itHIT:          0  itMISS:          0  dtACCESS:          0  dtHIT:          0  dtMISS:          0
cpu0_ITLB TRANSLATION  ACCESS:          0  HIT:          0  MISS:          0  iACCESS:          0  iHIT:          0  iMISS:          0  dACCESS:          0  dHIT:          0  dMISS:          0  itACCESS:          0  itHIT:          0  itMISS:          0  dtACCESS:          0  dtHIT:          0  dtMISS:          0
cpu0_ITLB PREFETCH  REQUESTED:          0  ISSUED:          0  CROSSED:          0  USEFUL:     383625  USELESS:      77274
cpu0_ITLB AVERAGE iMISS LATENCY: 7.57567 cycles
cpu0_ITLB AVERAGE dMISS LATENCY: 0 cycles
cpu0_ITLB AVERAGE itMISS LATENCY: 0 cycles
cpu0_ITLB AVERAGE dtMISS LATENCY: 0 cycles
cpu0_ITLB PAGE CROSSINGS (TLB HIT):         0 
cpu0_ITLB PAGE CROSSINGS (TLB MISS):         0 
cpu0_ITLB AVERAGE MISS LATENCY: 7.57567 cycles
cpu0_DTLB TOTAL       ACCESS:   28788189  HIT:   25114285  MISS:    3673904  iACCESS:          0  iHIT:          0  iMISS:          0  dACCESS:   28788189  dHIT:   25114285  dMISS:    3673904  itACCESS:          0  itHIT:          0  itMISS:          0  dtACCESS:          0  dtHIT:          0  dtMISS:          0
cpu0_DTLB LOAD         ACCESS:   28788189  HIT:   25114285  MISS:    3673904  iACCESS:          0  iHIT:          0  iMISS:          0  dACCESS:   28788189  dHIT:   25114285  dMISS:    3673904  itACCESS:          0  itHIT:          0  itMISS:          0  dtACCESS:          0  dtHIT:          0  dtMISS:          0
cpu0_DTLB RFO          ACCESS:          0  HIT:          0  MISS:          0  iACCESS:          0  iHIT:          0  iMISS:          0  dACCESS:          0  dHIT:          0  dMISS:          0  itACCESS:          0  itHIT:          0  itMISS:          0  dtACCESS:          0  dtHIT:          0  dtMISS:          0
cpu0_DTLB PREFETCH     ACCESS:          0  HIT:          0  MISS:          0  iACCESS:          0  iHIT:          0  iMISS:          0  dACCESS:          0  dHIT:          0  dMISS:          0  itACCESS:          0  itHIT:          0  itMISS:          0  dtACCESS:          0  dtHIT:          0  dtMISS:          0
cpu0_DTLB WRITE        ACCESS:          0  HIT:          0  MISS:          0  iACCESS:          0  iHIT:          0  iMISS:          0  dACCESS:          0  dHIT:          0  dMISS:          0  itACCESS:          0  itHIT:          0  itMISS:          0  dtACCESS:          0  dtHIT:          0  dtMISS:          0
cpu0_DTLB TRANSLATION  ACCESS:          0  HIT:          0  MISS:          0  iACCESS:          0  iHIT:          0  iMISS:          0  dACCESS:          0  dHIT:          0  dMISS:          0  itACCESS:          0  itHIT:          0  itMISS:          0  dtACCESS:          0  dtHIT:          0  dtMISS:          0
cpu0_DTLB PREFETCH  REQUESTED:          0  ISSUED:          0  CROSSED:          0  USEFUL:          0  USELESS:          0
cpu0_DTLB AVERAGE iMISS LATENCY: 0 cycles
cpu0_DTLB AVERAGE dMISS LATENCY: 16.6761 cycles
cpu0_DTLB AVERAGE itMISS LATENCY: 0 cycles
cpu0_DTLB AVERAGE dtMISS LATENCY: 0 cycles
cpu0_DTLB PAGE CROSSINGS (TLB HIT):         0 
cpu0_DTLB PAGE CROSSINGS (TLB MISS):         0 
cpu0_DTLB AVERAGE MISS LATENCY: 16.6761 cycles
cpu0_STLB TOTAL       ACCESS:    2609070  HIT:    2239517  MISS:     369553  iACCESS:     460911  iHIT:     352777  iMISS:     108134  dACCESS:    2148159  dHIT:    1886740  dMISS:     261419  itACCESS:          0  itHIT:          0  itMISS:          0  dtACCESS:          0  dtHIT:          0  dtMISS:          0
cpu0_STLB LOAD         ACCESS:    2609070  HIT:    2239517  MISS:     369553  iACCESS:     460911  iHIT:     352777  iMISS:     108134  dACCESS:    2148159  dHIT:    1886740  dMISS:     261419  itACCESS:          0  itHIT:          0  itMISS:          0  dtACCESS:          0  dtHIT:          0  dtMISS:          0
cpu0_STLB RFO          ACCESS:          0  HIT:          0  MISS:          0  iACCESS:          0  iHIT:          0  iMISS:          0  dACCESS:          0  dHIT:          0  dMISS:          0  itACCESS:          0  itHIT:          0  itMISS:          0  dtACCESS:          0  dtHIT:          0  dtMISS:          0
cpu0_STLB PREFETCH     ACCESS:          0  HIT:          0  MISS:          0  iACCESS:          0  iHIT:          0  iMISS:          0  dACCESS:          0  dHIT:          0  dMISS:          0  itACCESS:          0  itHIT:          0  itMISS:          0  dtACCESS:          0  dtHIT:          0  dtMISS:          0
cpu0_STLB WRITE        ACCESS:          0  HIT:          0  MISS:          0  iACCESS:          0  iHIT:          0  iMISS:          0  dACCESS:          0  dHIT:          0  dMISS:          0  itACCESS:          0  itHIT:          0  itMISS:          0  dtACCESS:          0  dtHIT:          0  dtMISS:          0
cpu0_STLB TRANSLATION  ACCESS:          0  HIT:          0  MISS:          0  iACCESS:          0  iHIT:          0  iMISS:          0  dACCESS:          0  dHIT:          0  dMISS:          0  itACCESS:          0  itHIT:          0  itMISS:          0  dtACCESS:          0  dtHIT:          0  dtMISS:          0
cpu0_STLB PREFETCH  REQUESTED:          0  ISSUED:          0  CROSSED:          0  USEFUL:          0  USELESS:          0
cpu0_STLB AVERAGE iMISS LATENCY: 35.0665 cycles
cpu0_STLB AVERAGE dMISS LATENCY: 119.088 cycles
cpu0_STLB AVERAGE itMISS LATENCY: 0 cycles
cpu0_STLB AVERAGE dtMISS LATENCY: 0 cycles
cpu0_STLB PAGE CROSSINGS (TLB HIT):         0 
cpu0_STLB PAGE CROSSINGS (TLB MISS):         0 
cpu0_STLB AVERAGE MISS LATENCY: 154.155 cycles
cpu0_L1D TOTAL       ACCESS:   44437017  HIT:   39103543  MISS:    5333474  iACCESS:          0  iHIT:          0  iMISS:          0  dACCESS:   43890867  dHIT:   39069100  dMISS:    4821767  itACCESS:     121949  itHIT:      14369  itMISS:     107580  dtACCESS:     424201  dtHIT:      20074  dtMISS:     404127
cpu0_L1D LOAD         ACCESS:   20022537  HIT:   17865195  MISS:    2157342  iACCESS:          0  iHIT:          0  iMISS:          0  dACCESS:   20022537  dHIT:   17865195  dMISS:    2157342  itACCESS:          0  itHIT:          0  itMISS:          0  dtACCESS:          0  dtHIT:          0  dtMISS:          0
cpu0_L1D RFO          ACCESS:          0  HIT:          0  MISS:          0  iACCESS:          0  iHIT:          0  iMISS:          0  dACCESS:          0  dHIT:          0  dMISS:          0  itACCESS:          0  itHIT:          0  itMISS:          0  dtACCESS:          0  dtHIT:          0  dtMISS:          0
cpu0_L1D PREFETCH     ACCESS:   13732096  HIT:   11626793  MISS:    2105303  iACCESS:          0  iHIT:          0  iMISS:          0  dACCESS:   13732096  dHIT:   11626793  dMISS:    2105303  itACCESS:          0  itHIT:          0  itMISS:          0  dtACCESS:          0  dtHIT:          0  dtMISS:          0
cpu0_L1D WRITE        ACCESS:   10136234  HIT:    9577112  MISS:     559122  iACCESS:          0  iHIT:          0  iMISS:          0  dACCESS:   10136234  dHIT:    9577112  dMISS:     559122  itACCESS:          0  itHIT:          0  itMISS:          0  dtACCESS:          0  dtHIT:          0  dtMISS:          0
cpu0_L1D TRANSLATION  ACCESS:     546150  HIT:      34443  MISS:     511707  iACCESS:          0  iHIT:          0  iMISS:          0  dACCESS:          0  dHIT:          0  dMISS:          0  itACCESS:     121949  itHIT:      14369  itMISS:     107580  dtACCESS:     424201  dtHIT:      20074  dtMISS:     404127
cpu0_L1D PREFETCH  REQUESTED:   20022537  ISSUED:   18358789  CROSSED:          0  USEFUL:     358614  USELESS:     931991
cpu0_L1D AVERAGE iMISS LATENCY: 0 cycles
cpu0_L1D AVERAGE dMISS LATENCY: 52.2901 cycles
cpu0_L1D AVERAGE itMISS LATENCY: 2.24239 cycles
cpu0_L1D AVERAGE dtMISS LATENCY: 7.26395 cycles
cpu0_L1D PAGE CROSSINGS (TLB HIT):         0 
cpu0_L1D PAGE CROSSINGS (TLB MISS):         0 
cpu0_L1D AVERAGE MISS LATENCY: 61.7965 cycles
cpu0_L2C TOTAL       ACCESS:    8554274  HIT:    1541994  MISS:    7012280  iACCESS:    3751665  iHIT:     824823  iMISS:    2926842  dACCESS:    4320238  dHIT:     520703  dMISS:    3799535  itACCESS:     106992  itHIT:      37616  itMISS:      69376  dtACCESS:     375379  dtHIT:     158852  dtMISS:     216527
cpu0_L2C LOAD         ACCESS:    2044223  HIT:     204671  MISS:    1839552  iACCESS:     836815  iHIT:     118831  iMISS:     717984  dACCESS:    1207408  dHIT:      85840  dMISS:    1121568  itACCESS:          0  itHIT:          0  itMISS:          0  dtACCESS:          0  dtHIT:          0  dtMISS:          0
cpu0_L2C RFO          ACCESS:     209598  HIT:      27499  MISS:     182099  iACCESS:          0  iHIT:          0  iMISS:          0  dACCESS:     209598  dHIT:      27499  dMISS:     182099  itACCESS:          0  itHIT:          0  itMISS:          0  dtACCESS:          0  dtHIT:          0  dtMISS:          0
cpu0_L2C PREFETCH     ACCESS:    5471999  HIT:    1012514  MISS:    4459485  iACCESS:    2914850  iHIT:     705992  iMISS:    2208858  dACCESS:    2557149  dHIT:     306522  dMISS:    2250627  itACCESS:          0  itHIT:          0  itMISS:          0  dtACCESS:          0  dtHIT:          0  dtMISS:          0
cpu0_L2C WRITE        ACCESS:     346083  HIT:     100842  MISS:     245241  iACCESS:          0  iHIT:          0  iMISS:          0  dACCESS:     346083  dHIT:     100842  dMISS:     245241  itACCESS:          0  itHIT:          0  itMISS:          0  dtACCESS:          0  dtHIT:          0  dtMISS:          0
cpu0_L2C TRANSLATION  ACCESS:     482371  HIT:     196468  MISS:     285903  iACCESS:          0  iHIT:          0  iMISS:          0  dACCESS:          0  dHIT:          0  dMISS:          0  itACCESS:     106992  itHIT:      37616  itMISS:      69376  dtACCESS:     375379  dtHIT:     158852  dtMISS:     216527
cpu0_L2C PREFETCH  REQUESTED:    1515336  ISSUED:    1515331  CROSSED:          0  USEFUL:     414847  USELESS:     484840
cpu0_L2C AVERAGE iMISS LATENCY: 25.409 cycles
cpu0_L2C AVERAGE dMISS LATENCY: 48.8656 cycles
cpu0_L2C AVERAGE itMISS LATENCY: 1.55791 cycles
cpu0_L2C AVERAGE dtMISS LATENCY: 5.00984 cycles
cpu0_L2C PAGE CROSSINGS (TLB HIT):         0 
cpu0_L2C PAGE CROSSINGS (TLB MISS):         0 
cpu0_L2C AVERAGE MISS LATENCY: 80.8423 cycles
LLC TOTAL       ACCESS:    6831997  HIT:    4252917  MISS:    2579080  iACCESS:    2833644  iHIT:    2045153  iMISS:     788491  dACCESS:    3712450  dHIT:    2138872  dMISS:    1573578  itACCESS:      69376  itHIT:      15803  itMISS:      53573  dtACCESS:     216527  dtHIT:      53089  dtMISS:     163438
LLC LOAD         ACCESS:    1833825  HIT:    1211211  MISS:     622614  iACCESS:     716622  iHIT:     552260  iMISS:     164362  dACCESS:    1117203  dHIT:     658951  dMISS:     458252  itACCESS:          0  itHIT:          0  itMISS:          0  dtACCESS:          0  dtHIT:          0  dtMISS:          0
LLC RFO          ACCESS:     182080  HIT:      96070  MISS:      86010  iACCESS:          0  iHIT:          0  iMISS:          0  dACCESS:     182080  dHIT:      96070  dMISS:      86010  itACCESS:          0  itHIT:          0  itMISS:          0  dtACCESS:          0  dtHIT:          0  dtMISS:          0
LLC PREFETCH     ACCESS:    4250916  HIT:    2604182  MISS:    1646734  iACCESS:    2117022  iHIT:    1492893  iMISS:     624129  dACCESS:    2133894  dHIT:    1111289  dMISS:    1022605  itACCESS:          0  itHIT:          0  itMISS:          0  dtACCESS:          0  dtHIT:          0  dtMISS:          0
LLC WRITE        ACCESS:     279273  HIT:     272562  MISS:       6711  iACCESS:          0  iHIT:          0  iMISS:          0  dACCESS:     279273  dHIT:     272562  dMISS:       6711  itACCESS:          0  itHIT:          0  itMISS:          0  dtACCESS:          0  dtHIT:          0  dtMISS:          0
LLC TRANSLATION  ACCESS:     285903  HIT:      68892  MISS:     217011  iACCESS:          0  iHIT:          0  iMISS:          0  dACCESS:          0  dHIT:          0  dMISS:          0  itACCESS:      69376  itHIT:      15803  itMISS:      53573  dtACCESS:     216527  dtHIT:      53089  dtMISS:     163438
LLC PREFETCH  REQUESTED:          0  ISSUED:          0  CROSSED:          0  USEFUL:          0  USELESS:          0
LLC AVERAGE iMISS LATENCY: 47.7589 cycles
LLC AVERAGE dMISS LATENCY: 107.643 cycles
LLC AVERAGE itMISS LATENCY: 3.7057 cycles
LLC AVERAGE dtMISS LATENCY: 11.9684 cycles
LLC PAGE CROSSINGS (TLB HIT):         0 
LLC PAGE CROSSINGS (TLB MISS):         0 
LLC AVERAGE MISS LATENCY: 171.076 cycles

PageTableWalker TOTAL       ACCESS:     184683  
PageTableWalker AVERAGE LATENCY: 5.95141 cycles
PageTableWalker TOTAL LATENCY: 1099123 cycles

DRAM Statistics
Channel 0
 RQ ROW_BUFFER_HIT:     579521
  ROW_BUFFER_MISS:    1982816
 AVG DBUS CONGESTED CYCLE:    3.64817
 WQ ROW_BUFFER_HIT:      65266
  ROW_BUFFER_MISS:      63001  FULL:          0

