last_page:0x200000000000000
VMEM_RES_CAP:0x100000
PAGE_SIZE:4096
LOG2_PAGE_SIZE:12
LOG2_PAGE_TABLE_SIZE:9
page_table_levels:5
WARNING: physical memory size is smaller than virtual memory size
FDiP enabled with aggresivity 16

*** ChampSim Multicore Out-of-Order Simulator ***

Warmup Instructions: 50000000
Simulation Instructions: 100000000
Number of CPUs: 1
Small page size: 4096
Large page size: 2097152

CPU 0 Bimodal branch predictor
Basic BTB sets: 1024 ways: 8 indirect buffer size: 4096 RAS size: 64
Instruction page size distrubution: 0
Loading instruction page size distribution from /home/bsc/bsc018186/scratch/itp_asplos25_AE/dump/smt_srv85_ap_srv697_ap_1024i.pdst
Data page size distrubution: 0
Loading data page size distribution from /home/bsc/bsc018186/scratch/itp_asplos25_AE/dump/smt_srv85_ap_srv697_ap_1024i.pdst
cpu0_L2C IP-based stride prefetcher
cpu0_L2C is using PTP replacement policy:
	TLB_STRESS_THRESHOLD:0
	PTE_EVICTION_RATIO:0
cpu0_L1D next line prefetcher
cpu0_L1I next line prefetcher
Off-chip DRAM Size: 4 GiB Channels: 1 Width: 64-bit Data Rate: 3200 MT/s
Heartbeat CPU 0 instructions: 10000002 cycles: 2500355 heartbeat IPC: 3.99944 cumulative IPC: 3.99944 (Simulation time: 0 hr 0 min 45 sec) 
Heartbeat CPU 0 instructions: 20000003 cycles: 5000708 heartbeat IPC: 3.99944 cumulative IPC: 3.99944 (Simulation time: 0 hr 1 min 31 sec) 
Heartbeat CPU 0 instructions: 30000002 cycles: 7501124 heartbeat IPC: 3.99934 cumulative IPC: 3.99941 (Simulation time: 0 hr 2 min 18 sec) 
Heartbeat CPU 0 instructions: 40000003 cycles: 10001328 heartbeat IPC: 3.99968 cumulative IPC: 3.99947 (Simulation time: 0 hr 3 min 6 sec) 
Heartbeat CPU 0 instructions: 50000003 cycles: 12501705 heartbeat IPC: 3.9994 cumulative IPC: 3.99946 (Simulation time: 0 hr 3 min 52 sec) 
Warmup finished CPU 0 instructions: 50000003 cycles: 12501706 cumulative IPC: 3.99946 (Simulation time: 0 hr 3 min 52 sec) 

Warmup complete CPU 0 instructions: 50000003 cycles: 12501706 (Simulation time: 0 hr 3 min 52 sec) 

Heartbeat CPU 0 instructions: 60000003 cycles: 42178327 heartbeat IPC: 0.336966 cumulative IPC: 0.336966 (Simulation time: 0 hr 5 min 20 sec) 
Heartbeat CPU 0 instructions: 70000002 cycles: 70772999 heartbeat IPC: 0.349716 cumulative IPC: 0.343223 (Simulation time: 0 hr 6 min 45 sec) 
Heartbeat CPU 0 instructions: 80000002 cycles: 100037121 heartbeat IPC: 0.341716 cumulative IPC: 0.342719 (Simulation time: 0 hr 8 min 10 sec) 
Heartbeat CPU 0 instructions: 90000002 cycles: 130012511 heartbeat IPC: 0.333608 cumulative IPC: 0.340395 (Simulation time: 0 hr 9 min 36 sec) 
Heartbeat CPU 0 instructions: 100000000 cycles: 159318153 heartbeat IPC: 0.341232 cumulative IPC: 0.340562 (Simulation time: 0 hr 11 min 1 sec) 
Heartbeat CPU 0 instructions: 110000002 cycles: 188336946 heartbeat IPC: 0.344605 cumulative IPC: 0.341229 (Simulation time: 0 hr 12 min 33 sec) 
Heartbeat CPU 0 instructions: 120000001 cycles: 217845243 heartbeat IPC: 0.338888 cumulative IPC: 0.340893 (Simulation time: 0 hr 14 min 1 sec) 
Heartbeat CPU 0 instructions: 130000004 cycles: 247177002 heartbeat IPC: 0.340928 cumulative IPC: 0.340897 (Simulation time: 0 hr 15 min 25 sec) 
Heartbeat CPU 0 instructions: 140000003 cycles: 275634924 heartbeat IPC: 0.351396 cumulative IPC: 0.342033 (Simulation time: 0 hr 16 min 52 sec) 
Heartbeat CPU 0 instructions: 150000001 cycles: 305184237 heartbeat IPC: 0.338418 cumulative IPC: 0.341668 (Simulation time: 0 hr 18 min 30 sec) 
Simulation finished CPU 0 instructions: 100000003 cycles: 292682533 cumulative IPC: 0.341668 (Simulation time: 0 hr 18 min 30 sec) 

Simulation complete CPU 0 instructions: 100000003 cycles: 292682533 (Simulation time: 0 hr 18 min 30 sec) 


ChampSim completed all CPUs

Saving instructions large page distribution to /home/bsc/bsc018186/scratch/itp_asplos25_AE/dump/smt_srv85_ap_srv697_ap_1024i.pdst...
Saving data large page distribution to /home/bsc/bsc018186/scratch/itp_asplos25_AE/dump/smt_srv85_ap_srv697_ap_1024i.pdst...
=== Simulation ===
CPU 0 runs /gpfs/projects/bsc18/MN4/bsc18/romol/ChampSim/traces/qualcomm_srv/smt_srv85_ap_srv697_ap_1024i.champsimtrace.xz

Region of Interest Statistics

CPU 0 cumulative IPC: 0.341668 instructions: 100000003 cycles: 292682533
CPU 0 Branch Prediction Accuracy: 75.8097% MPKI: 43.476 Average ROB Occupancy at Mispredict: 11.3792
Branch type MPKI
BRANCH_DIRECT_JUMP: 1.31006
BRANCH_INDIRECT: 22.7115
BRANCH_CONDITIONAL: 12.6022
BRANCH_DIRECT_CALL: 2.48505
BRANCH_INDIRECT_CALL: 0.92767
BRANCH_RETURN: 3.43951

Instructions large pages: 0
Instructions small pages: 13219
Large page distribution for instructions: 0%

Data large pages: 0
Data small pages: 11961
Large page distribution for data: 0%

cpu0_L1I TOTAL       ACCESS:   39071208  HIT:   30381176  MISS:    8690032  iACCESS:   39071208  iHIT:   30381176  iMISS:    8690032  dACCESS:          0  dHIT:          0  dMISS:          0  itACCESS:          0  itHIT:          0  itMISS:          0  dtACCESS:          0  dtHIT:          0  dtMISS:          0
cpu0_L1I LOAD         ACCESS:   11748737  HIT:    9375675  MISS:    2373062  iACCESS:   11748737  iHIT:    9375675  iMISS:    2373062  dACCESS:          0  dHIT:          0  dMISS:          0  itACCESS:          0  itHIT:          0  itMISS:          0  dtACCESS:          0  dtHIT:          0  dtMISS:          0
cpu0_L1I RFO          ACCESS:          0  HIT:          0  MISS:          0  iACCESS:          0  iHIT:          0  iMISS:          0  dACCESS:          0  dHIT:          0  dMISS:          0  itACCESS:          0  itHIT:          0  itMISS:          0  dtACCESS:          0  dtHIT:          0  dtMISS:          0
cpu0_L1I PREFETCH     ACCESS:   27322471  HIT:   21005501  MISS:    6316970  iACCESS:   27322471  iHIT:   21005501  iMISS:    6316970  dACCESS:          0  dHIT:          0  dMISS:          0  itACCESS:          0  itHIT:          0  itMISS:          0  dtACCESS:          0  dtHIT:          0  dtMISS:          0
cpu0_L1I WRITE        ACCESS:          0  HIT:          0  MISS:          0  iACCESS:          0  iHIT:          0  iMISS:          0  dACCESS:          0  dHIT:          0  dMISS:          0  itACCESS:          0  itHIT:          0  itMISS:          0  dtACCESS:          0  dtHIT:          0  dtMISS:          0
cpu0_L1I TRANSLATION  ACCESS:          0  HIT:          0  MISS:          0  iACCESS:          0  iHIT:          0  iMISS:          0  dACCESS:          0  dHIT:          0  dMISS:          0  itACCESS:          0  itHIT:          0  itMISS:          0  dtACCESS:          0  dtHIT:          0  dtMISS:          0
cpu0_L1I PREFETCH  REQUESTED:   30190730  ISSUED:   30190580  CROSSED:          0  USEFUL:    2197911  USELESS:     754819
cpu0_L1I AVERAGE iMISS LATENCY: 23.4388 cycles
cpu0_L1I AVERAGE dMISS LATENCY: 0 cycles
cpu0_L1I AVERAGE itMISS LATENCY: 0 cycles
cpu0_L1I AVERAGE dtMISS LATENCY: 0 cycles
cpu0_L1I PAGE CROSSINGS (TLB HIT):         0 
cpu0_L1I PAGE CROSSINGS (TLB MISS):         0 
cpu0_L1I AVERAGE MISS LATENCY: 23.4388 cycles
cpu0_ITLB TOTAL       ACCESS:   32978759  HIT:   30776447  MISS:    2202312  iACCESS:   32978759  iHIT:   30776447  iMISS:    2202312  dACCESS:          0  dHIT:          0  dMISS:          0  itACCESS:          0  itHIT:          0  itMISS:          0  dtACCESS:          0  dtHIT:          0  dtMISS:          0
cpu0_ITLB LOAD         ACCESS:   32978759  HIT:   30776447  MISS:    2202312  iACCESS:   32978759  iHIT:   30776447  iMISS:    2202312  dACCESS:          0  dHIT:          0  dMISS:          0  itACCESS:          0  itHIT:          0  itMISS:          0  dtACCESS:          0  dtHIT:          0  dtMISS:          0
cpu0_ITLB RFO          ACCESS:          0  HIT:          0  MISS:          0  iACCESS:          0  iHIT:          0  iMISS:          0  dACCESS:          0  dHIT:          0  dMISS:          0  itACCESS:          0  itHIT:          0  itMISS:          0  dtACCESS:          0  dtHIT:          0  dtMISS:          0
cpu0_ITLB PREFETCH     ACCESS:          0  HIT:          0  MISS:          0  iACCESS:          0  iHIT:          0  iMISS:          0  dACCESS:          0  dHIT:          0  dMISS:          0  itACCESS:          0  itHIT:          0  itMISS:          0  dtACCESS:          0  dtHIT:          0  dtMISS:          0
cpu0_ITLB WRITE        ACCESS:          0  HIT:          0  MISS:          0  iACCESS:          0  iHIT:          0  iMISS:          0  dACCESS:          0  dHIT:          0  dMISS:          0  itACCESS:          0  itHIT:          0  itMISS:          0  dtACCESS:          0  dtHIT:          0  dtMISS:          0
cpu0_ITLB TRANSLATION  ACCESS:          0  HIT:          0  MISS:          0  iACCESS:          0  iHIT:          0  iMISS:          0  dACCESS:          0  dHIT:          0  dMISS:          0  itACCESS:          0  itHIT:          0  itMISS:          0  dtACCESS:          0  dtHIT:          0  dtMISS:          0
cpu0_ITLB PREFETCH  REQUESTED:          0  ISSUED:          0  CROSSED:          0  USEFUL:     383557  USELESS:      77728
cpu0_ITLB AVERAGE iMISS LATENCY: 9.95271 cycles
cpu0_ITLB AVERAGE dMISS LATENCY: 0 cycles
cpu0_ITLB AVERAGE itMISS LATENCY: 0 cycles
cpu0_ITLB AVERAGE dtMISS LATENCY: 0 cycles
cpu0_ITLB PAGE CROSSINGS (TLB HIT):         0 
cpu0_ITLB PAGE CROSSINGS (TLB MISS):         0 
cpu0_ITLB AVERAGE MISS LATENCY: 9.95271 cycles
cpu0_DTLB TOTAL       ACCESS:   28768403  HIT:   25042055  MISS:    3726348  iACCESS:          0  iHIT:          0  iMISS:          0  dACCESS:   28768403  dHIT:   25042055  dMISS:    3726348  itACCESS:          0  itHIT:          0  itMISS:          0  dtACCESS:          0  dtHIT:          0  dtMISS:          0
cpu0_DTLB LOAD         ACCESS:   28768403  HIT:   25042055  MISS:    3726348  iACCESS:          0  iHIT:          0  iMISS:          0  dACCESS:   28768403  dHIT:   25042055  dMISS:    3726348  itACCESS:          0  itHIT:          0  itMISS:          0  dtACCESS:          0  dtHIT:          0  dtMISS:          0
cpu0_DTLB RFO          ACCESS:          0  HIT:          0  MISS:          0  iACCESS:          0  iHIT:          0  iMISS:          0  dACCESS:          0  dHIT:          0  dMISS:          0  itACCESS:          0  itHIT:          0  itMISS:          0  dtACCESS:          0  dtHIT:          0  dtMISS:          0
cpu0_DTLB PREFETCH     ACCESS:          0  HIT:          0  MISS:          0  iACCESS:          0  iHIT:          0  iMISS:          0  dACCESS:          0  dHIT:          0  dMISS:          0  itACCESS:          0  itHIT:          0  itMISS:          0  dtACCESS:          0  dtHIT:          0  dtMISS:          0
cpu0_DTLB WRITE        ACCESS:          0  HIT:          0  MISS:          0  iACCESS:          0  iHIT:          0  iMISS:          0  dACCESS:          0  dHIT:          0  dMISS:          0  itACCESS:          0  itHIT:          0  itMISS:          0  dtACCESS:          0  dtHIT:          0  dtMISS:          0
cpu0_DTLB TRANSLATION  ACCESS:          0  HIT:          0  MISS:          0  iACCESS:          0  iHIT:          0  iMISS:          0  dACCESS:          0  dHIT:          0  dMISS:          0  itACCESS:          0  itHIT:          0  itMISS:          0  dtACCESS:          0  dtHIT:          0  dtMISS:          0
cpu0_DTLB PREFETCH  REQUESTED:          0  ISSUED:          0  CROSSED:          0  USEFUL:          0  USELESS:          0
cpu0_DTLB AVERAGE iMISS LATENCY: 0 cycles
cpu0_DTLB AVERAGE dMISS LATENCY: 24.3284 cycles
cpu0_DTLB AVERAGE itMISS LATENCY: 0 cycles
cpu0_DTLB AVERAGE dtMISS LATENCY: 0 cycles
cpu0_DTLB PAGE CROSSINGS (TLB HIT):         0 
cpu0_DTLB PAGE CROSSINGS (TLB MISS):         0 
cpu0_DTLB AVERAGE MISS LATENCY: 24.3284 cycles
cpu0_STLB TOTAL       ACCESS:    2619629  HIT:    2251840  MISS:     367789  iACCESS:     461284  iHIT:     353414  iMISS:     107870  dACCESS:    2158345  dHIT:    1898426  dMISS:     259919  itACCESS:          0  itHIT:          0  itMISS:          0  dtACCESS:          0  dtHIT:          0  dtMISS:          0
cpu0_STLB LOAD         ACCESS:    2619629  HIT:    2251840  MISS:     367789  iACCESS:     461284  iHIT:     353414  iMISS:     107870  dACCESS:    2158345  dHIT:    1898426  dMISS:     259919  itACCESS:          0  itHIT:          0  itMISS:          0  dtACCESS:          0  dtHIT:          0  dtMISS:          0
cpu0_STLB RFO          ACCESS:          0  HIT:          0  MISS:          0  iACCESS:          0  iHIT:          0  iMISS:          0  dACCESS:          0  dHIT:          0  dMISS:          0  itACCESS:          0  itHIT:          0  itMISS:          0  dtACCESS:          0  dtHIT:          0  dtMISS:          0
cpu0_STLB PREFETCH     ACCESS:          0  HIT:          0  MISS:          0  iACCESS:          0  iHIT:          0  iMISS:          0  dACCESS:          0  dHIT:          0  dMISS:          0  itACCESS:          0  itHIT:          0  itMISS:          0  dtACCESS:          0  dtHIT:          0  dtMISS:          0
cpu0_STLB WRITE        ACCESS:          0  HIT:          0  MISS:          0  iACCESS:          0  iHIT:          0  iMISS:          0  dACCESS:          0  dHIT:          0  dMISS:          0  itACCESS:          0  itHIT:          0  itMISS:          0  dtACCESS:          0  dtHIT:          0  dtMISS:          0
cpu0_STLB TRANSLATION  ACCESS:          0  HIT:          0  MISS:          0  iACCESS:          0  iHIT:          0  iMISS:          0  dACCESS:          0  dHIT:          0  dMISS:          0  itACCESS:          0  itHIT:          0  itMISS:          0  dtACCESS:          0  dtHIT:          0  dtMISS:          0
cpu0_STLB PREFETCH  REQUESTED:          0  ISSUED:          0  CROSSED:          0  USEFUL:          0  USELESS:          0
cpu0_STLB AVERAGE iMISS LATENCY: 49.5795 cycles
cpu0_STLB AVERAGE dMISS LATENCY: 199.273 cycles
cpu0_STLB AVERAGE itMISS LATENCY: 0 cycles
cpu0_STLB AVERAGE dtMISS LATENCY: 0 cycles
cpu0_STLB PAGE CROSSINGS (TLB HIT):         0 
cpu0_STLB PAGE CROSSINGS (TLB MISS):         0 
cpu0_STLB AVERAGE MISS LATENCY: 248.853 cycles
cpu0_L1D TOTAL       ACCESS:   44393640  HIT:   39091616  MISS:    5302024  iACCESS:          0  iHIT:          0  iMISS:          0  dACCESS:   43847996  dHIT:   39057421  dMISS:    4790575  itACCESS:     123190  itHIT:      14620  itMISS:     108570  dtACCESS:     422454  dtHIT:      19575  dtMISS:     402879
cpu0_L1D LOAD         ACCESS:   19986140  HIT:   17853811  MISS:    2132329  iACCESS:          0  iHIT:          0  iMISS:          0  dACCESS:   19986140  dHIT:   17853811  dMISS:    2132329  itACCESS:          0  itHIT:          0  itMISS:          0  dtACCESS:          0  dtHIT:          0  dtMISS:          0
cpu0_L1D RFO          ACCESS:          0  HIT:          0  MISS:          0  iACCESS:          0  iHIT:          0  iMISS:          0  dACCESS:          0  dHIT:          0  dMISS:          0  itACCESS:          0  itHIT:          0  itMISS:          0  dtACCESS:          0  dtHIT:          0  dtMISS:          0
cpu0_L1D PREFETCH     ACCESS:   13722700  HIT:   11620533  MISS:    2102167  iACCESS:          0  iHIT:          0  iMISS:          0  dACCESS:   13722700  dHIT:   11620533  dMISS:    2102167  itACCESS:          0  itHIT:          0  itMISS:          0  dtACCESS:          0  dtHIT:          0  dtMISS:          0
cpu0_L1D WRITE        ACCESS:   10139156  HIT:    9583077  MISS:     556079  iACCESS:          0  iHIT:          0  iMISS:          0  dACCESS:   10139156  dHIT:    9583077  dMISS:     556079  itACCESS:          0  itHIT:          0  itMISS:          0  dtACCESS:          0  dtHIT:          0  dtMISS:          0
cpu0_L1D TRANSLATION  ACCESS:     545644  HIT:      34195  MISS:     511449  iACCESS:          0  iHIT:          0  iMISS:          0  dACCESS:          0  dHIT:          0  dMISS:          0  itACCESS:     123190  itHIT:      14620  itMISS:     108570  dtACCESS:     422454  dtHIT:      19575  dtMISS:     402879
cpu0_L1D PREFETCH  REQUESTED:   19986140  ISSUED:   18349212  CROSSED:          0  USEFUL:     357746  USELESS:     930339
cpu0_L1D AVERAGE iMISS LATENCY: 0 cycles
cpu0_L1D AVERAGE dMISS LATENCY: 51.3331 cycles
cpu0_L1D AVERAGE itMISS LATENCY: 3.25039 cycles
cpu0_L1D AVERAGE dtMISS LATENCY: 12.8012 cycles
cpu0_L1D PAGE CROSSINGS (TLB HIT):         0 
cpu0_L1D PAGE CROSSINGS (TLB MISS):         0 
cpu0_L1D AVERAGE MISS LATENCY: 67.3847 cycles
cpu0_L2C TOTAL       ACCESS:    8547524  HIT:    4185666  MISS:    4361858  iACCESS:    3757513  iHIT:    2297430  iMISS:    1460083  dACCESS:    4310203  dHIT:    1829724  dMISS:    2480479  itACCESS:     106268  itHIT:      19034  itMISS:      87234  dtACCESS:     373540  dtHIT:      39478  dtMISS:     334062
cpu0_L2C LOAD         ACCESS:    2049037  HIT:    1011010  MISS:    1038027  iACCESS:     843690  iHIT:     540011  iMISS:     303679  dACCESS:    1205347  dHIT:     470999  dMISS:     734348  itACCESS:          0  itHIT:          0  itMISS:          0  dtACCESS:          0  dtHIT:          0  dtMISS:          0
cpu0_L2C RFO          ACCESS:     209410  HIT:      84128  MISS:     125282  iACCESS:          0  iHIT:          0  iMISS:          0  dACCESS:     209410  dHIT:      84128  dMISS:     125282  itACCESS:          0  itHIT:          0  itMISS:          0  dtACCESS:          0  dtHIT:          0  dtMISS:          0
cpu0_L2C PREFETCH     ACCESS:    5463346  HIT:    2690092  MISS:    2773254  iACCESS:    2913823  iHIT:    1757419  iMISS:    1156404  dACCESS:    2549523  dHIT:     932673  dMISS:    1616850  itACCESS:          0  itHIT:          0  itMISS:          0  dtACCESS:          0  dtHIT:          0  dtMISS:          0
cpu0_L2C WRITE        ACCESS:     345923  HIT:     341924  MISS:       3999  iACCESS:          0  iHIT:          0  iMISS:          0  dACCESS:     345923  dHIT:     341924  dMISS:       3999  itACCESS:          0  itHIT:          0  itMISS:          0  dtACCESS:          0  dtHIT:          0  dtMISS:          0
cpu0_L2C TRANSLATION  ACCESS:     479808  HIT:      58512  MISS:     421296  iACCESS:          0  iHIT:          0  iMISS:          0  dACCESS:          0  dHIT:          0  dMISS:          0  itACCESS:     106268  itHIT:      19034  itMISS:      87234  dtACCESS:     373540  dtHIT:      39478  dtMISS:     334062
cpu0_L2C PREFETCH  REQUESTED:    1506975  ISSUED:    1506971  CROSSED:          0  USEFUL:     359114  USELESS:     319204
cpu0_L2C AVERAGE iMISS LATENCY: 39.3817 cycles
cpu0_L2C AVERAGE dMISS LATENCY: 77.47 cycles
cpu0_L2C AVERAGE itMISS LATENCY: 3.71102 cycles
cpu0_L2C AVERAGE dtMISS LATENCY: 14.708 cycles
cpu0_L2C PAGE CROSSINGS (TLB HIT):         0 
cpu0_L2C PAGE CROSSINGS (TLB MISS):         0 
cpu0_L2C AVERAGE MISS LATENCY: 135.271 cycles
LLC TOTAL       ACCESS:    4363375  HIT:    1401921  MISS:    2961454  iACCESS:    1369311  iHIT:     455680  iMISS:     913631  dACCESS:    2572768  dHIT:     903531  dMISS:    1669237  itACCESS:      87234  itHIT:       6528  itMISS:      80706  dtACCESS:     334062  dtHIT:      36182  dtMISS:     297880
LLC LOAD         ACCESS:    1032528  HIT:     352260  MISS:     680268  iACCESS:     302460  iHIT:     107657  iMISS:     194803  dACCESS:     730068  dHIT:     244603  dMISS:     485465  itACCESS:          0  itHIT:          0  itMISS:          0  dtACCESS:          0  dtHIT:          0  dtMISS:          0
LLC RFO          ACCESS:     125280  HIT:      39119  MISS:      86161  iACCESS:          0  iHIT:          0  iMISS:          0  dACCESS:     125280  dHIT:      39119  dMISS:      86161  itACCESS:          0  itHIT:          0  itMISS:          0  dtACCESS:          0  dtHIT:          0  dtMISS:          0
LLC PREFETCH     ACCESS:    2569050  HIT:     763497  MISS:    1805553  iACCESS:    1066851  iHIT:     348023  iMISS:     718828  dACCESS:    1502199  dHIT:     415474  dMISS:    1086725  itACCESS:          0  itHIT:          0  itMISS:          0  dtACCESS:          0  dtHIT:          0  dtMISS:          0
LLC WRITE        ACCESS:     215221  HIT:     204335  MISS:      10886  iACCESS:          0  iHIT:          0  iMISS:          0  dACCESS:     215221  dHIT:     204335  dMISS:      10886  itACCESS:          0  itHIT:          0  itMISS:          0  dtACCESS:          0  dtHIT:          0  dtMISS:          0
LLC TRANSLATION  ACCESS:     421296  HIT:      42710  MISS:     378586  iACCESS:          0  iHIT:          0  iMISS:          0  dACCESS:          0  dHIT:          0  dMISS:          0  itACCESS:      87234  itHIT:       6528  itMISS:      80706  dtACCESS:     334062  dtHIT:      36182  dtMISS:     297880
LLC PREFETCH  REQUESTED:          0  ISSUED:          0  CROSSED:          0  USEFUL:          0  USELESS:          0
LLC AVERAGE iMISS LATENCY: 48.9 cycles
LLC AVERAGE dMISS LATENCY: 99.1129 cycles
LLC AVERAGE itMISS LATENCY: 4.88167 cycles
LLC AVERAGE dtMISS LATENCY: 19.4333 cycles
LLC PAGE CROSSINGS (TLB HIT):         0 
LLC PAGE CROSSINGS (TLB MISS):         0 
LLC AVERAGE MISS LATENCY: 172.328 cycles

PageTableWalker TOTAL       ACCESS:     185877  
PageTableWalker AVERAGE LATENCY: 6.56091 cycles
PageTableWalker TOTAL LATENCY: 1219522 cycles

DRAM Statistics
Channel 0
 RQ ROW_BUFFER_HIT:     620650
  ROW_BUFFER_MISS:    2320138
 AVG DBUS CONGESTED CYCLE:    3.64717
 WQ ROW_BUFFER_HIT:      65145
  ROW_BUFFER_MISS:      55678  FULL:          0

