last_page:0x200000000000000
VMEM_RES_CAP:0x100000
PAGE_SIZE:4096
LOG2_PAGE_SIZE:12
LOG2_PAGE_TABLE_SIZE:9
page_table_levels:5
WARNING: physical memory size is smaller than virtual memory size
FDiP enabled with aggresivity 16

*** ChampSim Multicore Out-of-Order Simulator ***

Warmup Instructions: 50000000
Simulation Instructions: 100000000
Number of CPUs: 1
Small page size: 4096
Large page size: 2097152

CPU 0 Bimodal branch predictor
Basic BTB sets: 1024 ways: 8 indirect buffer size: 4096 RAS size: 64
Instruction page size distrubution: 0
Loading instruction page size distribution from /home/bsc/bsc018186/scratch/itp_asplos25_AE/dump/smt_srv12_ap_srv298_ap_1024i.pdst
Data page size distrubution: 0
Loading data page size distribution from /home/bsc/bsc018186/scratch/itp_asplos25_AE/dump/smt_srv12_ap_srv298_ap_1024i.pdst
cpu0_L2C IP-based stride prefetcher
cpu0_L1D next line prefetcher
CHiRPing...
cpu0_L1I next line prefetcher
Off-chip DRAM Size: 4 GiB Channels: 1 Width: 64-bit Data Rate: 3200 MT/s
Heartbeat CPU 0 instructions: 10000000 cycles: 2500524 heartbeat IPC: 3.99917 cumulative IPC: 3.99917 (Simulation time: 0 hr 0 min 43 sec) 
Heartbeat CPU 0 instructions: 20000000 cycles: 5000790 heartbeat IPC: 3.99958 cumulative IPC: 3.99937 (Simulation time: 0 hr 1 min 31 sec) 
Heartbeat CPU 0 instructions: 30000001 cycles: 7501584 heartbeat IPC: 3.99874 cumulative IPC: 3.99916 (Simulation time: 0 hr 2 min 19 sec) 
Heartbeat CPU 0 instructions: 40000002 cycles: 10001783 heartbeat IPC: 3.99969 cumulative IPC: 3.99929 (Simulation time: 0 hr 3 min 8 sec) 
Heartbeat CPU 0 instructions: 50000003 cycles: 12502222 heartbeat IPC: 3.9993 cumulative IPC: 3.99929 (Simulation time: 0 hr 3 min 55 sec) 
Warmup finished CPU 0 instructions: 50000003 cycles: 12502223 cumulative IPC: 3.99929 (Simulation time: 0 hr 3 min 55 sec) 

Warmup complete CPU 0 instructions: 50000003 cycles: 12502223 (Simulation time: 0 hr 3 min 55 sec) 

Heartbeat CPU 0 instructions: 60000003 cycles: 42207193 heartbeat IPC: 0.336644 cumulative IPC: 0.336645 (Simulation time: 0 hr 5 min 36 sec) 
Heartbeat CPU 0 instructions: 70000001 cycles: 71536447 heartbeat IPC: 0.340957 cumulative IPC: 0.338787 (Simulation time: 0 hr 7 min 16 sec) 
Heartbeat CPU 0 instructions: 80000001 cycles: 100436195 heartbeat IPC: 0.346024 cumulative IPC: 0.341166 (Simulation time: 0 hr 8 min 55 sec) 
Heartbeat CPU 0 instructions: 90000002 cycles: 126403936 heartbeat IPC: 0.385094 cumulative IPC: 0.35118 (Simulation time: 0 hr 10 min 29 sec) 
Heartbeat CPU 0 instructions: 100000000 cycles: 155207043 heartbeat IPC: 0.347185 cumulative IPC: 0.350374 (Simulation time: 0 hr 12 min 8 sec) 
Heartbeat CPU 0 instructions: 110000003 cycles: 184615591 heartbeat IPC: 0.340038 cumulative IPC: 0.348608 (Simulation time: 0 hr 13 min 47 sec) 
Heartbeat CPU 0 instructions: 120000000 cycles: 212701619 heartbeat IPC: 0.356049 cumulative IPC: 0.349652 (Simulation time: 0 hr 15 min 25 sec) 
Heartbeat CPU 0 instructions: 130000003 cycles: 243039691 heartbeat IPC: 0.329619 cumulative IPC: 0.347016 (Simulation time: 0 hr 17 min 6 sec) 
Heartbeat CPU 0 instructions: 140000000 cycles: 273041073 heartbeat IPC: 0.333318 cumulative IPC: 0.345438 (Simulation time: 0 hr 18 min 46 sec) 
Heartbeat CPU 0 instructions: 150000002 cycles: 303339347 heartbeat IPC: 0.330052 cumulative IPC: 0.343836 (Simulation time: 0 hr 20 min 28 sec) 
Simulation finished CPU 0 instructions: 100000004 cycles: 290837126 cumulative IPC: 0.343836 (Simulation time: 0 hr 20 min 28 sec) 

Simulation complete CPU 0 instructions: 100000004 cycles: 290837126 (Simulation time: 0 hr 20 min 28 sec) 


ChampSim completed all CPUs

Saving instructions large page distribution to /home/bsc/bsc018186/scratch/itp_asplos25_AE/dump/smt_srv12_ap_srv298_ap_1024i.pdst...
Saving data large page distribution to /home/bsc/bsc018186/scratch/itp_asplos25_AE/dump/smt_srv12_ap_srv298_ap_1024i.pdst...
=== Simulation ===
CPU 0 runs /gpfs/projects/bsc18/MN4/bsc18/romol/ChampSim/traces/qualcomm_srv/smt_srv12_ap_srv298_ap_1024i.champsimtrace.xz

Region of Interest Statistics

CPU 0 cumulative IPC: 0.343836 instructions: 100000004 cycles: 290837126
CPU 0 Branch Prediction Accuracy: 75.6528% MPKI: 44.0521 Average ROB Occupancy at Mispredict: 11.1638
Branch type MPKI
BRANCH_DIRECT_JUMP: 1.33331
BRANCH_INDIRECT: 22.7363
BRANCH_CONDITIONAL: 12.9124
BRANCH_DIRECT_CALL: 2.56733
BRANCH_INDIRECT_CALL: 1.0555
BRANCH_RETURN: 3.44725

Instructions large pages: 0
Instructions small pages: 14944
Large page distribution for instructions: 0%

Data large pages: 0
Data small pages: 13231
Large page distribution for data: 0%

cpu0_L1I TOTAL       ACCESS:   38970259  HIT:   30332072  MISS:    8638187  iACCESS:   38970259  iHIT:   30332072  iMISS:    8638187  dACCESS:          0  dHIT:          0  dMISS:          0  itACCESS:          0  itHIT:          0  itMISS:          0  dtACCESS:          0  dtHIT:          0  dtMISS:          0
cpu0_L1I LOAD         ACCESS:   11627251  HIT:    9268492  MISS:    2358759  iACCESS:   11627251  iHIT:    9268492  iMISS:    2358759  dACCESS:          0  dHIT:          0  dMISS:          0  itACCESS:          0  itHIT:          0  itMISS:          0  dtACCESS:          0  dtHIT:          0  dtMISS:          0
cpu0_L1I RFO          ACCESS:          0  HIT:          0  MISS:          0  iACCESS:          0  iHIT:          0  iMISS:          0  dACCESS:          0  dHIT:          0  dMISS:          0  itACCESS:          0  itHIT:          0  itMISS:          0  dtACCESS:          0  dtHIT:          0  dtMISS:          0
cpu0_L1I PREFETCH     ACCESS:   27343008  HIT:   21063580  MISS:    6279428  iACCESS:   27343008  iHIT:   21063580  iMISS:    6279428  dACCESS:          0  dHIT:          0  dMISS:          0  itACCESS:          0  itHIT:          0  itMISS:          0  dtACCESS:          0  dtHIT:          0  dtMISS:          0
cpu0_L1I WRITE        ACCESS:          0  HIT:          0  MISS:          0  iACCESS:          0  iHIT:          0  iMISS:          0  dACCESS:          0  dHIT:          0  dMISS:          0  itACCESS:          0  itHIT:          0  itMISS:          0  dtACCESS:          0  dtHIT:          0  dtMISS:          0
cpu0_L1I TRANSLATION  ACCESS:          0  HIT:          0  MISS:          0  iACCESS:          0  iHIT:          0  iMISS:          0  dACCESS:          0  dHIT:          0  dMISS:          0  itACCESS:          0  itHIT:          0  itMISS:          0  dtACCESS:          0  dtHIT:          0  dtMISS:          0
cpu0_L1I PREFETCH  REQUESTED:   30134566  ISSUED:   30134544  CROSSED:          0  USEFUL:    2188159  USELESS:     758973
cpu0_L1I AVERAGE iMISS LATENCY: 23.6823 cycles
cpu0_L1I AVERAGE dMISS LATENCY: 0 cycles
cpu0_L1I AVERAGE itMISS LATENCY: 0 cycles
cpu0_L1I AVERAGE dtMISS LATENCY: 0 cycles
cpu0_L1I PAGE CROSSINGS (TLB HIT):         0 
cpu0_L1I PAGE CROSSINGS (TLB MISS):         0 
cpu0_L1I AVERAGE MISS LATENCY: 23.6823 cycles
cpu0_ITLB TOTAL       ACCESS:   32977941  HIT:   30772998  MISS:    2204943  iACCESS:   32977941  iHIT:   30772998  iMISS:    2204943  dACCESS:          0  dHIT:          0  dMISS:          0  itACCESS:          0  itHIT:          0  itMISS:          0  dtACCESS:          0  dtHIT:          0  dtMISS:          0
cpu0_ITLB LOAD         ACCESS:   32977941  HIT:   30772998  MISS:    2204943  iACCESS:   32977941  iHIT:   30772998  iMISS:    2204943  dACCESS:          0  dHIT:          0  dMISS:          0  itACCESS:          0  itHIT:          0  itMISS:          0  dtACCESS:          0  dtHIT:          0  dtMISS:          0
cpu0_ITLB RFO          ACCESS:          0  HIT:          0  MISS:          0  iACCESS:          0  iHIT:          0  iMISS:          0  dACCESS:          0  dHIT:          0  dMISS:          0  itACCESS:          0  itHIT:          0  itMISS:          0  dtACCESS:          0  dtHIT:          0  dtMISS:          0
cpu0_ITLB PREFETCH     ACCESS:          0  HIT:          0  MISS:          0  iACCESS:          0  iHIT:          0  iMISS:          0  dACCESS:          0  dHIT:          0  dMISS:          0  itACCESS:          0  itHIT:          0  itMISS:          0  dtACCESS:          0  dtHIT:          0  dtMISS:          0
cpu0_ITLB WRITE        ACCESS:          0  HIT:          0  MISS:          0  iACCESS:          0  iHIT:          0  iMISS:          0  dACCESS:          0  dHIT:          0  dMISS:          0  itACCESS:          0  itHIT:          0  itMISS:          0  dtACCESS:          0  dtHIT:          0  dtMISS:          0
cpu0_ITLB TRANSLATION  ACCESS:          0  HIT:          0  MISS:          0  iACCESS:          0  iHIT:          0  iMISS:          0  dACCESS:          0  dHIT:          0  dMISS:          0  itACCESS:          0  itHIT:          0  itMISS:          0  dtACCESS:          0  dtHIT:          0  dtMISS:          0
cpu0_ITLB PREFETCH  REQUESTED:          0  ISSUED:          0  CROSSED:          0  USEFUL:     386841  USELESS:      77797
cpu0_ITLB AVERAGE iMISS LATENCY: 10.0657 cycles
cpu0_ITLB AVERAGE dMISS LATENCY: 0 cycles
cpu0_ITLB AVERAGE itMISS LATENCY: 0 cycles
cpu0_ITLB AVERAGE dtMISS LATENCY: 0 cycles
cpu0_ITLB PAGE CROSSINGS (TLB HIT):         0 
cpu0_ITLB PAGE CROSSINGS (TLB MISS):         0 
cpu0_ITLB AVERAGE MISS LATENCY: 10.0657 cycles
cpu0_DTLB TOTAL       ACCESS:   28886946  HIT:   25273798  MISS:    3613148  iACCESS:          0  iHIT:          0  iMISS:          0  dACCESS:   28886946  dHIT:   25273798  dMISS:    3613148  itACCESS:          0  itHIT:          0  itMISS:          0  dtACCESS:          0  dtHIT:          0  dtMISS:          0
cpu0_DTLB LOAD         ACCESS:   28886946  HIT:   25273798  MISS:    3613148  iACCESS:          0  iHIT:          0  iMISS:          0  dACCESS:   28886946  dHIT:   25273798  dMISS:    3613148  itACCESS:          0  itHIT:          0  itMISS:          0  dtACCESS:          0  dtHIT:          0  dtMISS:          0
cpu0_DTLB RFO          ACCESS:          0  HIT:          0  MISS:          0  iACCESS:          0  iHIT:          0  iMISS:          0  dACCESS:          0  dHIT:          0  dMISS:          0  itACCESS:          0  itHIT:          0  itMISS:          0  dtACCESS:          0  dtHIT:          0  dtMISS:          0
cpu0_DTLB PREFETCH     ACCESS:          0  HIT:          0  MISS:          0  iACCESS:          0  iHIT:          0  iMISS:          0  dACCESS:          0  dHIT:          0  dMISS:          0  itACCESS:          0  itHIT:          0  itMISS:          0  dtACCESS:          0  dtHIT:          0  dtMISS:          0
cpu0_DTLB WRITE        ACCESS:          0  HIT:          0  MISS:          0  iACCESS:          0  iHIT:          0  iMISS:          0  dACCESS:          0  dHIT:          0  dMISS:          0  itACCESS:          0  itHIT:          0  itMISS:          0  dtACCESS:          0  dtHIT:          0  dtMISS:          0
cpu0_DTLB TRANSLATION  ACCESS:          0  HIT:          0  MISS:          0  iACCESS:          0  iHIT:          0  iMISS:          0  dACCESS:          0  dHIT:          0  dMISS:          0  itACCESS:          0  itHIT:          0  itMISS:          0  dtACCESS:          0  dtHIT:          0  dtMISS:          0
cpu0_DTLB PREFETCH  REQUESTED:          0  ISSUED:          0  CROSSED:          0  USEFUL:          0  USELESS:          0
cpu0_DTLB AVERAGE iMISS LATENCY: 0 cycles
cpu0_DTLB AVERAGE dMISS LATENCY: 24.1566 cycles
cpu0_DTLB AVERAGE itMISS LATENCY: 0 cycles
cpu0_DTLB AVERAGE dtMISS LATENCY: 0 cycles
cpu0_DTLB PAGE CROSSINGS (TLB HIT):         0 
cpu0_DTLB PAGE CROSSINGS (TLB MISS):         0 
cpu0_DTLB AVERAGE MISS LATENCY: 24.1566 cycles
cpu0_STLB TOTAL       ACCESS:    2559974  HIT:    2205497  MISS:     354477  iACCESS:     464645  iHIT:     356023  iMISS:     108622  dACCESS:    2095329  dHIT:    1849474  dMISS:     245855  itACCESS:          0  itHIT:          0  itMISS:          0  dtACCESS:          0  dtHIT:          0  dtMISS:          0
cpu0_STLB LOAD         ACCESS:    2559974  HIT:    2205497  MISS:     354477  iACCESS:     464645  iHIT:     356023  iMISS:     108622  dACCESS:    2095329  dHIT:    1849474  dMISS:     245855  itACCESS:          0  itHIT:          0  itMISS:          0  dtACCESS:          0  dtHIT:          0  dtMISS:          0
cpu0_STLB RFO          ACCESS:          0  HIT:          0  MISS:          0  iACCESS:          0  iHIT:          0  iMISS:          0  dACCESS:          0  dHIT:          0  dMISS:          0  itACCESS:          0  itHIT:          0  itMISS:          0  dtACCESS:          0  dtHIT:          0  dtMISS:          0
cpu0_STLB PREFETCH     ACCESS:          0  HIT:          0  MISS:          0  iACCESS:          0  iHIT:          0  iMISS:          0  dACCESS:          0  dHIT:          0  dMISS:          0  itACCESS:          0  itHIT:          0  itMISS:          0  dtACCESS:          0  dtHIT:          0  dtMISS:          0
cpu0_STLB WRITE        ACCESS:          0  HIT:          0  MISS:          0  iACCESS:          0  iHIT:          0  iMISS:          0  dACCESS:          0  dHIT:          0  dMISS:          0  itACCESS:          0  itHIT:          0  itMISS:          0  dtACCESS:          0  dtHIT:          0  dtMISS:          0
cpu0_STLB TRANSLATION  ACCESS:          0  HIT:          0  MISS:          0  iACCESS:          0  iHIT:          0  iMISS:          0  dACCESS:          0  dHIT:          0  dMISS:          0  itACCESS:          0  itHIT:          0  itMISS:          0  dtACCESS:          0  dtHIT:          0  dtMISS:          0
cpu0_STLB PREFETCH  REQUESTED:          0  ISSUED:          0  CROSSED:          0  USEFUL:          0  USELESS:          0
cpu0_STLB AVERAGE iMISS LATENCY: 52.1397 cycles
cpu0_STLB AVERAGE dMISS LATENCY: 198.671 cycles
cpu0_STLB AVERAGE itMISS LATENCY: 0 cycles
cpu0_STLB AVERAGE dtMISS LATENCY: 0 cycles
cpu0_STLB PAGE CROSSINGS (TLB HIT):         0 
cpu0_STLB PAGE CROSSINGS (TLB MISS):         0 
cpu0_STLB AVERAGE MISS LATENCY: 250.81 cycles
cpu0_L1D TOTAL       ACCESS:   44440844  HIT:   39176595  MISS:    5264249  iACCESS:          0  iHIT:          0  iMISS:          0  dACCESS:   43910615  dHIT:   39142575  dMISS:    4768040  itACCESS:     122315  itHIT:      15016  itMISS:     107299  dtACCESS:     407914  dtHIT:      19004  dtMISS:     388910
cpu0_L1D LOAD         ACCESS:   20059131  HIT:   17932783  MISS:    2126348  iACCESS:          0  iHIT:          0  iMISS:          0  dACCESS:   20059131  dHIT:   17932783  dMISS:    2126348  itACCESS:          0  itHIT:          0  itMISS:          0  dtACCESS:          0  dtHIT:          0  dtMISS:          0
cpu0_L1D RFO          ACCESS:          0  HIT:          0  MISS:          0  iACCESS:          0  iHIT:          0  iMISS:          0  dACCESS:          0  dHIT:          0  dMISS:          0  itACCESS:          0  itHIT:          0  itMISS:          0  dtACCESS:          0  dtHIT:          0  dtMISS:          0
cpu0_L1D PREFETCH     ACCESS:   13667236  HIT:   11579699  MISS:    2087537  iACCESS:          0  iHIT:          0  iMISS:          0  dACCESS:   13667236  dHIT:   11579699  dMISS:    2087537  itACCESS:          0  itHIT:          0  itMISS:          0  dtACCESS:          0  dtHIT:          0  dtMISS:          0
cpu0_L1D WRITE        ACCESS:   10184248  HIT:    9630093  MISS:     554155  iACCESS:          0  iHIT:          0  iMISS:          0  dACCESS:   10184248  dHIT:    9630093  dMISS:     554155  itACCESS:          0  itHIT:          0  itMISS:          0  dtACCESS:          0  dtHIT:          0  dtMISS:          0
cpu0_L1D TRANSLATION  ACCESS:     530229  HIT:      34020  MISS:     496209  iACCESS:          0  iHIT:          0  iMISS:          0  dACCESS:          0  dHIT:          0  dMISS:          0  itACCESS:     122315  itHIT:      15016  itMISS:     107299  dtACCESS:     407914  dtHIT:      19004  dtMISS:     388910
cpu0_L1D PREFETCH  REQUESTED:   20059131  ISSUED:   18374541  CROSSED:          0  USEFUL:     359217  USELESS:     925967
cpu0_L1D AVERAGE iMISS LATENCY: 0 cycles
cpu0_L1D AVERAGE dMISS LATENCY: 50.9729 cycles
cpu0_L1D AVERAGE itMISS LATENCY: 3.30156 cycles
cpu0_L1D AVERAGE dtMISS LATENCY: 12.3547 cycles
cpu0_L1D PAGE CROSSINGS (TLB HIT):         0 
cpu0_L1D PAGE CROSSINGS (TLB MISS):         0 
cpu0_L1D AVERAGE MISS LATENCY: 66.629 cycles
cpu0_L2C TOTAL       ACCESS:    8502656  HIT:    4218745  MISS:    4283911  iACCESS:    3751163  iHIT:    2303247  iMISS:    1447916  dACCESS:    4289880  dHIT:    1859794  dMISS:    2430086  itACCESS:     106617  itHIT:      18664  itMISS:      87953  dtACCESS:     354996  dtHIT:      37040  dtMISS:     317956
cpu0_L2C LOAD         ACCESS:    2040657  HIT:    1029392  MISS:    1011265  iACCESS:     842369  iHIT:     542883  iMISS:     299486  dACCESS:    1198288  dHIT:     486509  dMISS:     711779  itACCESS:          0  itHIT:          0  itMISS:          0  dtACCESS:          0  dtHIT:          0  dtMISS:          0
cpu0_L2C RFO          ACCESS:     208644  HIT:      83011  MISS:     125633  iACCESS:          0  iHIT:          0  iMISS:          0  dACCESS:     208644  dHIT:      83011  dMISS:     125633  itACCESS:          0  itHIT:          0  itMISS:          0  dtACCESS:          0  dtHIT:          0  dtMISS:          0
cpu0_L2C PREFETCH     ACCESS:    5447417  HIT:    2710417  MISS:    2737000  iACCESS:    2908794  iHIT:    1760364  iMISS:    1148430  dACCESS:    2538623  dHIT:     950053  dMISS:    1588570  itACCESS:          0  itHIT:          0  itMISS:          0  dtACCESS:          0  dtHIT:          0  dtMISS:          0
cpu0_L2C WRITE        ACCESS:     344325  HIT:     340221  MISS:       4104  iACCESS:          0  iHIT:          0  iMISS:          0  dACCESS:     344325  dHIT:     340221  dMISS:       4104  itACCESS:          0  itHIT:          0  itMISS:          0  dtACCESS:          0  dtHIT:          0  dtMISS:          0
cpu0_L2C TRANSLATION  ACCESS:     461613  HIT:      55704  MISS:     405909  iACCESS:          0  iHIT:          0  iMISS:          0  dACCESS:          0  dHIT:          0  dMISS:          0  itACCESS:     106617  itHIT:      18664  itMISS:      87953  dtACCESS:     354996  dtHIT:      37040  dtMISS:     317956
cpu0_L2C PREFETCH  REQUESTED:    1492597  ISSUED:    1492597  CROSSED:          0  USEFUL:     353574  USELESS:     317276
cpu0_L2C AVERAGE iMISS LATENCY: 40.3185 cycles
cpu0_L2C AVERAGE dMISS LATENCY: 78.0839 cycles
cpu0_L2C AVERAGE itMISS LATENCY: 3.81189 cycles
cpu0_L2C AVERAGE dtMISS LATENCY: 14.3572 cycles
cpu0_L2C PAGE CROSSINGS (TLB HIT):         0 
cpu0_L2C PAGE CROSSINGS (TLB MISS):         0 
cpu0_L2C AVERAGE MISS LATENCY: 136.572 cycles
LLC TOTAL       ACCESS:    4281859  HIT:    1326109  MISS:    2955750  iACCESS:    1358765  iHIT:     427572  iMISS:     931193  dACCESS:    2517185  dHIT:     858994  dMISS:    1658191  itACCESS:      87953  itHIT:       6387  itMISS:      81566  dtACCESS:     317956  dtHIT:      33156  dtMISS:     284800
LLC LOAD         ACCESS:    1006442  HIT:     332217  MISS:     674225  iACCESS:     298319  iHIT:     101083  iMISS:     197236  dACCESS:     708123  dHIT:     231134  dMISS:     476989  itACCESS:          0  itHIT:          0  itMISS:          0  dtACCESS:          0  dtHIT:          0  dtMISS:          0
LLC RFO          ACCESS:     125625  HIT:      39767  MISS:      85858  iACCESS:          0  iHIT:          0  iMISS:          0  dACCESS:     125625  dHIT:      39767  dMISS:      85858  itACCESS:          0  itHIT:          0  itMISS:          0  dtACCESS:          0  dtHIT:          0  dtMISS:          0
LLC PREFETCH     ACCESS:    2537113  HIT:     718572  MISS:    1818541  iACCESS:    1060446  iHIT:     326489  iMISS:     733957  dACCESS:    1476667  dHIT:     392083  dMISS:    1084584  itACCESS:          0  itHIT:          0  itMISS:          0  dtACCESS:          0  dtHIT:          0  dtMISS:          0
LLC WRITE        ACCESS:     206770  HIT:     196010  MISS:      10760  iACCESS:          0  iHIT:          0  iMISS:          0  dACCESS:     206770  dHIT:     196010  dMISS:      10760  itACCESS:          0  itHIT:          0  itMISS:          0  dtACCESS:          0  dtHIT:          0  dtMISS:          0
LLC TRANSLATION  ACCESS:     405909  HIT:      39543  MISS:     366366  iACCESS:          0  iHIT:          0  iMISS:          0  dACCESS:          0  dHIT:          0  dMISS:          0  itACCESS:      87953  itHIT:       6387  itMISS:      81566  dtACCESS:     317956  dtHIT:      33156  dtMISS:     284800
LLC PREFETCH  REQUESTED:          0  ISSUED:          0  CROSSED:          0  USEFUL:          0  USELESS:          0
LLC AVERAGE iMISS LATENCY: 49.3796 cycles
LLC AVERAGE dMISS LATENCY: 98.4199 cycles
LLC AVERAGE itMISS LATENCY: 4.93473 cycles
LLC AVERAGE dtMISS LATENCY: 18.6821 cycles
LLC PAGE CROSSINGS (TLB HIT):         0 
LLC PAGE CROSSINGS (TLB MISS):         0 
LLC AVERAGE MISS LATENCY: 171.417 cycles

PageTableWalker TOTAL       ACCESS:     174028  
PageTableWalker AVERAGE LATENCY: 6.56739 cycles
PageTableWalker TOTAL LATENCY: 1142909 cycles

DRAM Statistics
Channel 0
 RQ ROW_BUFFER_HIT:     644843
  ROW_BUFFER_MISS:    2290603
 AVG DBUS CONGESTED CYCLE:    3.64828
 WQ ROW_BUFFER_HIT:      63447
  ROW_BUFFER_MISS:      52413  FULL:          0

