last_page:0x200000000000000
VMEM_RES_CAP:0x100000
PAGE_SIZE:4096
LOG2_PAGE_SIZE:12
LOG2_PAGE_TABLE_SIZE:9
page_table_levels:5
WARNING: physical memory size is smaller than virtual memory size
FDiP enabled with aggresivity 16

*** ChampSim Multicore Out-of-Order Simulator ***

Warmup Instructions: 50000000
Simulation Instructions: 100000000
Number of CPUs: 1
Small page size: 4096
Large page size: 2097152

CPU 0 Bimodal branch predictor
Basic BTB sets: 1024 ways: 8 indirect buffer size: 4096 RAS size: 64
Instruction page size distrubution: 0
Loading instruction page size distribution from /home/bsc/bsc018186/scratch/itp_asplos25_AE/dump/smt_srv207_ap_srv259_ap_1024i.pdst
Data page size distrubution: 0
Loading data page size distribution from /home/bsc/bsc018186/scratch/itp_asplos25_AE/dump/smt_srv207_ap_srv259_ap_1024i.pdst
cpu0_L2C IP-based stride prefetcher
cpu0_L1D next line prefetcher
CHiRPing...
cpu0_L1I next line prefetcher
Off-chip DRAM Size: 4 GiB Channels: 1 Width: 64-bit Data Rate: 3200 MT/s
Heartbeat CPU 0 instructions: 10000002 cycles: 2500487 heartbeat IPC: 3.99923 cumulative IPC: 3.99923 (Simulation time: 0 hr 0 min 40 sec) 
Heartbeat CPU 0 instructions: 20000000 cycles: 5000833 heartbeat IPC: 3.99945 cumulative IPC: 3.99934 (Simulation time: 0 hr 1 min 21 sec) 
Heartbeat CPU 0 instructions: 30000001 cycles: 7501033 heartbeat IPC: 3.99969 cumulative IPC: 3.99945 (Simulation time: 0 hr 2 min 3 sec) 
Heartbeat CPU 0 instructions: 40000000 cycles: 10001612 heartbeat IPC: 3.99908 cumulative IPC: 3.99936 (Simulation time: 0 hr 2 min 46 sec) 
Heartbeat CPU 0 instructions: 50000001 cycles: 12502073 heartbeat IPC: 3.99927 cumulative IPC: 3.99934 (Simulation time: 0 hr 3 min 30 sec) 
Warmup finished CPU 0 instructions: 50000001 cycles: 12502074 cumulative IPC: 3.99934 (Simulation time: 0 hr 3 min 30 sec) 

Warmup complete CPU 0 instructions: 50000001 cycles: 12502074 (Simulation time: 0 hr 3 min 30 sec) 

Heartbeat CPU 0 instructions: 60000000 cycles: 39470243 heartbeat IPC: 0.370808 cumulative IPC: 0.370808 (Simulation time: 0 hr 4 min 53 sec) 
Heartbeat CPU 0 instructions: 70000002 cycles: 67386041 heartbeat IPC: 0.358221 cumulative IPC: 0.364406 (Simulation time: 0 hr 6 min 18 sec) 
Heartbeat CPU 0 instructions: 80000002 cycles: 94949213 heartbeat IPC: 0.362803 cumulative IPC: 0.36387 (Simulation time: 0 hr 7 min 45 sec) 
Heartbeat CPU 0 instructions: 90000003 cycles: 122125673 heartbeat IPC: 0.367966 cumulative IPC: 0.364885 (Simulation time: 0 hr 9 min 10 sec) 
Heartbeat CPU 0 instructions: 100000000 cycles: 149942829 heartbeat IPC: 0.359491 cumulative IPC: 0.363794 (Simulation time: 0 hr 10 min 36 sec) 
Heartbeat CPU 0 instructions: 110000002 cycles: 177765690 heartbeat IPC: 0.359417 cumulative IPC: 0.363057 (Simulation time: 0 hr 12 min 1 sec) 
Heartbeat CPU 0 instructions: 120000003 cycles: 203974430 heartbeat IPC: 0.381553 cumulative IPC: 0.365589 (Simulation time: 0 hr 13 min 24 sec) 
Heartbeat CPU 0 instructions: 130000002 cycles: 230278610 heartbeat IPC: 0.380168 cumulative IPC: 0.36735 (Simulation time: 0 hr 14 min 47 sec) 
Heartbeat CPU 0 instructions: 140000002 cycles: 257594360 heartbeat IPC: 0.36609 cumulative IPC: 0.367209 (Simulation time: 0 hr 16 min 12 sec) 
Heartbeat CPU 0 instructions: 150000000 cycles: 285400151 heartbeat IPC: 0.359638 cumulative IPC: 0.366438 (Simulation time: 0 hr 17 min 39 sec) 
Simulation finished CPU 0 instructions: 100000004 cycles: 272898079 cumulative IPC: 0.366438 (Simulation time: 0 hr 17 min 39 sec) 

Simulation complete CPU 0 instructions: 100000004 cycles: 272898079 (Simulation time: 0 hr 17 min 39 sec) 


ChampSim completed all CPUs

Saving instructions large page distribution to /home/bsc/bsc018186/scratch/itp_asplos25_AE/dump/smt_srv207_ap_srv259_ap_1024i.pdst...
Saving data large page distribution to /home/bsc/bsc018186/scratch/itp_asplos25_AE/dump/smt_srv207_ap_srv259_ap_1024i.pdst...
=== Simulation ===
CPU 0 runs /gpfs/projects/bsc18/MN4/bsc18/romol/ChampSim/traces/qualcomm_srv/smt_srv207_ap_srv259_ap_1024i.champsimtrace.xz

Region of Interest Statistics

CPU 0 cumulative IPC: 0.366438 instructions: 100000004 cycles: 272898079
CPU 0 Branch Prediction Accuracy: 75.9618% MPKI: 43.2597 Average ROB Occupancy at Mispredict: 10.9795
Branch type MPKI
BRANCH_DIRECT_JUMP: 1.33408
BRANCH_INDIRECT: 23.403
BRANCH_CONDITIONAL: 11.6055
BRANCH_DIRECT_CALL: 2.45749
BRANCH_INDIRECT_CALL: 1.00685
BRANCH_RETURN: 3.4527

Instructions large pages: 0
Instructions small pages: 11193
Large page distribution for instructions: 0%

Data large pages: 0
Data small pages: 9904
Large page distribution for data: 0%

cpu0_L1I TOTAL       ACCESS:   39084388  HIT:   29789238  MISS:    9295150  iACCESS:   39084388  iHIT:   29789238  iMISS:    9295150  dACCESS:          0  dHIT:          0  dMISS:          0  itACCESS:          0  itHIT:          0  itMISS:          0  dtACCESS:          0  dtHIT:          0  dtMISS:          0
cpu0_L1I LOAD         ACCESS:   11601727  HIT:    9047473  MISS:    2554254  iACCESS:   11601727  iHIT:    9047473  iMISS:    2554254  dACCESS:          0  dHIT:          0  dMISS:          0  itACCESS:          0  itHIT:          0  itMISS:          0  dtACCESS:          0  dtHIT:          0  dtMISS:          0
cpu0_L1I RFO          ACCESS:          0  HIT:          0  MISS:          0  iACCESS:          0  iHIT:          0  iMISS:          0  dACCESS:          0  dHIT:          0  dMISS:          0  itACCESS:          0  itHIT:          0  itMISS:          0  dtACCESS:          0  dtHIT:          0  dtMISS:          0
cpu0_L1I PREFETCH     ACCESS:   27482661  HIT:   20741765  MISS:    6740896  iACCESS:   27482661  iHIT:   20741765  iMISS:    6740896  dACCESS:          0  dHIT:          0  dMISS:          0  itACCESS:          0  itHIT:          0  itMISS:          0  dtACCESS:          0  dtHIT:          0  dtMISS:          0
cpu0_L1I WRITE        ACCESS:          0  HIT:          0  MISS:          0  iACCESS:          0  iHIT:          0  iMISS:          0  dACCESS:          0  dHIT:          0  dMISS:          0  itACCESS:          0  itHIT:          0  itMISS:          0  dtACCESS:          0  dtHIT:          0  dtMISS:          0
cpu0_L1I TRANSLATION  ACCESS:          0  HIT:          0  MISS:          0  iACCESS:          0  iHIT:          0  iMISS:          0  dACCESS:          0  dHIT:          0  dMISS:          0  itACCESS:          0  itHIT:          0  itMISS:          0  dtACCESS:          0  dtHIT:          0  dtMISS:          0
cpu0_L1I PREFETCH  REQUESTED:   30060178  ISSUED:   30058973  CROSSED:          0  USEFUL:    2206055  USELESS:     788678
cpu0_L1I AVERAGE iMISS LATENCY: 22.3144 cycles
cpu0_L1I AVERAGE dMISS LATENCY: 0 cycles
cpu0_L1I AVERAGE itMISS LATENCY: 0 cycles
cpu0_L1I AVERAGE dtMISS LATENCY: 0 cycles
cpu0_L1I PAGE CROSSINGS (TLB HIT):         0 
cpu0_L1I PAGE CROSSINGS (TLB MISS):         0 
cpu0_L1I AVERAGE MISS LATENCY: 22.3144 cycles
cpu0_ITLB TOTAL       ACCESS:   32855643  HIT:   30567337  MISS:    2288306  iACCESS:   32855643  iHIT:   30567337  iMISS:    2288306  dACCESS:          0  dHIT:          0  dMISS:          0  itACCESS:          0  itHIT:          0  itMISS:          0  dtACCESS:          0  dtHIT:          0  dtMISS:          0
cpu0_ITLB LOAD         ACCESS:   32855643  HIT:   30567337  MISS:    2288306  iACCESS:   32855643  iHIT:   30567337  iMISS:    2288306  dACCESS:          0  dHIT:          0  dMISS:          0  itACCESS:          0  itHIT:          0  itMISS:          0  dtACCESS:          0  dtHIT:          0  dtMISS:          0
cpu0_ITLB RFO          ACCESS:          0  HIT:          0  MISS:          0  iACCESS:          0  iHIT:          0  iMISS:          0  dACCESS:          0  dHIT:          0  dMISS:          0  itACCESS:          0  itHIT:          0  itMISS:          0  dtACCESS:          0  dtHIT:          0  dtMISS:          0
cpu0_ITLB PREFETCH     ACCESS:          0  HIT:          0  MISS:          0  iACCESS:          0  iHIT:          0  iMISS:          0  dACCESS:          0  dHIT:          0  dMISS:          0  itACCESS:          0  itHIT:          0  itMISS:          0  dtACCESS:          0  dtHIT:          0  dtMISS:          0
cpu0_ITLB WRITE        ACCESS:          0  HIT:          0  MISS:          0  iACCESS:          0  iHIT:          0  iMISS:          0  dACCESS:          0  dHIT:          0  dMISS:          0  itACCESS:          0  itHIT:          0  itMISS:          0  dtACCESS:          0  dtHIT:          0  dtMISS:          0
cpu0_ITLB TRANSLATION  ACCESS:          0  HIT:          0  MISS:          0  iACCESS:          0  iHIT:          0  iMISS:          0  dACCESS:          0  dHIT:          0  dMISS:          0  itACCESS:          0  itHIT:          0  itMISS:          0  dtACCESS:          0  dtHIT:          0  dtMISS:          0
cpu0_ITLB PREFETCH  REQUESTED:          0  ISSUED:          0  CROSSED:          0  USEFUL:     394616  USELESS:      84298
cpu0_ITLB AVERAGE iMISS LATENCY: 7.63887 cycles
cpu0_ITLB AVERAGE dMISS LATENCY: 0 cycles
cpu0_ITLB AVERAGE itMISS LATENCY: 0 cycles
cpu0_ITLB AVERAGE dtMISS LATENCY: 0 cycles
cpu0_ITLB PAGE CROSSINGS (TLB HIT):         0 
cpu0_ITLB PAGE CROSSINGS (TLB MISS):         0 
cpu0_ITLB AVERAGE MISS LATENCY: 7.63887 cycles
cpu0_DTLB TOTAL       ACCESS:   29167826  HIT:   25587969  MISS:    3579857  iACCESS:          0  iHIT:          0  iMISS:          0  dACCESS:   29167826  dHIT:   25587969  dMISS:    3579857  itACCESS:          0  itHIT:          0  itMISS:          0  dtACCESS:          0  dtHIT:          0  dtMISS:          0
cpu0_DTLB LOAD         ACCESS:   29167826  HIT:   25587969  MISS:    3579857  iACCESS:          0  iHIT:          0  iMISS:          0  dACCESS:   29167826  dHIT:   25587969  dMISS:    3579857  itACCESS:          0  itHIT:          0  itMISS:          0  dtACCESS:          0  dtHIT:          0  dtMISS:          0
cpu0_DTLB RFO          ACCESS:          0  HIT:          0  MISS:          0  iACCESS:          0  iHIT:          0  iMISS:          0  dACCESS:          0  dHIT:          0  dMISS:          0  itACCESS:          0  itHIT:          0  itMISS:          0  dtACCESS:          0  dtHIT:          0  dtMISS:          0
cpu0_DTLB PREFETCH     ACCESS:          0  HIT:          0  MISS:          0  iACCESS:          0  iHIT:          0  iMISS:          0  dACCESS:          0  dHIT:          0  dMISS:          0  itACCESS:          0  itHIT:          0  itMISS:          0  dtACCESS:          0  dtHIT:          0  dtMISS:          0
cpu0_DTLB WRITE        ACCESS:          0  HIT:          0  MISS:          0  iACCESS:          0  iHIT:          0  iMISS:          0  dACCESS:          0  dHIT:          0  dMISS:          0  itACCESS:          0  itHIT:          0  itMISS:          0  dtACCESS:          0  dtHIT:          0  dtMISS:          0
cpu0_DTLB TRANSLATION  ACCESS:          0  HIT:          0  MISS:          0  iACCESS:          0  iHIT:          0  iMISS:          0  dACCESS:          0  dHIT:          0  dMISS:          0  itACCESS:          0  itHIT:          0  itMISS:          0  dtACCESS:          0  dtHIT:          0  dtMISS:          0
cpu0_DTLB PREFETCH  REQUESTED:          0  ISSUED:          0  CROSSED:          0  USEFUL:          0  USELESS:          0
cpu0_DTLB AVERAGE iMISS LATENCY: 0 cycles
cpu0_DTLB AVERAGE dMISS LATENCY: 17.8814 cycles
cpu0_DTLB AVERAGE itMISS LATENCY: 0 cycles
cpu0_DTLB AVERAGE dtMISS LATENCY: 0 cycles
cpu0_DTLB PAGE CROSSINGS (TLB HIT):         0 
cpu0_DTLB PAGE CROSSINGS (TLB MISS):         0 
cpu0_DTLB AVERAGE MISS LATENCY: 17.8814 cycles
cpu0_STLB TOTAL       ACCESS:    2574735  HIT:    2193918  MISS:     380817  iACCESS:     478918  iHIT:     370134  iMISS:     108784  dACCESS:    2095817  dHIT:    1823784  dMISS:     272033  itACCESS:          0  itHIT:          0  itMISS:          0  dtACCESS:          0  dtHIT:          0  dtMISS:          0
cpu0_STLB LOAD         ACCESS:    2574735  HIT:    2193918  MISS:     380817  iACCESS:     478918  iHIT:     370134  iMISS:     108784  dACCESS:    2095817  dHIT:    1823784  dMISS:     272033  itACCESS:          0  itHIT:          0  itMISS:          0  dtACCESS:          0  dtHIT:          0  dtMISS:          0
cpu0_STLB RFO          ACCESS:          0  HIT:          0  MISS:          0  iACCESS:          0  iHIT:          0  iMISS:          0  dACCESS:          0  dHIT:          0  dMISS:          0  itACCESS:          0  itHIT:          0  itMISS:          0  dtACCESS:          0  dtHIT:          0  dtMISS:          0
cpu0_STLB PREFETCH     ACCESS:          0  HIT:          0  MISS:          0  iACCESS:          0  iHIT:          0  iMISS:          0  dACCESS:          0  dHIT:          0  dMISS:          0  itACCESS:          0  itHIT:          0  itMISS:          0  dtACCESS:          0  dtHIT:          0  dtMISS:          0
cpu0_STLB WRITE        ACCESS:          0  HIT:          0  MISS:          0  iACCESS:          0  iHIT:          0  iMISS:          0  dACCESS:          0  dHIT:          0  dMISS:          0  itACCESS:          0  itHIT:          0  itMISS:          0  dtACCESS:          0  dtHIT:          0  dtMISS:          0
cpu0_STLB TRANSLATION  ACCESS:          0  HIT:          0  MISS:          0  iACCESS:          0  iHIT:          0  iMISS:          0  dACCESS:          0  dHIT:          0  dMISS:          0  itACCESS:          0  itHIT:          0  itMISS:          0  dtACCESS:          0  dtHIT:          0  dtMISS:          0
cpu0_STLB PREFETCH  REQUESTED:          0  ISSUED:          0  CROSSED:          0  USEFUL:          0  USELESS:          0
cpu0_STLB AVERAGE iMISS LATENCY: 35.8754 cycles
cpu0_STLB AVERAGE dMISS LATENCY: 123.84 cycles
cpu0_STLB AVERAGE itMISS LATENCY: 0 cycles
cpu0_STLB AVERAGE dtMISS LATENCY: 0 cycles
cpu0_STLB PAGE CROSSINGS (TLB HIT):         0 
cpu0_STLB PAGE CROSSINGS (TLB MISS):         0 
cpu0_STLB AVERAGE MISS LATENCY: 159.715 cycles
cpu0_L1D TOTAL       ACCESS:   45673204  HIT:   39531080  MISS:    6142124  iACCESS:          0  iHIT:          0  iMISS:          0  dACCESS:   45114678  dHIT:   39500039  dMISS:    5614639  itACCESS:     122849  itHIT:      12017  itMISS:     110832  dtACCESS:     435677  dtHIT:      19024  dtMISS:     416653
cpu0_L1D LOAD         ACCESS:   20704839  HIT:   18162432  MISS:    2542407  iACCESS:          0  iHIT:          0  iMISS:          0  dACCESS:   20704839  dHIT:   18162432  dMISS:    2542407  itACCESS:          0  itHIT:          0  itMISS:          0  dtACCESS:          0  dtHIT:          0  dtMISS:          0
cpu0_L1D RFO          ACCESS:          0  HIT:          0  MISS:          0  iACCESS:          0  iHIT:          0  iMISS:          0  dACCESS:          0  dHIT:          0  dMISS:          0  itACCESS:          0  itHIT:          0  itMISS:          0  dtACCESS:          0  dtHIT:          0  dtMISS:          0
cpu0_L1D PREFETCH     ACCESS:   14318609  HIT:   11843183  MISS:    2475426  iACCESS:          0  iHIT:          0  iMISS:          0  dACCESS:   14318609  dHIT:   11843183  dMISS:    2475426  itACCESS:          0  itHIT:          0  itMISS:          0  dtACCESS:          0  dtHIT:          0  dtMISS:          0
cpu0_L1D WRITE        ACCESS:   10091230  HIT:    9494424  MISS:     596806  iACCESS:          0  iHIT:          0  iMISS:          0  dACCESS:   10091230  dHIT:    9494424  dMISS:     596806  itACCESS:          0  itHIT:          0  itMISS:          0  dtACCESS:          0  dtHIT:          0  dtMISS:          0
cpu0_L1D TRANSLATION  ACCESS:     558526  HIT:      31041  MISS:     527485  iACCESS:          0  iHIT:          0  iMISS:          0  dACCESS:          0  dHIT:          0  dMISS:          0  itACCESS:     122849  itHIT:      12017  itMISS:     110832  dtACCESS:     435677  dtHIT:      19024  dtMISS:     416653
cpu0_L1D PREFETCH  REQUESTED:   20704839  ISSUED:   18829682  CROSSED:          0  USEFUL:     376477  USELESS:     950434
cpu0_L1D AVERAGE iMISS LATENCY: 0 cycles
cpu0_L1D AVERAGE dMISS LATENCY: 49.4074 cycles
cpu0_L1D AVERAGE itMISS LATENCY: 2.05581 cycles
cpu0_L1D AVERAGE dtMISS LATENCY: 6.93102 cycles
cpu0_L1D PAGE CROSSINGS (TLB HIT):         0 
cpu0_L1D PAGE CROSSINGS (TLB MISS):         0 
cpu0_L1D AVERAGE MISS LATENCY: 58.3942 cycles
cpu0_L2C TOTAL       ACCESS:    8723769  HIT:    1527109  MISS:    7196660  iACCESS:    3824353  iHIT:     805961  iMISS:    3018392  dACCESS:    4402757  dHIT:     529907  dMISS:    3872850  itACCESS:     110753  itHIT:      38570  itMISS:      72183  dtACCESS:     385906  dtHIT:     152671  dtMISS:     233235
cpu0_L2C LOAD         ACCESS:    2111359  HIT:     204132  MISS:    1907227  iACCESS:     863037  iHIT:     111829  iMISS:     751208  dACCESS:    1248322  dHIT:      92303  dMISS:    1156019  itACCESS:          0  itHIT:          0  itMISS:          0  dtACCESS:          0  dtHIT:          0  dtMISS:          0
cpu0_L2C RFO          ACCESS:     224125  HIT:      27630  MISS:     196495  iACCESS:          0  iHIT:          0  iMISS:          0  dACCESS:     224125  dHIT:      27630  dMISS:     196495  itACCESS:          0  itHIT:          0  itMISS:          0  dtACCESS:          0  dtHIT:          0  dtMISS:          0
cpu0_L2C PREFETCH     ACCESS:    5546642  HIT:    1004319  MISS:    4542323  iACCESS:    2961316  iHIT:     694132  iMISS:    2267184  dACCESS:    2585326  dHIT:     310187  dMISS:    2275139  itACCESS:          0  itHIT:          0  itMISS:          0  dtACCESS:          0  dtHIT:          0  dtMISS:          0
cpu0_L2C WRITE        ACCESS:     344984  HIT:      99787  MISS:     245197  iACCESS:          0  iHIT:          0  iMISS:          0  dACCESS:     344984  dHIT:      99787  dMISS:     245197  itACCESS:          0  itHIT:          0  itMISS:          0  dtACCESS:          0  dtHIT:          0  dtMISS:          0
cpu0_L2C TRANSLATION  ACCESS:     496659  HIT:     191241  MISS:     305418  iACCESS:          0  iHIT:          0  iMISS:          0  dACCESS:          0  dHIT:          0  dMISS:          0  itACCESS:     110753  itHIT:      38570  itMISS:      72183  dtACCESS:     385906  dtHIT:     152671  dtMISS:     233235
cpu0_L2C PREFETCH  REQUESTED:    1517562  ISSUED:    1517562  CROSSED:          0  USEFUL:     412925  USELESS:     479801
cpu0_L2C AVERAGE iMISS LATENCY: 24.1127 cycles
cpu0_L2C AVERAGE dMISS LATENCY: 49.8834 cycles
cpu0_L2C AVERAGE itMISS LATENCY: 1.60561 cycles
cpu0_L2C AVERAGE dtMISS LATENCY: 5.39786 cycles
cpu0_L2C PAGE CROSSINGS (TLB HIT):         0 
cpu0_L2C PAGE CROSSINGS (TLB MISS):         0 
cpu0_L2C AVERAGE MISS LATENCY: 80.9995 cycles
LLC TOTAL       ACCESS:    7039147  HIT:    4441774  MISS:    2597373  iACCESS:    2939810  iHIT:    2199991  iMISS:     739819  dACCESS:    3793919  dHIT:    2173247  dMISS:    1620672  itACCESS:      72183  itHIT:      15159  itMISS:      57024  dtACCESS:     233235  dtHIT:      53377  dtMISS:     179858
LLC LOAD         ACCESS:    1898031  HIT:    1238432  MISS:     659599  iACCESS:     749801  iHIT:     593821  iMISS:     155980  dACCESS:    1148230  dHIT:     644611  dMISS:     503619  itACCESS:          0  itHIT:          0  itMISS:          0  dtACCESS:          0  dtHIT:          0  dtMISS:          0
LLC RFO          ACCESS:     196445  HIT:     104180  MISS:      92265  iACCESS:          0  iHIT:          0  iMISS:          0  dACCESS:     196445  dHIT:     104180  dMISS:      92265  itACCESS:          0  itHIT:          0  itMISS:          0  dtACCESS:          0  dtHIT:          0  dtMISS:          0
LLC PREFETCH     ACCESS:    4361683  HIT:    2759031  MISS:    1602652  iACCESS:    2190009  iHIT:    1606170  iMISS:     583839  dACCESS:    2171674  dHIT:    1152861  dMISS:    1018813  itACCESS:          0  itHIT:          0  itMISS:          0  dtACCESS:          0  dtHIT:          0  dtMISS:          0
LLC WRITE        ACCESS:     277570  HIT:     271595  MISS:       5975  iACCESS:          0  iHIT:          0  iMISS:          0  dACCESS:     277570  dHIT:     271595  dMISS:       5975  itACCESS:          0  itHIT:          0  itMISS:          0  dtACCESS:          0  dtHIT:          0  dtMISS:          0
LLC TRANSLATION  ACCESS:     305418  HIT:      68536  MISS:     236882  iACCESS:          0  iHIT:          0  iMISS:          0  dACCESS:          0  dHIT:          0  dMISS:          0  itACCESS:      72183  itHIT:      15159  itMISS:      57024  dtACCESS:     233235  dtHIT:      53377  dtMISS:     179858
LLC PREFETCH  REQUESTED:          0  ISSUED:          0  CROSSED:          0  USEFUL:          0  USELESS:          0
LLC AVERAGE iMISS LATENCY: 44.8646 cycles
LLC AVERAGE dMISS LATENCY: 112.984 cycles
LLC AVERAGE itMISS LATENCY: 3.90056 cycles
LLC AVERAGE dtMISS LATENCY: 13.187 cycles
LLC PAGE CROSSINGS (TLB HIT):         0 
LLC PAGE CROSSINGS (TLB MISS):         0 
LLC AVERAGE MISS LATENCY: 174.936 cycles

PageTableWalker TOTAL       ACCESS:     187606  
PageTableWalker AVERAGE LATENCY: 5.90358 cycles
PageTableWalker TOTAL LATENCY: 1107546 cycles

DRAM Statistics
Channel 0
 RQ ROW_BUFFER_HIT:     550150
  ROW_BUFFER_MISS:    2019470
 AVG DBUS CONGESTED CYCLE:    3.65103
 WQ ROW_BUFFER_HIT:      66519
  ROW_BUFFER_MISS:      62982  FULL:          0

