last_page:0x200000000000000
VMEM_RES_CAP:0x100000
PAGE_SIZE:4096
LOG2_PAGE_SIZE:12
LOG2_PAGE_TABLE_SIZE:9
page_table_levels:5
WARNING: physical memory size is smaller than virtual memory size
FDiP enabled with aggresivity 16

*** ChampSim Multicore Out-of-Order Simulator ***

Warmup Instructions: 50000000
Simulation Instructions: 100000000
Number of CPUs: 1
Small page size: 4096
Large page size: 2097152

CPU 0 Bimodal branch predictor
Basic BTB sets: 1024 ways: 8 indirect buffer size: 4096 RAS size: 64
Instruction page size distrubution: 0
Loading instruction page size distribution from /home/bsc/bsc018186/scratch/itp_asplos25_AE/dump/smt_srv85_ap_srv346_ap_1024i.pdst
Data page size distrubution: 0
Loading data page size distribution from /home/bsc/bsc018186/scratch/itp_asplos25_AE/dump/smt_srv85_ap_srv346_ap_1024i.pdst
cpu0_L2C IP-based stride prefetcher
cpu0_L1D next line prefetcher
cpu0_STLB using iTP with max lru@8
cpu0_STLB using iTP with instr@0 and data@2
Init sat counter with 3 bits (max:50).
cpu0_L1I next line prefetcher
Off-chip DRAM Size: 4 GiB Channels: 1 Width: 64-bit Data Rate: 3200 MT/s
Heartbeat CPU 0 instructions: 10000000 cycles: 2500313 heartbeat IPC: 3.9995 cumulative IPC: 3.9995 (Simulation time: 0 hr 0 min 45 sec) 
Heartbeat CPU 0 instructions: 20000001 cycles: 5000556 heartbeat IPC: 3.99962 cumulative IPC: 3.99956 (Simulation time: 0 hr 1 min 31 sec) 
Heartbeat CPU 0 instructions: 30000003 cycles: 7500668 heartbeat IPC: 3.99983 cumulative IPC: 3.99965 (Simulation time: 0 hr 2 min 17 sec) 
Heartbeat CPU 0 instructions: 40000001 cycles: 10000810 heartbeat IPC: 3.99978 cumulative IPC: 3.99968 (Simulation time: 0 hr 3 min 3 sec) 
Heartbeat CPU 0 instructions: 50000002 cycles: 12500896 heartbeat IPC: 3.99987 cumulative IPC: 3.99972 (Simulation time: 0 hr 3 min 50 sec) 
Warmup finished CPU 0 instructions: 50000002 cycles: 12500897 cumulative IPC: 3.99972 (Simulation time: 0 hr 3 min 50 sec) 

Warmup complete CPU 0 instructions: 50000002 cycles: 12500897 (Simulation time: 0 hr 3 min 50 sec) 

Heartbeat CPU 0 instructions: 60000000 cycles: 39407715 heartbeat IPC: 0.371653 cumulative IPC: 0.371653 (Simulation time: 0 hr 5 min 23 sec) 
Heartbeat CPU 0 instructions: 70000003 cycles: 66261262 heartbeat IPC: 0.372391 cumulative IPC: 0.372022 (Simulation time: 0 hr 6 min 49 sec) 
Heartbeat CPU 0 instructions: 80000002 cycles: 93382635 heartbeat IPC: 0.368713 cumulative IPC: 0.370912 (Simulation time: 0 hr 8 min 19 sec) 
Heartbeat CPU 0 instructions: 90000002 cycles: 119456579 heartbeat IPC: 0.383525 cumulative IPC: 0.373987 (Simulation time: 0 hr 9 min 51 sec) 
Heartbeat CPU 0 instructions: 100000000 cycles: 146723703 heartbeat IPC: 0.366742 cumulative IPC: 0.372515 (Simulation time: 0 hr 11 min 22 sec) 
Heartbeat CPU 0 instructions: 110000002 cycles: 173970757 heartbeat IPC: 0.367013 cumulative IPC: 0.371587 (Simulation time: 0 hr 12 min 55 sec) 
Heartbeat CPU 0 instructions: 120000000 cycles: 200572890 heartbeat IPC: 0.37591 cumulative IPC: 0.372198 (Simulation time: 0 hr 14 min 27 sec) 
Heartbeat CPU 0 instructions: 130000002 cycles: 227274941 heartbeat IPC: 0.374504 cumulative IPC: 0.372485 (Simulation time: 0 hr 15 min 52 sec) 
Heartbeat CPU 0 instructions: 140000004 cycles: 254402434 heartbeat IPC: 0.36863 cumulative IPC: 0.372053 (Simulation time: 0 hr 17 min 17 sec) 
Heartbeat CPU 0 instructions: 150000002 cycles: 281687099 heartbeat IPC: 0.366507 cumulative IPC: 0.371491 (Simulation time: 0 hr 18 min 48 sec) 
Simulation finished CPU 0 instructions: 100000000 cycles: 269186203 cumulative IPC: 0.371491 (Simulation time: 0 hr 18 min 48 sec) 

Simulation complete CPU 0 instructions: 100000000 cycles: 269186203 (Simulation time: 0 hr 18 min 48 sec) 


ChampSim completed all CPUs

Saving instructions large page distribution to /home/bsc/bsc018186/scratch/itp_asplos25_AE/dump/smt_srv85_ap_srv346_ap_1024i.pdst...
Saving data large page distribution to /home/bsc/bsc018186/scratch/itp_asplos25_AE/dump/smt_srv85_ap_srv346_ap_1024i.pdst...
=== Simulation ===
CPU 0 runs /gpfs/projects/bsc18/MN4/bsc18/romol/ChampSim/traces/qualcomm_srv/smt_srv85_ap_srv346_ap_1024i.champsimtrace.xz

Region of Interest Statistics

CPU 0 cumulative IPC: 0.371491 instructions: 100000000 cycles: 269186203
CPU 0 Branch Prediction Accuracy: 75.947% MPKI: 43.2219 Average ROB Occupancy at Mispredict: 11.1677
Branch type MPKI
BRANCH_DIRECT_JUMP: 1.29362
BRANCH_INDIRECT: 22.5599
BRANCH_CONDITIONAL: 12.5539
BRANCH_DIRECT_CALL: 2.47789
BRANCH_INDIRECT_CALL: 0.914631
BRANCH_RETURN: 3.42203

Instructions large pages: 0
Instructions small pages: 13169
Large page distribution for instructions: 0%

Data large pages: 0
Data small pages: 11885
Large page distribution for data: 0%

cpu0_L1I TOTAL       ACCESS:   39220712  HIT:   30045193  MISS:    9175519  iACCESS:   39220712  iHIT:   30045193  iMISS:    9175519  dACCESS:          0  dHIT:          0  dMISS:          0  itACCESS:          0  itHIT:          0  itMISS:          0  dtACCESS:          0  dtHIT:          0  dtMISS:          0
cpu0_L1I LOAD         ACCESS:   11737156  HIT:    9241168  MISS:    2495988  iACCESS:   11737156  iHIT:    9241168  iMISS:    2495988  dACCESS:          0  dHIT:          0  dMISS:          0  itACCESS:          0  itHIT:          0  itMISS:          0  dtACCESS:          0  dtHIT:          0  dtMISS:          0
cpu0_L1I RFO          ACCESS:          0  HIT:          0  MISS:          0  iACCESS:          0  iHIT:          0  iMISS:          0  dACCESS:          0  dHIT:          0  dMISS:          0  itACCESS:          0  itHIT:          0  itMISS:          0  dtACCESS:          0  dtHIT:          0  dtMISS:          0
cpu0_L1I PREFETCH     ACCESS:   27483556  HIT:   20804025  MISS:    6679531  iACCESS:   27483556  iHIT:   20804025  iMISS:    6679531  dACCESS:          0  dHIT:          0  dMISS:          0  itACCESS:          0  itHIT:          0  itMISS:          0  dtACCESS:          0  dtHIT:          0  dtMISS:          0
cpu0_L1I WRITE        ACCESS:          0  HIT:          0  MISS:          0  iACCESS:          0  iHIT:          0  iMISS:          0  dACCESS:          0  dHIT:          0  dMISS:          0  itACCESS:          0  itHIT:          0  itMISS:          0  dtACCESS:          0  dtHIT:          0  dtMISS:          0
cpu0_L1I TRANSLATION  ACCESS:          0  HIT:          0  MISS:          0  iACCESS:          0  iHIT:          0  iMISS:          0  dACCESS:          0  dHIT:          0  dMISS:          0  itACCESS:          0  itHIT:          0  itMISS:          0  dtACCESS:          0  dtHIT:          0  dtMISS:          0
cpu0_L1I PREFETCH  REQUESTED:   30106356  ISSUED:   30104496  CROSSED:          0  USEFUL:    2197437  USELESS:     750972
cpu0_L1I AVERAGE iMISS LATENCY: 23.4729 cycles
cpu0_L1I AVERAGE dMISS LATENCY: 0 cycles
cpu0_L1I AVERAGE itMISS LATENCY: 0 cycles
cpu0_L1I AVERAGE dtMISS LATENCY: 0 cycles
cpu0_L1I PAGE CROSSINGS (TLB HIT):         0 
cpu0_L1I PAGE CROSSINGS (TLB MISS):         0 
cpu0_L1I AVERAGE MISS LATENCY: 23.4729 cycles
cpu0_ITLB TOTAL       ACCESS:   32910028  HIT:   30717459  MISS:    2192569  iACCESS:   32910028  iHIT:   30717459  iMISS:    2192569  dACCESS:          0  dHIT:          0  dMISS:          0  itACCESS:          0  itHIT:          0  itMISS:          0  dtACCESS:          0  dtHIT:          0  dtMISS:          0
cpu0_ITLB LOAD         ACCESS:   32910028  HIT:   30717459  MISS:    2192569  iACCESS:   32910028  iHIT:   30717459  iMISS:    2192569  dACCESS:          0  dHIT:          0  dMISS:          0  itACCESS:          0  itHIT:          0  itMISS:          0  dtACCESS:          0  dtHIT:          0  dtMISS:          0
cpu0_ITLB RFO          ACCESS:          0  HIT:          0  MISS:          0  iACCESS:          0  iHIT:          0  iMISS:          0  dACCESS:          0  dHIT:          0  dMISS:          0  itACCESS:          0  itHIT:          0  itMISS:          0  dtACCESS:          0  dtHIT:          0  dtMISS:          0
cpu0_ITLB PREFETCH     ACCESS:          0  HIT:          0  MISS:          0  iACCESS:          0  iHIT:          0  iMISS:          0  dACCESS:          0  dHIT:          0  dMISS:          0  itACCESS:          0  itHIT:          0  itMISS:          0  dtACCESS:          0  dtHIT:          0  dtMISS:          0
cpu0_ITLB WRITE        ACCESS:          0  HIT:          0  MISS:          0  iACCESS:          0  iHIT:          0  iMISS:          0  dACCESS:          0  dHIT:          0  dMISS:          0  itACCESS:          0  itHIT:          0  itMISS:          0  dtACCESS:          0  dtHIT:          0  dtMISS:          0
cpu0_ITLB TRANSLATION  ACCESS:          0  HIT:          0  MISS:          0  iACCESS:          0  iHIT:          0  iMISS:          0  dACCESS:          0  dHIT:          0  dMISS:          0  itACCESS:          0  itHIT:          0  itMISS:          0  dtACCESS:          0  dtHIT:          0  dtMISS:          0
cpu0_ITLB PREFETCH  REQUESTED:          0  ISSUED:          0  CROSSED:          0  USEFUL:     383350  USELESS:      77415
cpu0_ITLB AVERAGE iMISS LATENCY: 5.23863 cycles
cpu0_ITLB AVERAGE dMISS LATENCY: 0 cycles
cpu0_ITLB AVERAGE itMISS LATENCY: 0 cycles
cpu0_ITLB AVERAGE dtMISS LATENCY: 0 cycles
cpu0_ITLB PAGE CROSSINGS (TLB HIT):         0 
cpu0_ITLB PAGE CROSSINGS (TLB MISS):         0 
cpu0_ITLB AVERAGE MISS LATENCY: 5.23863 cycles
cpu0_DTLB TOTAL       ACCESS:   28785516  HIT:   25110420  MISS:    3675096  iACCESS:          0  iHIT:          0  iMISS:          0  dACCESS:   28785516  dHIT:   25110420  dMISS:    3675096  itACCESS:          0  itHIT:          0  itMISS:          0  dtACCESS:          0  dtHIT:          0  dtMISS:          0
cpu0_DTLB LOAD         ACCESS:   28785516  HIT:   25110420  MISS:    3675096  iACCESS:          0  iHIT:          0  iMISS:          0  dACCESS:   28785516  dHIT:   25110420  dMISS:    3675096  itACCESS:          0  itHIT:          0  itMISS:          0  dtACCESS:          0  dtHIT:          0  dtMISS:          0
cpu0_DTLB RFO          ACCESS:          0  HIT:          0  MISS:          0  iACCESS:          0  iHIT:          0  iMISS:          0  dACCESS:          0  dHIT:          0  dMISS:          0  itACCESS:          0  itHIT:          0  itMISS:          0  dtACCESS:          0  dtHIT:          0  dtMISS:          0
cpu0_DTLB PREFETCH     ACCESS:          0  HIT:          0  MISS:          0  iACCESS:          0  iHIT:          0  iMISS:          0  dACCESS:          0  dHIT:          0  dMISS:          0  itACCESS:          0  itHIT:          0  itMISS:          0  dtACCESS:          0  dtHIT:          0  dtMISS:          0
cpu0_DTLB WRITE        ACCESS:          0  HIT:          0  MISS:          0  iACCESS:          0  iHIT:          0  iMISS:          0  dACCESS:          0  dHIT:          0  dMISS:          0  itACCESS:          0  itHIT:          0  itMISS:          0  dtACCESS:          0  dtHIT:          0  dtMISS:          0
cpu0_DTLB TRANSLATION  ACCESS:          0  HIT:          0  MISS:          0  iACCESS:          0  iHIT:          0  iMISS:          0  dACCESS:          0  dHIT:          0  dMISS:          0  itACCESS:          0  itHIT:          0  itMISS:          0  dtACCESS:          0  dtHIT:          0  dtMISS:          0
cpu0_DTLB PREFETCH  REQUESTED:          0  ISSUED:          0  CROSSED:          0  USEFUL:          0  USELESS:          0
cpu0_DTLB AVERAGE iMISS LATENCY: 0 cycles
cpu0_DTLB AVERAGE dMISS LATENCY: 18.5216 cycles
cpu0_DTLB AVERAGE itMISS LATENCY: 0 cycles
cpu0_DTLB AVERAGE dtMISS LATENCY: 0 cycles
cpu0_DTLB PAGE CROSSINGS (TLB HIT):         0 
cpu0_DTLB PAGE CROSSINGS (TLB MISS):         0 
cpu0_DTLB AVERAGE MISS LATENCY: 18.5216 cycles
cpu0_STLB TOTAL       ACCESS:    2596493  HIT:    2229378  MISS:     367115  iACCESS:     460788  iHIT:     409388  iMISS:      51400  dACCESS:    2135705  dHIT:    1819990  dMISS:     315715  itACCESS:          0  itHIT:          0  itMISS:          0  dtACCESS:          0  dtHIT:          0  dtMISS:          0
cpu0_STLB LOAD         ACCESS:    2596493  HIT:    2229378  MISS:     367115  iACCESS:     460788  iHIT:     409388  iMISS:      51400  dACCESS:    2135705  dHIT:    1819990  dMISS:     315715  itACCESS:          0  itHIT:          0  itMISS:          0  dtACCESS:          0  dtHIT:          0  dtMISS:          0
cpu0_STLB RFO          ACCESS:          0  HIT:          0  MISS:          0  iACCESS:          0  iHIT:          0  iMISS:          0  dACCESS:          0  dHIT:          0  dMISS:          0  itACCESS:          0  itHIT:          0  itMISS:          0  dtACCESS:          0  dtHIT:          0  dtMISS:          0
cpu0_STLB PREFETCH     ACCESS:          0  HIT:          0  MISS:          0  iACCESS:          0  iHIT:          0  iMISS:          0  dACCESS:          0  dHIT:          0  dMISS:          0  itACCESS:          0  itHIT:          0  itMISS:          0  dtACCESS:          0  dtHIT:          0  dtMISS:          0
cpu0_STLB WRITE        ACCESS:          0  HIT:          0  MISS:          0  iACCESS:          0  iHIT:          0  iMISS:          0  dACCESS:          0  dHIT:          0  dMISS:          0  itACCESS:          0  itHIT:          0  itMISS:          0  dtACCESS:          0  dtHIT:          0  dtMISS:          0
cpu0_STLB TRANSLATION  ACCESS:          0  HIT:          0  MISS:          0  iACCESS:          0  iHIT:          0  iMISS:          0  dACCESS:          0  dHIT:          0  dMISS:          0  itACCESS:          0  itHIT:          0  itMISS:          0  dtACCESS:          0  dtHIT:          0  dtMISS:          0
cpu0_STLB PREFETCH  REQUESTED:          0  ISSUED:          0  CROSSED:          0  USEFUL:          0  USELESS:          0
cpu0_STLB AVERAGE iMISS LATENCY: 21.4449 cycles
cpu0_STLB AVERAGE dMISS LATENCY: 138.533 cycles
cpu0_STLB AVERAGE itMISS LATENCY: 0 cycles
cpu0_STLB AVERAGE dtMISS LATENCY: 0 cycles
cpu0_STLB PAGE CROSSINGS (TLB HIT):         0 
cpu0_STLB PAGE CROSSINGS (TLB MISS):         0 
cpu0_STLB AVERAGE MISS LATENCY: 159.978 cycles
cpu0_L1D TOTAL       ACCESS:   44464150  HIT:   39071411  MISS:    5392739  iACCESS:          0  iHIT:          0  iMISS:          0  dACCESS:   43897469  dHIT:   39041736  dMISS:    4855733  itACCESS:      61633  itHIT:       5055  itMISS:      56578  dtACCESS:     505048  dtHIT:      24620  dtMISS:     480428
cpu0_L1D LOAD         ACCESS:   20024924  HIT:   17856307  MISS:    2168617  iACCESS:          0  iHIT:          0  iMISS:          0  dACCESS:   20024924  dHIT:   17856307  dMISS:    2168617  itACCESS:          0  itHIT:          0  itMISS:          0  dtACCESS:          0  dtHIT:          0  dtMISS:          0
cpu0_L1D RFO          ACCESS:          0  HIT:          0  MISS:          0  iACCESS:          0  iHIT:          0  iMISS:          0  dACCESS:          0  dHIT:          0  dMISS:          0  itACCESS:          0  itHIT:          0  itMISS:          0  dtACCESS:          0  dtHIT:          0  dtMISS:          0
cpu0_L1D PREFETCH     ACCESS:   13736665  HIT:   11608527  MISS:    2128138  iACCESS:          0  iHIT:          0  iMISS:          0  dACCESS:   13736665  dHIT:   11608527  dMISS:    2128138  itACCESS:          0  itHIT:          0  itMISS:          0  dtACCESS:          0  dtHIT:          0  dtMISS:          0
cpu0_L1D WRITE        ACCESS:   10135880  HIT:    9576902  MISS:     558978  iACCESS:          0  iHIT:          0  iMISS:          0  dACCESS:   10135880  dHIT:    9576902  dMISS:     558978  itACCESS:          0  itHIT:          0  itMISS:          0  dtACCESS:          0  dtHIT:          0  dtMISS:          0
cpu0_L1D TRANSLATION  ACCESS:     566681  HIT:      29675  MISS:     537006  iACCESS:          0  iHIT:          0  iMISS:          0  dACCESS:          0  dHIT:          0  dMISS:          0  itACCESS:      61633  itHIT:       5055  itMISS:      56578  dtACCESS:     505048  dtHIT:      24620  dtMISS:     480428
cpu0_L1D PREFETCH  REQUESTED:   20024924  ISSUED:   18345876  CROSSED:          0  USEFUL:     358127  USELESS:     936113
cpu0_L1D AVERAGE iMISS LATENCY: 0 cycles
cpu0_L1D AVERAGE dMISS LATENCY: 51.7104 cycles
cpu0_L1D AVERAGE itMISS LATENCY: 1.3586 cycles
cpu0_L1D AVERAGE dtMISS LATENCY: 8.32895 cycles
cpu0_L1D PAGE CROSSINGS (TLB HIT):         0 
cpu0_L1D PAGE CROSSINGS (TLB MISS):         0 
cpu0_L1D AVERAGE MISS LATENCY: 61.398 cycles
cpu0_L2C TOTAL       ACCESS:    8579444  HIT:    1552176  MISS:    7027268  iACCESS:    3747144  iHIT:     802707  iMISS:    2944437  dACCESS:    4322458  dHIT:     539459  dMISS:    3782999  itACCESS:      56318  itHIT:      14782  itMISS:      41536  dtACCESS:     453524  dtHIT:     195228  dtMISS:     258296
cpu0_L2C LOAD         ACCESS:    2046157  HIT:     209749  MISS:    1836408  iACCESS:     835911  iHIT:     114265  iMISS:     721646  dACCESS:    1210246  dHIT:      95484  dMISS:    1114762  itACCESS:          0  itHIT:          0  itMISS:          0  dtACCESS:          0  dtHIT:          0  dtMISS:          0
cpu0_L2C RFO          ACCESS:     210716  HIT:      29124  MISS:     181592  iACCESS:          0  iHIT:          0  iMISS:          0  dACCESS:     210716  dHIT:      29124  dMISS:     181592  itACCESS:          0  itHIT:          0  itMISS:          0  dtACCESS:          0  dtHIT:          0  dtMISS:          0
cpu0_L2C PREFETCH     ACCESS:    5466724  HIT:     998556  MISS:    4468168  iACCESS:    2911233  iHIT:     688442  iMISS:    2222791  dACCESS:    2555491  dHIT:     310114  dMISS:    2245377  itACCESS:          0  itHIT:          0  itMISS:          0  dtACCESS:          0  dtHIT:          0  dtMISS:          0
cpu0_L2C WRITE        ACCESS:     346005  HIT:     104737  MISS:     241268  iACCESS:          0  iHIT:          0  iMISS:          0  dACCESS:     346005  dHIT:     104737  dMISS:     241268  itACCESS:          0  itHIT:          0  itMISS:          0  dtACCESS:          0  dtHIT:          0  dtMISS:          0
cpu0_L2C TRANSLATION  ACCESS:     509842  HIT:     210010  MISS:     299832  iACCESS:          0  iHIT:          0  iMISS:          0  dACCESS:          0  dHIT:          0  dMISS:          0  itACCESS:      56318  itHIT:      14782  itMISS:      41536  dtACCESS:     453524  dtHIT:     195228  dtMISS:     258296
cpu0_L2C PREFETCH  REQUESTED:    1505872  ISSUED:    1505863  CROSSED:          0  USEFUL:     412166  USELESS:     482973
cpu0_L2C AVERAGE iMISS LATENCY: 26.0251 cycles
cpu0_L2C AVERAGE dMISS LATENCY: 48.8788 cycles
cpu0_L2C AVERAGE itMISS LATENCY: 0.964347 cycles
cpu0_L2C AVERAGE dtMISS LATENCY: 5.77099 cycles
cpu0_L2C PAGE CROSSINGS (TLB HIT):         0 
cpu0_L2C PAGE CROSSINGS (TLB MISS):         0 
cpu0_L2C AVERAGE MISS LATENCY: 81.6392 cycles
LLC TOTAL       ACCESS:    6845174  HIT:    4241284  MISS:    2603890  iACCESS:    2851936  iHIT:    2044487  iMISS:     807449  dACCESS:    3693406  dHIT:    2118458  dMISS:    1574948  itACCESS:      41536  itHIT:       8085  itMISS:      33451  dtACCESS:     258296  dtHIT:      70254  dtMISS:     188042
LLC LOAD         ACCESS:    1830680  HIT:    1205671  MISS:     625009  iACCESS:     720178  iHIT:     552298  iMISS:     167880  dACCESS:    1110502  dHIT:     653373  dMISS:     457129  itACCESS:          0  itHIT:          0  itMISS:          0  dtACCESS:          0  dtHIT:          0  dtMISS:          0
LLC RFO          ACCESS:     181577  HIT:      96342  MISS:      85235  iACCESS:          0  iHIT:          0  iMISS:          0  dACCESS:     181577  dHIT:      96342  dMISS:      85235  itACCESS:          0  itHIT:          0  itMISS:          0  dtACCESS:          0  dtHIT:          0  dtMISS:          0
LLC PREFETCH     ACCESS:    4259115  HIT:    2594273  MISS:    1664842  iACCESS:    2131758  iHIT:    1492189  iMISS:     639569  dACCESS:    2127357  dHIT:    1102084  dMISS:    1025273  itACCESS:          0  itHIT:          0  itMISS:          0  dtACCESS:          0  dtHIT:          0  dtMISS:          0
LLC WRITE        ACCESS:     273970  HIT:     266659  MISS:       7311  iACCESS:          0  iHIT:          0  iMISS:          0  dACCESS:     273970  dHIT:     266659  dMISS:       7311  itACCESS:          0  itHIT:          0  itMISS:          0  dtACCESS:          0  dtHIT:          0  dtMISS:          0
LLC TRANSLATION  ACCESS:     299832  HIT:      78339  MISS:     221493  iACCESS:          0  iHIT:          0  iMISS:          0  dACCESS:          0  dHIT:          0  dMISS:          0  itACCESS:      41536  itHIT:       8085  itMISS:      33451  dtACCESS:     258296  dtHIT:      70254  dtMISS:     188042
LLC PREFETCH  REQUESTED:          0  ISSUED:          0  CROSSED:          0  USEFUL:          0  USELESS:          0
LLC AVERAGE iMISS LATENCY: 48.9711 cycles
LLC AVERAGE dMISS LATENCY: 107.036 cycles
LLC AVERAGE itMISS LATENCY: 2.28776 cycles
LLC AVERAGE dtMISS LATENCY: 13.6228 cycles
LLC PAGE CROSSINGS (TLB HIT):         0 
LLC PAGE CROSSINGS (TLB MISS):         0 
LLC AVERAGE MISS LATENCY: 171.918 cycles

PageTableWalker TOTAL       ACCESS:     180281  
PageTableWalker AVERAGE LATENCY: 6.1939 cycles
PageTableWalker TOTAL LATENCY: 1116641 cycles

DRAM Statistics
Channel 0
 RQ ROW_BUFFER_HIT:     581662
  ROW_BUFFER_MISS:    2004937
 AVG DBUS CONGESTED CYCLE:    3.65052
 WQ ROW_BUFFER_HIT:      63977
  ROW_BUFFER_MISS:      62785  FULL:          0

