last_page:0x200000000000000
VMEM_RES_CAP:0x100000
PAGE_SIZE:4096
LOG2_PAGE_SIZE:12
LOG2_PAGE_TABLE_SIZE:9
page_table_levels:5
WARNING: physical memory size is smaller than virtual memory size
FDiP enabled with aggresivity 16

*** ChampSim Multicore Out-of-Order Simulator ***

Warmup Instructions: 50000000
Simulation Instructions: 100000000
Number of CPUs: 1
Small page size: 4096
Large page size: 2097152

CPU 0 Bimodal branch predictor
Basic BTB sets: 1024 ways: 8 indirect buffer size: 4096 RAS size: 64
Instruction page size distrubution: 0
Loading instruction page size distribution from /home/bsc/bsc018186/scratch/itp_asplos25_AE/dump/smt_srv85_ap_srv697_ap_1024i.pdst
Data page size distrubution: 0
Loading data page size distribution from /home/bsc/bsc018186/scratch/itp_asplos25_AE/dump/smt_srv85_ap_srv697_ap_1024i.pdst
cpu0_L2C IP-based stride prefetcher
cpu0_L2C is using PTP replacement policy:
	TLB_STRESS_THRESHOLD:0
	PTE_EVICTION_RATIO:0
cpu0_L1D next line prefetcher
cpu0_STLB using iTP with max lru@8
cpu0_STLB using iTP with instr@0 and data@2
Init sat counter with 3 bits (max:50).
cpu0_L1I next line prefetcher
Off-chip DRAM Size: 4 GiB Channels: 1 Width: 64-bit Data Rate: 3200 MT/s
Heartbeat CPU 0 instructions: 10000001 cycles: 2500278 heartbeat IPC: 3.99956 cumulative IPC: 3.99956 (Simulation time: 0 hr 0 min 36 sec) 
Heartbeat CPU 0 instructions: 20000003 cycles: 5000485 heartbeat IPC: 3.99967 cumulative IPC: 3.99962 (Simulation time: 0 hr 1 min 14 sec) 
Heartbeat CPU 0 instructions: 30000003 cycles: 7500628 heartbeat IPC: 3.99978 cumulative IPC: 3.99967 (Simulation time: 0 hr 1 min 53 sec) 
Heartbeat CPU 0 instructions: 40000003 cycles: 10000703 heartbeat IPC: 3.99989 cumulative IPC: 3.99972 (Simulation time: 0 hr 2 min 32 sec) 
Heartbeat CPU 0 instructions: 50000003 cycles: 12500780 heartbeat IPC: 3.99988 cumulative IPC: 3.99976 (Simulation time: 0 hr 3 min 11 sec) 
Warmup finished CPU 0 instructions: 50000003 cycles: 12500781 cumulative IPC: 3.99976 (Simulation time: 0 hr 3 min 11 sec) 

Warmup complete CPU 0 instructions: 50000003 cycles: 12500781 (Simulation time: 0 hr 3 min 11 sec) 

Heartbeat CPU 0 instructions: 60000003 cycles: 41917127 heartbeat IPC: 0.339948 cumulative IPC: 0.339948 (Simulation time: 0 hr 4 min 31 sec) 
Heartbeat CPU 0 instructions: 70000002 cycles: 70393919 heartbeat IPC: 0.351164 cumulative IPC: 0.345465 (Simulation time: 0 hr 5 min 50 sec) 
Heartbeat CPU 0 instructions: 80000002 cycles: 99474087 heartbeat IPC: 0.343877 cumulative IPC: 0.344934 (Simulation time: 0 hr 7 min 10 sec) 
Heartbeat CPU 0 instructions: 90000002 cycles: 129309832 heartbeat IPC: 0.335169 cumulative IPC: 0.34244 (Simulation time: 0 hr 8 min 30 sec) 
Heartbeat CPU 0 instructions: 100000000 cycles: 158473773 heartbeat IPC: 0.34289 cumulative IPC: 0.34253 (Simulation time: 0 hr 9 min 50 sec) 
Heartbeat CPU 0 instructions: 110000002 cycles: 187410046 heartbeat IPC: 0.345588 cumulative IPC: 0.343035 (Simulation time: 0 hr 11 min 9 sec) 
Heartbeat CPU 0 instructions: 120000001 cycles: 216830835 heartbeat IPC: 0.339896 cumulative IPC: 0.342583 (Simulation time: 0 hr 12 min 29 sec) 
Heartbeat CPU 0 instructions: 130000004 cycles: 246146447 heartbeat IPC: 0.341116 cumulative IPC: 0.342399 (Simulation time: 0 hr 13 min 49 sec) 
Heartbeat CPU 0 instructions: 140000004 cycles: 274539741 heartbeat IPC: 0.352196 cumulative IPC: 0.343461 (Simulation time: 0 hr 15 min 8 sec) 
Heartbeat CPU 0 instructions: 150000002 cycles: 304116817 heartbeat IPC: 0.3381 cumulative IPC: 0.342917 (Simulation time: 0 hr 16 min 29 sec) 
Simulation finished CPU 0 instructions: 100000004 cycles: 291616038 cumulative IPC: 0.342917 (Simulation time: 0 hr 16 min 29 sec) 

Simulation complete CPU 0 instructions: 100000004 cycles: 291616038 (Simulation time: 0 hr 16 min 29 sec) 


ChampSim completed all CPUs

Saving instructions large page distribution to /home/bsc/bsc018186/scratch/itp_asplos25_AE/dump/smt_srv85_ap_srv697_ap_1024i.pdst...
Saving data large page distribution to /home/bsc/bsc018186/scratch/itp_asplos25_AE/dump/smt_srv85_ap_srv697_ap_1024i.pdst...
=== Simulation ===
CPU 0 runs /gpfs/projects/bsc18/MN4/bsc18/romol/ChampSim/traces/qualcomm_srv/smt_srv85_ap_srv697_ap_1024i.champsimtrace.xz

Region of Interest Statistics

CPU 0 cumulative IPC: 0.342917 instructions: 100000004 cycles: 291616038
CPU 0 Branch Prediction Accuracy: 75.8097% MPKI: 43.476 Average ROB Occupancy at Mispredict: 11.5081
Branch type MPKI
BRANCH_DIRECT_JUMP: 1.31006
BRANCH_INDIRECT: 22.7115
BRANCH_CONDITIONAL: 12.6022
BRANCH_DIRECT_CALL: 2.48505
BRANCH_INDIRECT_CALL: 0.92767
BRANCH_RETURN: 3.43951

Instructions large pages: 0
Instructions small pages: 13219
Large page distribution for instructions: 0%

Data large pages: 0
Data small pages: 11961
Large page distribution for data: 0%

cpu0_L1I TOTAL       ACCESS:   39070030  HIT:   30386175  MISS:    8683855  iACCESS:   39070030  iHIT:   30386175  iMISS:    8683855  dACCESS:          0  dHIT:          0  dMISS:          0  itACCESS:          0  itHIT:          0  itMISS:          0  dtACCESS:          0  dtHIT:          0  dtMISS:          0
cpu0_L1I LOAD         ACCESS:   11747242  HIT:    9376882  MISS:    2370360  iACCESS:   11747242  iHIT:    9376882  iMISS:    2370360  dACCESS:          0  dHIT:          0  dMISS:          0  itACCESS:          0  itHIT:          0  itMISS:          0  dtACCESS:          0  dtHIT:          0  dtMISS:          0
cpu0_L1I RFO          ACCESS:          0  HIT:          0  MISS:          0  iACCESS:          0  iHIT:          0  iMISS:          0  dACCESS:          0  dHIT:          0  dMISS:          0  itACCESS:          0  itHIT:          0  itMISS:          0  dtACCESS:          0  dtHIT:          0  dtMISS:          0
cpu0_L1I PREFETCH     ACCESS:   27322788  HIT:   21009293  MISS:    6313495  iACCESS:   27322788  iHIT:   21009293  iMISS:    6313495  dACCESS:          0  dHIT:          0  dMISS:          0  itACCESS:          0  itHIT:          0  itMISS:          0  dtACCESS:          0  dtHIT:          0  dtMISS:          0
cpu0_L1I WRITE        ACCESS:          0  HIT:          0  MISS:          0  iACCESS:          0  iHIT:          0  iMISS:          0  dACCESS:          0  dHIT:          0  dMISS:          0  itACCESS:          0  itHIT:          0  itMISS:          0  dtACCESS:          0  dtHIT:          0  dtMISS:          0
cpu0_L1I TRANSLATION  ACCESS:          0  HIT:          0  MISS:          0  iACCESS:          0  iHIT:          0  iMISS:          0  dACCESS:          0  dHIT:          0  dMISS:          0  itACCESS:          0  itHIT:          0  itMISS:          0  dtACCESS:          0  dtHIT:          0  dtMISS:          0
cpu0_L1I PREFETCH  REQUESTED:   30189155  ISSUED:   30189136  CROSSED:          0  USEFUL:    2198754  USELESS:     754807
cpu0_L1I AVERAGE iMISS LATENCY: 23.5637 cycles
cpu0_L1I AVERAGE dMISS LATENCY: 0 cycles
cpu0_L1I AVERAGE itMISS LATENCY: 0 cycles
cpu0_L1I AVERAGE dtMISS LATENCY: 0 cycles
cpu0_L1I PAGE CROSSINGS (TLB HIT):         0 
cpu0_L1I PAGE CROSSINGS (TLB MISS):         0 
cpu0_L1I AVERAGE MISS LATENCY: 23.5637 cycles
cpu0_ITLB TOTAL       ACCESS:   32977834  HIT:   30778190  MISS:    2199644  iACCESS:   32977834  iHIT:   30778190  iMISS:    2199644  dACCESS:          0  dHIT:          0  dMISS:          0  itACCESS:          0  itHIT:          0  itMISS:          0  dtACCESS:          0  dtHIT:          0  dtMISS:          0
cpu0_ITLB LOAD         ACCESS:   32977834  HIT:   30778190  MISS:    2199644  iACCESS:   32977834  iHIT:   30778190  iMISS:    2199644  dACCESS:          0  dHIT:          0  dMISS:          0  itACCESS:          0  itHIT:          0  itMISS:          0  dtACCESS:          0  dtHIT:          0  dtMISS:          0
cpu0_ITLB RFO          ACCESS:          0  HIT:          0  MISS:          0  iACCESS:          0  iHIT:          0  iMISS:          0  dACCESS:          0  dHIT:          0  dMISS:          0  itACCESS:          0  itHIT:          0  itMISS:          0  dtACCESS:          0  dtHIT:          0  dtMISS:          0
cpu0_ITLB PREFETCH     ACCESS:          0  HIT:          0  MISS:          0  iACCESS:          0  iHIT:          0  iMISS:          0  dACCESS:          0  dHIT:          0  dMISS:          0  itACCESS:          0  itHIT:          0  itMISS:          0  dtACCESS:          0  dtHIT:          0  dtMISS:          0
cpu0_ITLB WRITE        ACCESS:          0  HIT:          0  MISS:          0  iACCESS:          0  iHIT:          0  iMISS:          0  dACCESS:          0  dHIT:          0  dMISS:          0  itACCESS:          0  itHIT:          0  itMISS:          0  dtACCESS:          0  dtHIT:          0  dtMISS:          0
cpu0_ITLB TRANSLATION  ACCESS:          0  HIT:          0  MISS:          0  iACCESS:          0  iHIT:          0  iMISS:          0  dACCESS:          0  dHIT:          0  dMISS:          0  itACCESS:          0  itHIT:          0  itMISS:          0  dtACCESS:          0  dtHIT:          0  dtMISS:          0
cpu0_ITLB PREFETCH  REQUESTED:          0  ISSUED:          0  CROSSED:          0  USEFUL:     383541  USELESS:      77740
cpu0_ITLB AVERAGE iMISS LATENCY: 6.08997 cycles
cpu0_ITLB AVERAGE dMISS LATENCY: 0 cycles
cpu0_ITLB AVERAGE itMISS LATENCY: 0 cycles
cpu0_ITLB AVERAGE dtMISS LATENCY: 0 cycles
cpu0_ITLB PAGE CROSSINGS (TLB HIT):         0 
cpu0_ITLB PAGE CROSSINGS (TLB MISS):         0 
cpu0_ITLB AVERAGE MISS LATENCY: 6.08997 cycles
cpu0_DTLB TOTAL       ACCESS:   28766447  HIT:   25024632  MISS:    3741815  iACCESS:          0  iHIT:          0  iMISS:          0  dACCESS:   28766447  dHIT:   25024632  dMISS:    3741815  itACCESS:          0  itHIT:          0  itMISS:          0  dtACCESS:          0  dtHIT:          0  dtMISS:          0
cpu0_DTLB LOAD         ACCESS:   28766447  HIT:   25024632  MISS:    3741815  iACCESS:          0  iHIT:          0  iMISS:          0  dACCESS:   28766447  dHIT:   25024632  dMISS:    3741815  itACCESS:          0  itHIT:          0  itMISS:          0  dtACCESS:          0  dtHIT:          0  dtMISS:          0
cpu0_DTLB RFO          ACCESS:          0  HIT:          0  MISS:          0  iACCESS:          0  iHIT:          0  iMISS:          0  dACCESS:          0  dHIT:          0  dMISS:          0  itACCESS:          0  itHIT:          0  itMISS:          0  dtACCESS:          0  dtHIT:          0  dtMISS:          0
cpu0_DTLB PREFETCH     ACCESS:          0  HIT:          0  MISS:          0  iACCESS:          0  iHIT:          0  iMISS:          0  dACCESS:          0  dHIT:          0  dMISS:          0  itACCESS:          0  itHIT:          0  itMISS:          0  dtACCESS:          0  dtHIT:          0  dtMISS:          0
cpu0_DTLB WRITE        ACCESS:          0  HIT:          0  MISS:          0  iACCESS:          0  iHIT:          0  iMISS:          0  dACCESS:          0  dHIT:          0  dMISS:          0  itACCESS:          0  itHIT:          0  itMISS:          0  dtACCESS:          0  dtHIT:          0  dtMISS:          0
cpu0_DTLB TRANSLATION  ACCESS:          0  HIT:          0  MISS:          0  iACCESS:          0  iHIT:          0  iMISS:          0  dACCESS:          0  dHIT:          0  dMISS:          0  itACCESS:          0  itHIT:          0  itMISS:          0  dtACCESS:          0  dtHIT:          0  dtMISS:          0
cpu0_DTLB PREFETCH  REQUESTED:          0  ISSUED:          0  CROSSED:          0  USEFUL:          0  USELESS:          0
cpu0_DTLB AVERAGE iMISS LATENCY: 0 cycles
cpu0_DTLB AVERAGE dMISS LATENCY: 27.1062 cycles
cpu0_DTLB AVERAGE itMISS LATENCY: 0 cycles
cpu0_DTLB AVERAGE dtMISS LATENCY: 0 cycles
cpu0_DTLB PAGE CROSSINGS (TLB HIT):         0 
cpu0_DTLB PAGE CROSSINGS (TLB MISS):         0 
cpu0_DTLB AVERAGE MISS LATENCY: 27.1062 cycles
cpu0_STLB TOTAL       ACCESS:    2619720  HIT:    2255551  MISS:     364169  iACCESS:     461280  iHIT:     411109  iMISS:      50171  dACCESS:    2158440  dHIT:    1844442  dMISS:     313998  itACCESS:          0  itHIT:          0  itMISS:          0  dtACCESS:          0  dtHIT:          0  dtMISS:          0
cpu0_STLB LOAD         ACCESS:    2619720  HIT:    2255551  MISS:     364169  iACCESS:     461280  iHIT:     411109  iMISS:      50171  dACCESS:    2158440  dHIT:    1844442  dMISS:     313998  itACCESS:          0  itHIT:          0  itMISS:          0  dtACCESS:          0  dtHIT:          0  dtMISS:          0
cpu0_STLB RFO          ACCESS:          0  HIT:          0  MISS:          0  iACCESS:          0  iHIT:          0  iMISS:          0  dACCESS:          0  dHIT:          0  dMISS:          0  itACCESS:          0  itHIT:          0  itMISS:          0  dtACCESS:          0  dtHIT:          0  dtMISS:          0
cpu0_STLB PREFETCH     ACCESS:          0  HIT:          0  MISS:          0  iACCESS:          0  iHIT:          0  iMISS:          0  dACCESS:          0  dHIT:          0  dMISS:          0  itACCESS:          0  itHIT:          0  itMISS:          0  dtACCESS:          0  dtHIT:          0  dtMISS:          0
cpu0_STLB WRITE        ACCESS:          0  HIT:          0  MISS:          0  iACCESS:          0  iHIT:          0  iMISS:          0  dACCESS:          0  dHIT:          0  dMISS:          0  itACCESS:          0  itHIT:          0  itMISS:          0  dtACCESS:          0  dtHIT:          0  dtMISS:          0
cpu0_STLB TRANSLATION  ACCESS:          0  HIT:          0  MISS:          0  iACCESS:          0  iHIT:          0  iMISS:          0  dACCESS:          0  dHIT:          0  dMISS:          0  itACCESS:          0  itHIT:          0  itMISS:          0  dtACCESS:          0  dtHIT:          0  dtMISS:          0
cpu0_STLB PREFETCH  REQUESTED:          0  ISSUED:          0  CROSSED:          0  USEFUL:          0  USELESS:          0
cpu0_STLB AVERAGE iMISS LATENCY: 26.845 cycles
cpu0_STLB AVERAGE dMISS LATENCY: 230.674 cycles
cpu0_STLB AVERAGE itMISS LATENCY: 0 cycles
cpu0_STLB AVERAGE dtMISS LATENCY: 0 cycles
cpu0_STLB PAGE CROSSINGS (TLB HIT):         0 
cpu0_STLB PAGE CROSSINGS (TLB MISS):         0 
cpu0_STLB AVERAGE MISS LATENCY: 257.519 cycles
cpu0_L1D TOTAL       ACCESS:   44429725  HIT:   39064084  MISS:    5365641  iACCESS:          0  iHIT:          0  iMISS:          0  dACCESS:   43862707  dHIT:   39034822  dMISS:    4827885  itACCESS:      61697  itHIT:       5038  itMISS:      56659  dtACCESS:     505321  dtHIT:      24224  dtMISS:     481097
cpu0_L1D LOAD         ACCESS:   19993211  HIT:   17840475  MISS:    2152736  iACCESS:          0  iHIT:          0  iMISS:          0  dACCESS:   19993211  dHIT:   17840475  dMISS:    2152736  itACCESS:          0  itHIT:          0  itMISS:          0  dtACCESS:          0  dtHIT:          0  dtMISS:          0
cpu0_L1D RFO          ACCESS:          0  HIT:          0  MISS:          0  iACCESS:          0  iHIT:          0  iMISS:          0  dACCESS:          0  dHIT:          0  dMISS:          0  itACCESS:          0  itHIT:          0  itMISS:          0  dtACCESS:          0  dtHIT:          0  dtMISS:          0
cpu0_L1D PREFETCH     ACCESS:   13730272  HIT:   11614722  MISS:    2115550  iACCESS:          0  iHIT:          0  iMISS:          0  dACCESS:   13730272  dHIT:   11614722  dMISS:    2115550  itACCESS:          0  itHIT:          0  itMISS:          0  dtACCESS:          0  dtHIT:          0  dtMISS:          0
cpu0_L1D WRITE        ACCESS:   10139224  HIT:    9579625  MISS:     559599  iACCESS:          0  iHIT:          0  iMISS:          0  dACCESS:   10139224  dHIT:    9579625  dMISS:     559599  itACCESS:          0  itHIT:          0  itMISS:          0  dtACCESS:          0  dtHIT:          0  dtMISS:          0
cpu0_L1D TRANSLATION  ACCESS:     567018  HIT:      29262  MISS:     537756  iACCESS:          0  iHIT:          0  iMISS:          0  dACCESS:          0  dHIT:          0  dMISS:          0  itACCESS:      61697  itHIT:       5038  itMISS:      56659  dtACCESS:     505321  dtHIT:      24224  dtMISS:     481097
cpu0_L1D PREFETCH  REQUESTED:   19993211  ISSUED:   18354238  CROSSED:          0  USEFUL:     357222  USELESS:     934085
cpu0_L1D AVERAGE iMISS LATENCY: 0 cycles
cpu0_L1D AVERAGE dMISS LATENCY: 50.8358 cycles
cpu0_L1D AVERAGE itMISS LATENCY: 1.72521 cycles
cpu0_L1D AVERAGE dtMISS LATENCY: 14.5363 cycles
cpu0_L1D PAGE CROSSINGS (TLB HIT):         0 
cpu0_L1D PAGE CROSSINGS (TLB MISS):         0 
cpu0_L1D AVERAGE MISS LATENCY: 67.0973 cycles
cpu0_L2C TOTAL       ACCESS:    8583517  HIT:    4192416  MISS:    4391101  iACCESS:    3757831  iHIT:    2297353  iMISS:    1460478  dACCESS:    4320172  dHIT:    1830354  dMISS:    2489818  itACCESS:      54794  itHIT:       7727  itMISS:      47067  dtACCESS:     450720  dtHIT:      56982  dtMISS:     393738
cpu0_L2C LOAD         ACCESS:    2052501  HIT:    1012857  MISS:    1039644  iACCESS:     842878  iHIT:     541022  iMISS:     301856  dACCESS:    1209623  dHIT:     471835  dMISS:     737788  itACCESS:          0  itHIT:          0  itMISS:          0  dtACCESS:          0  dtHIT:          0  dtMISS:          0
cpu0_L2C RFO          ACCESS:     210224  HIT:      83403  MISS:     126821  iACCESS:          0  iHIT:          0  iMISS:          0  dACCESS:     210224  dHIT:      83403  dMISS:     126821  itACCESS:          0  itHIT:          0  itMISS:          0  dtACCESS:          0  dtHIT:          0  dtMISS:          0
cpu0_L2C PREFETCH     ACCESS:    5468244  HIT:    2689555  MISS:    2778689  iACCESS:    2914953  iHIT:    1756331  iMISS:    1158622  dACCESS:    2553291  dHIT:     933224  dMISS:    1620067  itACCESS:          0  itHIT:          0  itMISS:          0  dtACCESS:          0  dtHIT:          0  dtMISS:          0
cpu0_L2C WRITE        ACCESS:     347034  HIT:     341892  MISS:       5142  iACCESS:          0  iHIT:          0  iMISS:          0  dACCESS:     347034  dHIT:     341892  dMISS:       5142  itACCESS:          0  itHIT:          0  itMISS:          0  dtACCESS:          0  dtHIT:          0  dtMISS:          0
cpu0_L2C TRANSLATION  ACCESS:     505514  HIT:      64709  MISS:     440805  iACCESS:          0  iHIT:          0  iMISS:          0  dACCESS:          0  dHIT:          0  dMISS:          0  itACCESS:      54794  itHIT:       7727  itMISS:      47067  dtACCESS:     450720  dtHIT:      56982  dtMISS:     393738
cpu0_L2C PREFETCH  REQUESTED:    1506325  ISSUED:    1506320  CROSSED:          0  USEFUL:     358728  USELESS:     318517
cpu0_L2C AVERAGE iMISS LATENCY: 39.3856 cycles
cpu0_L2C AVERAGE dMISS LATENCY: 77.1135 cycles
cpu0_L2C AVERAGE itMISS LATENCY: 1.98474 cycles
cpu0_L2C AVERAGE dtMISS LATENCY: 16.7427 cycles
cpu0_L2C PAGE CROSSINGS (TLB HIT):         0 
cpu0_L2C PAGE CROSSINGS (TLB MISS):         0 
cpu0_L2C AVERAGE MISS LATENCY: 135.227 cycles
LLC TOTAL       ACCESS:    4393154  HIT:    1419057  MISS:    2974097  iACCESS:    1370043  iHIT:     454476  iMISS:     915567  dACCESS:    2582306  dHIT:     908350  dMISS:    1673956  itACCESS:      47067  itHIT:       3465  itMISS:      43602  dtACCESS:     393738  dtHIT:      52766  dtMISS:     340972
LLC LOAD         ACCESS:    1034275  HIT:     354126  MISS:     680149  iACCESS:     300613  iHIT:     106838  iMISS:     193775  dACCESS:     733662  dHIT:     247288  dMISS:     486374  itACCESS:          0  itHIT:          0  itMISS:          0  dtACCESS:          0  dtHIT:          0  dtMISS:          0
LLC RFO          ACCESS:     126816  HIT:      40824  MISS:      85992  iACCESS:          0  iHIT:          0  iMISS:          0  dACCESS:     126816  dHIT:      40824  dMISS:      85992  itACCESS:          0  itHIT:          0  itMISS:          0  dtACCESS:          0  dtHIT:          0  dtMISS:          0
LLC PREFETCH     ACCESS:    2575138  HIT:     762896  MISS:    1812242  iACCESS:    1069430  iHIT:     347638  iMISS:     721792  dACCESS:    1505708  dHIT:     415258  dMISS:    1090450  itACCESS:          0  itHIT:          0  itMISS:          0  dtACCESS:          0  dtHIT:          0  dtMISS:          0
LLC WRITE        ACCESS:     216120  HIT:     204980  MISS:      11140  iACCESS:          0  iHIT:          0  iMISS:          0  dACCESS:     216120  dHIT:     204980  dMISS:      11140  itACCESS:          0  itHIT:          0  itMISS:          0  dtACCESS:          0  dtHIT:          0  dtMISS:          0
LLC TRANSLATION  ACCESS:     440805  HIT:      56231  MISS:     384574  iACCESS:          0  iHIT:          0  iMISS:          0  dACCESS:          0  dHIT:          0  dMISS:          0  itACCESS:      47067  itHIT:       3465  itMISS:      43602  dtACCESS:     393738  dtHIT:      52766  dtMISS:     340972
LLC PREFETCH  REQUESTED:          0  ISSUED:          0  CROSSED:          0  USEFUL:          0  USELESS:          0
LLC AVERAGE iMISS LATENCY: 49.0846 cycles
LLC AVERAGE dMISS LATENCY: 98.8621 cycles
LLC AVERAGE itMISS LATENCY: 2.61659 cycles
LLC AVERAGE dtMISS LATENCY: 22.1043 cycles
LLC PAGE CROSSINGS (TLB HIT):         0 
LLC PAGE CROSSINGS (TLB MISS):         0 
LLC AVERAGE MISS LATENCY: 172.668 cycles

PageTableWalker TOTAL       ACCESS:     178998  
PageTableWalker AVERAGE LATENCY: 6.86599 cycles
PageTableWalker TOTAL LATENCY: 1228998 cycles

DRAM Statistics
Channel 0
 RQ ROW_BUFFER_HIT:     634035
  ROW_BUFFER_MISS:    2318551
 AVG DBUS CONGESTED CYCLE:    3.64824
 WQ ROW_BUFFER_HIT:      64780
  ROW_BUFFER_MISS:      55210  FULL:          0

