last_page:0x200000000000000
VMEM_RES_CAP:0x100000
PAGE_SIZE:4096
LOG2_PAGE_SIZE:12
LOG2_PAGE_TABLE_SIZE:9
page_table_levels:5
WARNING: physical memory size is smaller than virtual memory size
FDiP enabled with aggresivity 16

*** ChampSim Multicore Out-of-Order Simulator ***

Warmup Instructions: 50000000
Simulation Instructions: 100000000
Number of CPUs: 1
Small page size: 4096
Large page size: 2097152

CPU 0 Bimodal branch predictor
Basic BTB sets: 1024 ways: 8 indirect buffer size: 4096 RAS size: 64
Instruction page size distrubution: 0
Loading instruction page size distribution from /home/bsc/bsc018186/scratch/itp_asplos25_AE/dump/smt_srv85_ap_srv73_ap_1024i.pdst
Data page size distrubution: 0
Loading data page size distribution from /home/bsc/bsc018186/scratch/itp_asplos25_AE/dump/smt_srv85_ap_srv73_ap_1024i.pdst
cpu0_L2C IP-based stride prefetcher
cpu0_L2C is using PTP replacement policy:
	TLB_STRESS_THRESHOLD:0
	PTE_EVICTION_RATIO:0
cpu0_L1D next line prefetcher
cpu0_STLB using iTP with max lru@8
cpu0_STLB using iTP with instr@0 and data@2
Init sat counter with 3 bits (max:50).
cpu0_L1I next line prefetcher
Off-chip DRAM Size: 4 GiB Channels: 1 Width: 64-bit Data Rate: 3200 MT/s
Heartbeat CPU 0 instructions: 10000002 cycles: 2500386 heartbeat IPC: 3.99939 cumulative IPC: 3.99939 (Simulation time: 0 hr 0 min 37 sec) 
Heartbeat CPU 0 instructions: 20000001 cycles: 5000621 heartbeat IPC: 3.99963 cumulative IPC: 3.99951 (Simulation time: 0 hr 1 min 15 sec) 
Heartbeat CPU 0 instructions: 30000001 cycles: 7500814 heartbeat IPC: 3.9997 cumulative IPC: 3.99957 (Simulation time: 0 hr 1 min 54 sec) 
Heartbeat CPU 0 instructions: 40000000 cycles: 10001019 heartbeat IPC: 3.99968 cumulative IPC: 3.9996 (Simulation time: 0 hr 2 min 33 sec) 
Heartbeat CPU 0 instructions: 50000002 cycles: 12502605 heartbeat IPC: 3.99747 cumulative IPC: 3.99917 (Simulation time: 0 hr 3 min 13 sec) 
Warmup finished CPU 0 instructions: 50000002 cycles: 12502606 cumulative IPC: 3.99917 (Simulation time: 0 hr 3 min 13 sec) 

Warmup complete CPU 0 instructions: 50000002 cycles: 12502606 (Simulation time: 0 hr 3 min 13 sec) 

Heartbeat CPU 0 instructions: 60000004 cycles: 36444701 heartbeat IPC: 0.417675 cumulative IPC: 0.417675 (Simulation time: 0 hr 4 min 25 sec) 
Heartbeat CPU 0 instructions: 70000003 cycles: 58566399 heartbeat IPC: 0.452045 cumulative IPC: 0.434181 (Simulation time: 0 hr 5 min 34 sec) 
Heartbeat CPU 0 instructions: 80000002 cycles: 81829380 heartbeat IPC: 0.429868 cumulative IPC: 0.432734 (Simulation time: 0 hr 6 min 45 sec) 
Heartbeat CPU 0 instructions: 90000002 cycles: 112758165 heartbeat IPC: 0.323324 cumulative IPC: 0.398981 (Simulation time: 0 hr 8 min 7 sec) 
Heartbeat CPU 0 instructions: 100000000 cycles: 144560283 heartbeat IPC: 0.314445 cumulative IPC: 0.378623 (Simulation time: 0 hr 9 min 30 sec) 
Heartbeat CPU 0 instructions: 110000001 cycles: 175969083 heartbeat IPC: 0.318383 cumulative IPC: 0.367048 (Simulation time: 0 hr 10 min 53 sec) 
Heartbeat CPU 0 instructions: 120000001 cycles: 205892117 heartbeat IPC: 0.334191 cumulative IPC: 0.361964 (Simulation time: 0 hr 12 min 15 sec) 
Heartbeat CPU 0 instructions: 130000000 cycles: 223596106 heartbeat IPC: 0.564845 cumulative IPC: 0.378979 (Simulation time: 0 hr 13 min 23 sec) 
Heartbeat CPU 0 instructions: 140000004 cycles: 244512739 heartbeat IPC: 0.478089 cumulative IPC: 0.387915 (Simulation time: 0 hr 14 min 35 sec) 
Heartbeat CPU 0 instructions: 150000000 cycles: 275706334 heartbeat IPC: 0.320579 cumulative IPC: 0.379934 (Simulation time: 0 hr 15 min 58 sec) 
Simulation finished CPU 0 instructions: 100000003 cycles: 263203730 cumulative IPC: 0.379934 (Simulation time: 0 hr 15 min 58 sec) 

Simulation complete CPU 0 instructions: 100000003 cycles: 263203730 (Simulation time: 0 hr 15 min 58 sec) 


ChampSim completed all CPUs

Saving instructions large page distribution to /home/bsc/bsc018186/scratch/itp_asplos25_AE/dump/smt_srv85_ap_srv73_ap_1024i.pdst...
Saving data large page distribution to /home/bsc/bsc018186/scratch/itp_asplos25_AE/dump/smt_srv85_ap_srv73_ap_1024i.pdst...
=== Simulation ===
CPU 0 runs /gpfs/projects/bsc18/MN4/bsc18/romol/ChampSim/traces/qualcomm_srv/smt_srv85_ap_srv73_ap_1024i.champsimtrace.xz

Region of Interest Statistics

CPU 0 cumulative IPC: 0.379934 instructions: 100000003 cycles: 263203730
CPU 0 Branch Prediction Accuracy: 77.8344% MPKI: 42.992 Average ROB Occupancy at Mispredict: 11.0883
Branch type MPKI
BRANCH_DIRECT_JUMP: 1.10547
BRANCH_INDIRECT: 23.0236
BRANCH_CONDITIONAL: 12.2427
BRANCH_DIRECT_CALL: 2.0156
BRANCH_INDIRECT_CALL: 1.67551
BRANCH_RETURN: 2.92911

Instructions large pages: 0
Instructions small pages: 11330
Large page distribution for instructions: 0%

Data large pages: 0
Data small pages: 9490
Large page distribution for data: 0%

cpu0_L1I TOTAL       ACCESS:   38209164  HIT:   31068242  MISS:    7140922  iACCESS:   38209164  iHIT:   31068242  iMISS:    7140922  dACCESS:          0  dHIT:          0  dMISS:          0  itACCESS:          0  itHIT:          0  itMISS:          0  dtACCESS:          0  dtHIT:          0  dtMISS:          0
cpu0_L1I LOAD         ACCESS:   10591748  HIT:    8634882  MISS:    1956866  iACCESS:   10591748  iHIT:    8634882  iMISS:    1956866  dACCESS:          0  dHIT:          0  dMISS:          0  itACCESS:          0  itHIT:          0  itMISS:          0  dtACCESS:          0  dtHIT:          0  dtMISS:          0
cpu0_L1I RFO          ACCESS:          0  HIT:          0  MISS:          0  iACCESS:          0  iHIT:          0  iMISS:          0  dACCESS:          0  dHIT:          0  dMISS:          0  itACCESS:          0  itHIT:          0  itMISS:          0  dtACCESS:          0  dtHIT:          0  dtMISS:          0
cpu0_L1I PREFETCH     ACCESS:   27617416  HIT:   22433360  MISS:    5184056  iACCESS:   27617416  iHIT:   22433360  iMISS:    5184056  dACCESS:          0  dHIT:          0  dMISS:          0  itACCESS:          0  itHIT:          0  itMISS:          0  dtACCESS:          0  dtHIT:          0  dtMISS:          0
cpu0_L1I WRITE        ACCESS:          0  HIT:          0  MISS:          0  iACCESS:          0  iHIT:          0  iMISS:          0  dACCESS:          0  dHIT:          0  dMISS:          0  itACCESS:          0  itHIT:          0  itMISS:          0  dtACCESS:          0  dtHIT:          0  dtMISS:          0
cpu0_L1I TRANSLATION  ACCESS:          0  HIT:          0  MISS:          0  iACCESS:          0  iHIT:          0  iMISS:          0  dACCESS:          0  dHIT:          0  dMISS:          0  itACCESS:          0  itHIT:          0  itMISS:          0  dtACCESS:          0  dtHIT:          0  dtMISS:          0
cpu0_L1I PREFETCH  REQUESTED:   30038856  ISSUED:   30038708  CROSSED:          0  USEFUL:    1801913  USELESS:     650242
cpu0_L1I AVERAGE iMISS LATENCY: 24.2422 cycles
cpu0_L1I AVERAGE dMISS LATENCY: 0 cycles
cpu0_L1I AVERAGE itMISS LATENCY: 0 cycles
cpu0_L1I AVERAGE dtMISS LATENCY: 0 cycles
cpu0_L1I PAGE CROSSINGS (TLB HIT):         0 
cpu0_L1I PAGE CROSSINGS (TLB MISS):         0 
cpu0_L1I AVERAGE MISS LATENCY: 24.2422 cycles
cpu0_ITLB TOTAL       ACCESS:   32342076  HIT:   30483975  MISS:    1858101  iACCESS:   32342076  iHIT:   30483975  iMISS:    1858101  dACCESS:          0  dHIT:          0  dMISS:          0  itACCESS:          0  itHIT:          0  itMISS:          0  dtACCESS:          0  dtHIT:          0  dtMISS:          0
cpu0_ITLB LOAD         ACCESS:   32342076  HIT:   30483975  MISS:    1858101  iACCESS:   32342076  iHIT:   30483975  iMISS:    1858101  dACCESS:          0  dHIT:          0  dMISS:          0  itACCESS:          0  itHIT:          0  itMISS:          0  dtACCESS:          0  dtHIT:          0  dtMISS:          0
cpu0_ITLB RFO          ACCESS:          0  HIT:          0  MISS:          0  iACCESS:          0  iHIT:          0  iMISS:          0  dACCESS:          0  dHIT:          0  dMISS:          0  itACCESS:          0  itHIT:          0  itMISS:          0  dtACCESS:          0  dtHIT:          0  dtMISS:          0
cpu0_ITLB PREFETCH     ACCESS:          0  HIT:          0  MISS:          0  iACCESS:          0  iHIT:          0  iMISS:          0  dACCESS:          0  dHIT:          0  dMISS:          0  itACCESS:          0  itHIT:          0  itMISS:          0  dtACCESS:          0  dtHIT:          0  dtMISS:          0
cpu0_ITLB WRITE        ACCESS:          0  HIT:          0  MISS:          0  iACCESS:          0  iHIT:          0  iMISS:          0  dACCESS:          0  dHIT:          0  dMISS:          0  itACCESS:          0  itHIT:          0  itMISS:          0  dtACCESS:          0  dtHIT:          0  dtMISS:          0
cpu0_ITLB TRANSLATION  ACCESS:          0  HIT:          0  MISS:          0  iACCESS:          0  iHIT:          0  iMISS:          0  dACCESS:          0  dHIT:          0  dMISS:          0  itACCESS:          0  itHIT:          0  itMISS:          0  dtACCESS:          0  dtHIT:          0  dtMISS:          0
cpu0_ITLB PREFETCH  REQUESTED:          0  ISSUED:          0  CROSSED:          0  USEFUL:     327167  USELESS:      68829
cpu0_ITLB AVERAGE iMISS LATENCY: 6.91697 cycles
cpu0_ITLB AVERAGE dMISS LATENCY: 0 cycles
cpu0_ITLB AVERAGE itMISS LATENCY: 0 cycles
cpu0_ITLB AVERAGE dtMISS LATENCY: 0 cycles
cpu0_ITLB PAGE CROSSINGS (TLB HIT):         0 
cpu0_ITLB PAGE CROSSINGS (TLB MISS):         0 
cpu0_ITLB AVERAGE MISS LATENCY: 6.91697 cycles
cpu0_DTLB TOTAL       ACCESS:   31284430  HIT:   25846953  MISS:    5437477  iACCESS:          0  iHIT:          0  iMISS:          0  dACCESS:   31284430  dHIT:   25846953  dMISS:    5437477  itACCESS:          0  itHIT:          0  itMISS:          0  dtACCESS:          0  dtHIT:          0  dtMISS:          0
cpu0_DTLB LOAD         ACCESS:   31284430  HIT:   25846953  MISS:    5437477  iACCESS:          0  iHIT:          0  iMISS:          0  dACCESS:   31284430  dHIT:   25846953  dMISS:    5437477  itACCESS:          0  itHIT:          0  itMISS:          0  dtACCESS:          0  dtHIT:          0  dtMISS:          0
cpu0_DTLB RFO          ACCESS:          0  HIT:          0  MISS:          0  iACCESS:          0  iHIT:          0  iMISS:          0  dACCESS:          0  dHIT:          0  dMISS:          0  itACCESS:          0  itHIT:          0  itMISS:          0  dtACCESS:          0  dtHIT:          0  dtMISS:          0
cpu0_DTLB PREFETCH     ACCESS:          0  HIT:          0  MISS:          0  iACCESS:          0  iHIT:          0  iMISS:          0  dACCESS:          0  dHIT:          0  dMISS:          0  itACCESS:          0  itHIT:          0  itMISS:          0  dtACCESS:          0  dtHIT:          0  dtMISS:          0
cpu0_DTLB WRITE        ACCESS:          0  HIT:          0  MISS:          0  iACCESS:          0  iHIT:          0  iMISS:          0  dACCESS:          0  dHIT:          0  dMISS:          0  itACCESS:          0  itHIT:          0  itMISS:          0  dtACCESS:          0  dtHIT:          0  dtMISS:          0
cpu0_DTLB TRANSLATION  ACCESS:          0  HIT:          0  MISS:          0  iACCESS:          0  iHIT:          0  iMISS:          0  dACCESS:          0  dHIT:          0  dMISS:          0  itACCESS:          0  itHIT:          0  itMISS:          0  dtACCESS:          0  dtHIT:          0  dtMISS:          0
cpu0_DTLB PREFETCH  REQUESTED:          0  ISSUED:          0  CROSSED:          0  USEFUL:          0  USELESS:          0
cpu0_DTLB AVERAGE iMISS LATENCY: 0 cycles
cpu0_DTLB AVERAGE dMISS LATENCY: 15.6816 cycles
cpu0_DTLB AVERAGE itMISS LATENCY: 0 cycles
cpu0_DTLB AVERAGE dtMISS LATENCY: 0 cycles
cpu0_DTLB PAGE CROSSINGS (TLB HIT):         0 
cpu0_DTLB PAGE CROSSINGS (TLB MISS):         0 
cpu0_DTLB AVERAGE MISS LATENCY: 15.6816 cycles
cpu0_STLB TOTAL       ACCESS:    3280950  HIT:    2988507  MISS:     292443  iACCESS:     395999  iHIT:     345303  iMISS:      50696  dACCESS:    2884951  dHIT:    2643204  dMISS:     241747  itACCESS:          0  itHIT:          0  itMISS:          0  dtACCESS:          0  dtHIT:          0  dtMISS:          0
cpu0_STLB LOAD         ACCESS:    3280950  HIT:    2988507  MISS:     292443  iACCESS:     395999  iHIT:     345303  iMISS:      50696  dACCESS:    2884951  dHIT:    2643204  dMISS:     241747  itACCESS:          0  itHIT:          0  itMISS:          0  dtACCESS:          0  dtHIT:          0  dtMISS:          0
cpu0_STLB RFO          ACCESS:          0  HIT:          0  MISS:          0  iACCESS:          0  iHIT:          0  iMISS:          0  dACCESS:          0  dHIT:          0  dMISS:          0  itACCESS:          0  itHIT:          0  itMISS:          0  dtACCESS:          0  dtHIT:          0  dtMISS:          0
cpu0_STLB PREFETCH     ACCESS:          0  HIT:          0  MISS:          0  iACCESS:          0  iHIT:          0  iMISS:          0  dACCESS:          0  dHIT:          0  dMISS:          0  itACCESS:          0  itHIT:          0  itMISS:          0  dtACCESS:          0  dtHIT:          0  dtMISS:          0
cpu0_STLB WRITE        ACCESS:          0  HIT:          0  MISS:          0  iACCESS:          0  iHIT:          0  iMISS:          0  dACCESS:          0  dHIT:          0  dMISS:          0  itACCESS:          0  itHIT:          0  itMISS:          0  dtACCESS:          0  dtHIT:          0  dtMISS:          0
cpu0_STLB TRANSLATION  ACCESS:          0  HIT:          0  MISS:          0  iACCESS:          0  iHIT:          0  iMISS:          0  dACCESS:          0  dHIT:          0  dMISS:          0  itACCESS:          0  itHIT:          0  itMISS:          0  dtACCESS:          0  dtHIT:          0  dtMISS:          0
cpu0_STLB PREFETCH  REQUESTED:          0  ISSUED:          0  CROSSED:          0  USEFUL:          0  USELESS:          0
cpu0_STLB AVERAGE iMISS LATENCY: 33.2881 cycles
cpu0_STLB AVERAGE dMISS LATENCY: 211.707 cycles
cpu0_STLB AVERAGE itMISS LATENCY: 0 cycles
cpu0_STLB AVERAGE dtMISS LATENCY: 0 cycles
cpu0_STLB PAGE CROSSINGS (TLB HIT):         0 
cpu0_STLB PAGE CROSSINGS (TLB MISS):         0 
cpu0_STLB AVERAGE MISS LATENCY: 244.995 cycles
cpu0_L1D TOTAL       ACCESS:   48957149  HIT:   40790119  MISS:    8167030  iACCESS:          0  iHIT:          0  iMISS:          0  dACCESS:   48465317  dHIT:   40769501  dMISS:    7695816  itACCESS:      63303  itHIT:       3973  itMISS:      59330  dtACCESS:     428529  dtHIT:      16645  dtMISS:     411884
cpu0_L1D LOAD         ACCESS:   23380023  HIT:   19290748  MISS:    4089275  iACCESS:          0  iHIT:          0  iMISS:          0  dACCESS:   23380023  dHIT:   19290748  dMISS:    4089275  itACCESS:          0  itHIT:          0  itMISS:          0  dtACCESS:          0  dtHIT:          0  dtMISS:          0
cpu0_L1D RFO          ACCESS:          0  HIT:          0  MISS:          0  iACCESS:          0  iHIT:          0  iMISS:          0  dACCESS:          0  dHIT:          0  dMISS:          0  itACCESS:          0  itHIT:          0  itMISS:          0  dtACCESS:          0  dtHIT:          0  dtMISS:          0
cpu0_L1D PREFETCH     ACCESS:   15249887  HIT:   12431822  MISS:    2818065  iACCESS:          0  iHIT:          0  iMISS:          0  dACCESS:   15249887  dHIT:   12431822  dMISS:    2818065  itACCESS:          0  itHIT:          0  itMISS:          0  dtACCESS:          0  dtHIT:          0  dtMISS:          0
cpu0_L1D WRITE        ACCESS:    9835407  HIT:    9046931  MISS:     788476  iACCESS:          0  iHIT:          0  iMISS:          0  dACCESS:    9835407  dHIT:    9046931  dMISS:     788476  itACCESS:          0  itHIT:          0  itMISS:          0  dtACCESS:          0  dtHIT:          0  dtMISS:          0
cpu0_L1D TRANSLATION  ACCESS:     491832  HIT:      20618  MISS:     471214  iACCESS:          0  iHIT:          0  iMISS:          0  dACCESS:          0  dHIT:          0  dMISS:          0  itACCESS:      63303  itHIT:       3973  itMISS:      59330  dtACCESS:     428529  dtHIT:      16645  dtMISS:     411884
cpu0_L1D PREFETCH  REQUESTED:   23380023  ISSUED:   19762810  CROSSED:          0  USEFUL:     341635  USELESS:    1127324
cpu0_L1D AVERAGE iMISS LATENCY: 0 cycles
cpu0_L1D AVERAGE dMISS LATENCY: 33.5067 cycles
cpu0_L1D AVERAGE itMISS LATENCY: 1.11885 cycles
cpu0_L1D AVERAGE dtMISS LATENCY: 7.06033 cycles
cpu0_L1D PAGE CROSSINGS (TLB HIT):         0 
cpu0_L1D PAGE CROSSINGS (TLB MISS):         0 
cpu0_L1D AVERAGE MISS LATENCY: 41.6859 cycles
cpu0_L2C TOTAL       ACCESS:    9251971  HIT:    5286331  MISS:    3965640  iACCESS:    3124224  iHIT:    1848993  iMISS:    1275231  dACCESS:    5731127  dHIT:    3378828  dMISS:    2352299  itACCESS:      55411  itHIT:       8355  itMISS:      47056  dtACCESS:     341209  dtHIT:      50155  dtMISS:     291054
cpu0_L2C LOAD         ACCESS:    3347429  HIT:    2275886  MISS:    1071543  iACCESS:     700542  iHIT:     429529  iMISS:     271013  dACCESS:    2646887  dHIT:    1846357  dMISS:     800530  itACCESS:          0  itHIT:          0  itMISS:          0  dtACCESS:          0  dtHIT:          0  dtMISS:          0
cpu0_L2C RFO          ACCESS:     236409  HIT:     102162  MISS:     134247  iACCESS:          0  iHIT:          0  iMISS:          0  dACCESS:     236409  dHIT:     102162  dMISS:     134247  itACCESS:          0  itHIT:          0  itMISS:          0  dtACCESS:          0  dtHIT:          0  dtMISS:          0
cpu0_L2C PREFETCH     ACCESS:    4935773  HIT:    2536630  MISS:    2399143  iACCESS:    2423682  iHIT:    1419464  iMISS:    1004218  dACCESS:    2512091  dHIT:    1117166  dMISS:    1394925  itACCESS:          0  itHIT:          0  itMISS:          0  dtACCESS:          0  dtHIT:          0  dtMISS:          0
cpu0_L2C WRITE        ACCESS:     335740  HIT:     313143  MISS:      22597  iACCESS:          0  iHIT:          0  iMISS:          0  dACCESS:     335740  dHIT:     313143  dMISS:      22597  itACCESS:          0  itHIT:          0  itMISS:          0  dtACCESS:          0  dtHIT:          0  dtMISS:          0
cpu0_L2C TRANSLATION  ACCESS:     396620  HIT:      58510  MISS:     338110  iACCESS:          0  iHIT:          0  iMISS:          0  dACCESS:          0  dHIT:          0  dMISS:          0  itACCESS:      55411  itHIT:       8355  itMISS:      47056  dtACCESS:     341209  dtHIT:      50155  dtMISS:     291054
cpu0_L2C PREFETCH  REQUESTED:    1229062  ISSUED:    1229041  CROSSED:          0  USEFUL:     275186  USELESS:     265068
cpu0_L2C AVERAGE iMISS LATENCY: 37.158 cycles
cpu0_L2C AVERAGE dMISS LATENCY: 76.1155 cycles
cpu0_L2C AVERAGE itMISS LATENCY: 2.16613 cycles
cpu0_L2C AVERAGE dtMISS LATENCY: 13.6876 cycles
cpu0_L2C PAGE CROSSINGS (TLB HIT):         0 
cpu0_L2C PAGE CROSSINGS (TLB MISS):         0 
cpu0_L2C AVERAGE MISS LATENCY: 129.128 cycles
LLC TOTAL       ACCESS:    3977777  HIT:    1466228  MISS:    2511549  iACCESS:    1208366  iHIT:     440901  iMISS:     767465  dACCESS:    2431301  dHIT:     981327  dMISS:    1449974  itACCESS:      47056  itHIT:       3916  itMISS:      43140  dtACCESS:     291054  dtHIT:      40084  dtMISS:     250970
LLC LOAD         ACCESS:    1065283  HIT:     468214  MISS:     597069  iACCESS:     270150  iHIT:     108422  iMISS:     161728  dACCESS:     795133  dHIT:     359792  dMISS:     435341  itACCESS:          0  itHIT:          0  itMISS:          0  dtACCESS:          0  dtHIT:          0  dtMISS:          0
LLC RFO          ACCESS:     134240  HIT:      41184  MISS:      93056  iACCESS:          0  iHIT:          0  iMISS:          0  dACCESS:     134240  dHIT:      41184  dMISS:      93056  itACCESS:          0  itHIT:          0  itMISS:          0  dtACCESS:          0  dtHIT:          0  dtMISS:          0
LLC PREFETCH     ACCESS:    2242099  HIT:     722032  MISS:    1520067  iACCESS:     938216  iHIT:     332479  iMISS:     605737  dACCESS:    1303883  dHIT:     389553  dMISS:     914330  itACCESS:          0  itHIT:          0  itMISS:          0  dtACCESS:          0  dtHIT:          0  dtMISS:          0
LLC WRITE        ACCESS:     198045  HIT:     190798  MISS:       7247  iACCESS:          0  iHIT:          0  iMISS:          0  dACCESS:     198045  dHIT:     190798  dMISS:       7247  itACCESS:          0  itHIT:          0  itMISS:          0  dtACCESS:          0  dtHIT:          0  dtMISS:          0
LLC TRANSLATION  ACCESS:     338110  HIT:      44000  MISS:     294110  iACCESS:          0  iHIT:          0  iMISS:          0  dACCESS:          0  dHIT:          0  dMISS:          0  itACCESS:      47056  itHIT:       3916  itMISS:      43140  dtACCESS:     291054  dtHIT:      40084  dtMISS:     250970
LLC PREFETCH  REQUESTED:          0  ISSUED:          0  CROSSED:          0  USEFUL:          0  USELESS:          0
LLC AVERAGE iMISS LATENCY: 49.2156 cycles
LLC AVERAGE dMISS LATENCY: 103.544 cycles
LLC AVERAGE itMISS LATENCY: 3.0487 cycles
LLC AVERAGE dtMISS LATENCY: 19.3234 cycles
LLC PAGE CROSSINGS (TLB HIT):         0 
LLC PAGE CROSSINGS (TLB MISS):         0 
LLC AVERAGE MISS LATENCY: 175.131 cycles

PageTableWalker TOTAL       ACCESS:     190383  
PageTableWalker AVERAGE LATENCY: 6.69861 cycles
PageTableWalker TOTAL LATENCY: 1275301 cycles

DRAM Statistics
Channel 0
 RQ ROW_BUFFER_HIT:     508840
  ROW_BUFFER_MISS:    1981843
 AVG DBUS CONGESTED CYCLE:    3.65505
 WQ ROW_BUFFER_HIT:      58178
  ROW_BUFFER_MISS:      55655  FULL:          0

