last_page:0x200000000000000
VMEM_RES_CAP:0x100000
PAGE_SIZE:4096
LOG2_PAGE_SIZE:12
LOG2_PAGE_TABLE_SIZE:9
page_table_levels:5
WARNING: physical memory size is smaller than virtual memory size
FDiP enabled with aggresivity 16

*** ChampSim Multicore Out-of-Order Simulator ***

Warmup Instructions: 50000000
Simulation Instructions: 100000000
Number of CPUs: 1
Small page size: 4096
Large page size: 2097152

CPU 0 Bimodal branch predictor
Basic BTB sets: 1024 ways: 8 indirect buffer size: 4096 RAS size: 64
Instruction page size distrubution: 0
Loading instruction page size distribution from /home/bsc/bsc018186/scratch/itp_asplos25_AE/dump/smt_srv540_ap_srv727_ap_1024i.pdst
Data page size distrubution: 0
Loading data page size distribution from /home/bsc/bsc018186/scratch/itp_asplos25_AE/dump/smt_srv540_ap_srv727_ap_1024i.pdst
cpu0_L2C IP-based stride prefetcher
cpu0_L1D next line prefetcher
cpu0_L1I next line prefetcher
Off-chip DRAM Size: 4 GiB Channels: 1 Width: 64-bit Data Rate: 3200 MT/s
Heartbeat CPU 0 instructions: 10000002 cycles: 2500528 heartbeat IPC: 3.99916 cumulative IPC: 3.99916 (Simulation time: 0 hr 0 min 40 sec) 
Heartbeat CPU 0 instructions: 20000002 cycles: 5000795 heartbeat IPC: 3.99958 cumulative IPC: 3.99937 (Simulation time: 0 hr 1 min 28 sec) 
Heartbeat CPU 0 instructions: 30000002 cycles: 7501169 heartbeat IPC: 3.99941 cumulative IPC: 3.99938 (Simulation time: 0 hr 2 min 15 sec) 
Heartbeat CPU 0 instructions: 40000003 cycles: 10001506 heartbeat IPC: 3.99947 cumulative IPC: 3.9994 (Simulation time: 0 hr 3 min 2 sec) 
Heartbeat CPU 0 instructions: 50000002 cycles: 12501733 heartbeat IPC: 3.99964 cumulative IPC: 3.99945 (Simulation time: 0 hr 3 min 52 sec) 
Warmup finished CPU 0 instructions: 50000002 cycles: 12501734 cumulative IPC: 3.99945 (Simulation time: 0 hr 3 min 52 sec) 

Warmup complete CPU 0 instructions: 50000002 cycles: 12501734 (Simulation time: 0 hr 3 min 52 sec) 

Heartbeat CPU 0 instructions: 60000004 cycles: 39485685 heartbeat IPC: 0.370591 cumulative IPC: 0.370591 (Simulation time: 0 hr 5 min 29 sec) 
Heartbeat CPU 0 instructions: 70000004 cycles: 66707286 heartbeat IPC: 0.367356 cumulative IPC: 0.368966 (Simulation time: 0 hr 7 min 5 sec) 
Heartbeat CPU 0 instructions: 80000002 cycles: 94621074 heartbeat IPC: 0.358246 cumulative IPC: 0.365322 (Simulation time: 0 hr 8 min 44 sec) 
Heartbeat CPU 0 instructions: 90000000 cycles: 121905966 heartbeat IPC: 0.366504 cumulative IPC: 0.365617 (Simulation time: 0 hr 10 min 20 sec) 
Heartbeat CPU 0 instructions: 100000001 cycles: 150807309 heartbeat IPC: 0.346005 cumulative IPC: 0.361519 (Simulation time: 0 hr 12 min 1 sec) 
Heartbeat CPU 0 instructions: 110000000 cycles: 178789833 heartbeat IPC: 0.357366 cumulative IPC: 0.36082 (Simulation time: 0 hr 13 min 39 sec) 
Heartbeat CPU 0 instructions: 120000001 cycles: 206861058 heartbeat IPC: 0.356237 cumulative IPC: 0.360158 (Simulation time: 0 hr 15 min 17 sec) 
Heartbeat CPU 0 instructions: 130000001 cycles: 234452878 heartbeat IPC: 0.362427 cumulative IPC: 0.36044 (Simulation time: 0 hr 16 min 46 sec) 
Heartbeat CPU 0 instructions: 140000002 cycles: 262355143 heartbeat IPC: 0.358394 cumulative IPC: 0.360212 (Simulation time: 0 hr 18 min 19 sec) 
Heartbeat CPU 0 instructions: 150000001 cycles: 289708570 heartbeat IPC: 0.365585 cumulative IPC: 0.360742 (Simulation time: 0 hr 19 min 57 sec) 
Simulation finished CPU 0 instructions: 100000004 cycles: 277206838 cumulative IPC: 0.360742 (Simulation time: 0 hr 19 min 57 sec) 

Simulation complete CPU 0 instructions: 100000004 cycles: 277206838 (Simulation time: 0 hr 19 min 57 sec) 


ChampSim completed all CPUs

Saving instructions large page distribution to /home/bsc/bsc018186/scratch/itp_asplos25_AE/dump/smt_srv540_ap_srv727_ap_1024i.pdst...
Saving data large page distribution to /home/bsc/bsc018186/scratch/itp_asplos25_AE/dump/smt_srv540_ap_srv727_ap_1024i.pdst...
=== Simulation ===
CPU 0 runs /gpfs/projects/bsc18/MN4/bsc18/romol/ChampSim/traces/qualcomm_srv/smt_srv540_ap_srv727_ap_1024i.champsimtrace.xz

Region of Interest Statistics

CPU 0 cumulative IPC: 0.360742 instructions: 100000004 cycles: 277206838
CPU 0 Branch Prediction Accuracy: 75.1897% MPKI: 44.6915 Average ROB Occupancy at Mispredict: 10.5913
Branch type MPKI
BRANCH_DIRECT_JUMP: 1.37466
BRANCH_INDIRECT: 23.1064
BRANCH_CONDITIONAL: 13.0098
BRANCH_DIRECT_CALL: 2.66243
BRANCH_INDIRECT_CALL: 1.00783
BRANCH_RETURN: 3.53038

Instructions large pages: 0
Instructions small pages: 9524
Large page distribution for instructions: 0%

Data large pages: 0
Data small pages: 8152
Large page distribution for data: 0%

cpu0_L1I TOTAL       ACCESS:   39419875  HIT:   30258160  MISS:    9161715  iACCESS:   39419875  iHIT:   30258160  iMISS:    9161715  dACCESS:          0  dHIT:          0  dMISS:          0  itACCESS:          0  itHIT:          0  itMISS:          0  dtACCESS:          0  dtHIT:          0  dtMISS:          0
cpu0_L1I LOAD         ACCESS:   11749064  HIT:    9267242  MISS:    2481822  iACCESS:   11749064  iHIT:    9267242  iMISS:    2481822  dACCESS:          0  dHIT:          0  dMISS:          0  itACCESS:          0  itHIT:          0  itMISS:          0  dtACCESS:          0  dtHIT:          0  dtMISS:          0
cpu0_L1I RFO          ACCESS:          0  HIT:          0  MISS:          0  iACCESS:          0  iHIT:          0  iMISS:          0  dACCESS:          0  dHIT:          0  dMISS:          0  itACCESS:          0  itHIT:          0  itMISS:          0  dtACCESS:          0  dtHIT:          0  dtMISS:          0
cpu0_L1I PREFETCH     ACCESS:   27670811  HIT:   20990918  MISS:    6679893  iACCESS:   27670811  iHIT:   20990918  iMISS:    6679893  dACCESS:          0  dHIT:          0  dMISS:          0  itACCESS:          0  itHIT:          0  itMISS:          0  dtACCESS:          0  dtHIT:          0  dtMISS:          0
cpu0_L1I WRITE        ACCESS:          0  HIT:          0  MISS:          0  iACCESS:          0  iHIT:          0  iMISS:          0  dACCESS:          0  dHIT:          0  dMISS:          0  itACCESS:          0  itHIT:          0  itMISS:          0  dtACCESS:          0  dtHIT:          0  dtMISS:          0
cpu0_L1I TRANSLATION  ACCESS:          0  HIT:          0  MISS:          0  iACCESS:          0  iHIT:          0  iMISS:          0  dACCESS:          0  dHIT:          0  dMISS:          0  itACCESS:          0  itHIT:          0  itMISS:          0  dtACCESS:          0  dtHIT:          0  dtMISS:          0
cpu0_L1I PREFETCH  REQUESTED:   30254971  ISSUED:   30253217  CROSSED:          0  USEFUL:    2205164  USELESS:     759814
cpu0_L1I AVERAGE iMISS LATENCY: 24.2858 cycles
cpu0_L1I AVERAGE dMISS LATENCY: 0 cycles
cpu0_L1I AVERAGE itMISS LATENCY: 0 cycles
cpu0_L1I AVERAGE dtMISS LATENCY: 0 cycles
cpu0_L1I PAGE CROSSINGS (TLB HIT):         0 
cpu0_L1I PAGE CROSSINGS (TLB MISS):         0 
cpu0_L1I AVERAGE MISS LATENCY: 24.2858 cycles
cpu0_ITLB TOTAL       ACCESS:   33172026  HIT:   30954241  MISS:    2217785  iACCESS:   33172026  iHIT:   30954241  iMISS:    2217785  dACCESS:          0  dHIT:          0  dMISS:          0  itACCESS:          0  itHIT:          0  itMISS:          0  dtACCESS:          0  dtHIT:          0  dtMISS:          0
cpu0_ITLB LOAD         ACCESS:   33172026  HIT:   30954241  MISS:    2217785  iACCESS:   33172026  iHIT:   30954241  iMISS:    2217785  dACCESS:          0  dHIT:          0  dMISS:          0  itACCESS:          0  itHIT:          0  itMISS:          0  dtACCESS:          0  dtHIT:          0  dtMISS:          0
cpu0_ITLB RFO          ACCESS:          0  HIT:          0  MISS:          0  iACCESS:          0  iHIT:          0  iMISS:          0  dACCESS:          0  dHIT:          0  dMISS:          0  itACCESS:          0  itHIT:          0  itMISS:          0  dtACCESS:          0  dtHIT:          0  dtMISS:          0
cpu0_ITLB PREFETCH     ACCESS:          0  HIT:          0  MISS:          0  iACCESS:          0  iHIT:          0  iMISS:          0  dACCESS:          0  dHIT:          0  dMISS:          0  itACCESS:          0  itHIT:          0  itMISS:          0  dtACCESS:          0  dtHIT:          0  dtMISS:          0
cpu0_ITLB WRITE        ACCESS:          0  HIT:          0  MISS:          0  iACCESS:          0  iHIT:          0  iMISS:          0  dACCESS:          0  dHIT:          0  dMISS:          0  itACCESS:          0  itHIT:          0  itMISS:          0  dtACCESS:          0  dtHIT:          0  dtMISS:          0
cpu0_ITLB TRANSLATION  ACCESS:          0  HIT:          0  MISS:          0  iACCESS:          0  iHIT:          0  iMISS:          0  dACCESS:          0  dHIT:          0  dMISS:          0  itACCESS:          0  itHIT:          0  itMISS:          0  dtACCESS:          0  dtHIT:          0  dtMISS:          0
cpu0_ITLB PREFETCH  REQUESTED:          0  ISSUED:          0  CROSSED:          0  USEFUL:     387726  USELESS:      78936
cpu0_ITLB AVERAGE iMISS LATENCY: 8.00383 cycles
cpu0_ITLB AVERAGE dMISS LATENCY: 0 cycles
cpu0_ITLB AVERAGE itMISS LATENCY: 0 cycles
cpu0_ITLB AVERAGE dtMISS LATENCY: 0 cycles
cpu0_ITLB PAGE CROSSINGS (TLB HIT):         0 
cpu0_ITLB PAGE CROSSINGS (TLB MISS):         0 
cpu0_ITLB AVERAGE MISS LATENCY: 8.00383 cycles
cpu0_DTLB TOTAL       ACCESS:   28874573  HIT:   25290999  MISS:    3583574  iACCESS:          0  iHIT:          0  iMISS:          0  dACCESS:   28874573  dHIT:   25290999  dMISS:    3583574  itACCESS:          0  itHIT:          0  itMISS:          0  dtACCESS:          0  dtHIT:          0  dtMISS:          0
cpu0_DTLB LOAD         ACCESS:   28874573  HIT:   25290999  MISS:    3583574  iACCESS:          0  iHIT:          0  iMISS:          0  dACCESS:   28874573  dHIT:   25290999  dMISS:    3583574  itACCESS:          0  itHIT:          0  itMISS:          0  dtACCESS:          0  dtHIT:          0  dtMISS:          0
cpu0_DTLB RFO          ACCESS:          0  HIT:          0  MISS:          0  iACCESS:          0  iHIT:          0  iMISS:          0  dACCESS:          0  dHIT:          0  dMISS:          0  itACCESS:          0  itHIT:          0  itMISS:          0  dtACCESS:          0  dtHIT:          0  dtMISS:          0
cpu0_DTLB PREFETCH     ACCESS:          0  HIT:          0  MISS:          0  iACCESS:          0  iHIT:          0  iMISS:          0  dACCESS:          0  dHIT:          0  dMISS:          0  itACCESS:          0  itHIT:          0  itMISS:          0  dtACCESS:          0  dtHIT:          0  dtMISS:          0
cpu0_DTLB WRITE        ACCESS:          0  HIT:          0  MISS:          0  iACCESS:          0  iHIT:          0  iMISS:          0  dACCESS:          0  dHIT:          0  dMISS:          0  itACCESS:          0  itHIT:          0  itMISS:          0  dtACCESS:          0  dtHIT:          0  dtMISS:          0
cpu0_DTLB TRANSLATION  ACCESS:          0  HIT:          0  MISS:          0  iACCESS:          0  iHIT:          0  iMISS:          0  dACCESS:          0  dHIT:          0  dMISS:          0  itACCESS:          0  itHIT:          0  itMISS:          0  dtACCESS:          0  dtHIT:          0  dtMISS:          0
cpu0_DTLB PREFETCH  REQUESTED:          0  ISSUED:          0  CROSSED:          0  USEFUL:          0  USELESS:          0
cpu0_DTLB AVERAGE iMISS LATENCY: 0 cycles
cpu0_DTLB AVERAGE dMISS LATENCY: 17.0536 cycles
cpu0_DTLB AVERAGE itMISS LATENCY: 0 cycles
cpu0_DTLB AVERAGE dtMISS LATENCY: 0 cycles
cpu0_DTLB PAGE CROSSINGS (TLB HIT):         0 
cpu0_DTLB PAGE CROSSINGS (TLB MISS):         0 
cpu0_DTLB AVERAGE MISS LATENCY: 17.0536 cycles
cpu0_STLB TOTAL       ACCESS:    2573193  HIT:    2191623  MISS:     381570  iACCESS:     466665  iHIT:     349375  iMISS:     117290  dACCESS:    2106528  dHIT:    1842248  dMISS:     264280  itACCESS:          0  itHIT:          0  itMISS:          0  dtACCESS:          0  dtHIT:          0  dtMISS:          0
cpu0_STLB LOAD         ACCESS:    2573193  HIT:    2191623  MISS:     381570  iACCESS:     466665  iHIT:     349375  iMISS:     117290  dACCESS:    2106528  dHIT:    1842248  dMISS:     264280  itACCESS:          0  itHIT:          0  itMISS:          0  dtACCESS:          0  dtHIT:          0  dtMISS:          0
cpu0_STLB RFO          ACCESS:          0  HIT:          0  MISS:          0  iACCESS:          0  iHIT:          0  iMISS:          0  dACCESS:          0  dHIT:          0  dMISS:          0  itACCESS:          0  itHIT:          0  itMISS:          0  dtACCESS:          0  dtHIT:          0  dtMISS:          0
cpu0_STLB PREFETCH     ACCESS:          0  HIT:          0  MISS:          0  iACCESS:          0  iHIT:          0  iMISS:          0  dACCESS:          0  dHIT:          0  dMISS:          0  itACCESS:          0  itHIT:          0  itMISS:          0  dtACCESS:          0  dtHIT:          0  dtMISS:          0
cpu0_STLB WRITE        ACCESS:          0  HIT:          0  MISS:          0  iACCESS:          0  iHIT:          0  iMISS:          0  dACCESS:          0  dHIT:          0  dMISS:          0  itACCESS:          0  itHIT:          0  itMISS:          0  dtACCESS:          0  dtHIT:          0  dtMISS:          0
cpu0_STLB TRANSLATION  ACCESS:          0  HIT:          0  MISS:          0  iACCESS:          0  iHIT:          0  iMISS:          0  dACCESS:          0  dHIT:          0  dMISS:          0  itACCESS:          0  itHIT:          0  itMISS:          0  dtACCESS:          0  dtHIT:          0  dtMISS:          0
cpu0_STLB PREFETCH  REQUESTED:          0  ISSUED:          0  CROSSED:          0  USEFUL:          0  USELESS:          0
cpu0_STLB AVERAGE iMISS LATENCY: 36.7381 cycles
cpu0_STLB AVERAGE dMISS LATENCY: 115.779 cycles
cpu0_STLB AVERAGE itMISS LATENCY: 0 cycles
cpu0_STLB AVERAGE dtMISS LATENCY: 0 cycles
cpu0_STLB PAGE CROSSINGS (TLB HIT):         0 
cpu0_STLB PAGE CROSSINGS (TLB MISS):         0 
cpu0_STLB AVERAGE MISS LATENCY: 152.518 cycles
cpu0_L1D TOTAL       ACCESS:   44876053  HIT:   39122646  MISS:    5753407  iACCESS:          0  iHIT:          0  iMISS:          0  dACCESS:   44325106  dHIT:   39088844  dMISS:    5236262  itACCESS:     131031  itHIT:      14407  itMISS:     116624  dtACCESS:     419916  dtHIT:      19395  dtMISS:     400521
cpu0_L1D LOAD         ACCESS:   20271904  HIT:   17927109  MISS:    2344795  iACCESS:          0  iHIT:          0  iMISS:          0  dACCESS:   20271904  dHIT:   17927109  dMISS:    2344795  itACCESS:          0  itHIT:          0  itMISS:          0  dtACCESS:          0  dtHIT:          0  dtMISS:          0
cpu0_L1D RFO          ACCESS:          0  HIT:          0  MISS:          0  iACCESS:          0  iHIT:          0  iMISS:          0  dACCESS:          0  dHIT:          0  dMISS:          0  itACCESS:          0  itHIT:          0  itMISS:          0  dtACCESS:          0  dtHIT:          0  dtMISS:          0
cpu0_L1D PREFETCH     ACCESS:   13906886  HIT:   11600495  MISS:    2306391  iACCESS:          0  iHIT:          0  iMISS:          0  dACCESS:   13906886  dHIT:   11600495  dMISS:    2306391  itACCESS:          0  itHIT:          0  itMISS:          0  dtACCESS:          0  dtHIT:          0  dtMISS:          0
cpu0_L1D WRITE        ACCESS:   10146316  HIT:    9561240  MISS:     585076  iACCESS:          0  iHIT:          0  iMISS:          0  dACCESS:   10146316  dHIT:    9561240  dMISS:     585076  itACCESS:          0  itHIT:          0  itMISS:          0  dtACCESS:          0  dtHIT:          0  dtMISS:          0
cpu0_L1D TRANSLATION  ACCESS:     550947  HIT:      33802  MISS:     517145  iACCESS:          0  iHIT:          0  iMISS:          0  dACCESS:          0  dHIT:          0  dMISS:          0  itACCESS:     131031  itHIT:      14407  itMISS:     116624  dtACCESS:     419916  dtHIT:      19395  dtMISS:     400521
cpu0_L1D PREFETCH  REQUESTED:   20271904  ISSUED:   18433291  CROSSED:          0  USEFUL:     361449  USELESS:     925689
cpu0_L1D AVERAGE iMISS LATENCY: 0 cycles
cpu0_L1D AVERAGE dMISS LATENCY: 50.8032 cycles
cpu0_L1D AVERAGE itMISS LATENCY: 2.24828 cycles
cpu0_L1D AVERAGE dtMISS LATENCY: 6.92641 cycles
cpu0_L1D PAGE CROSSINGS (TLB HIT):         0 
cpu0_L1D PAGE CROSSINGS (TLB MISS):         0 
cpu0_L1D AVERAGE MISS LATENCY: 59.9779 cycles
cpu0_L2C TOTAL       ACCESS:    8608409  HIT:    1535408  MISS:    7073001  iACCESS:    3764807  iHIT:     797352  iMISS:    2967455  dACCESS:    4352502  dHIT:     540550  dMISS:    3811952  itACCESS:     116131  itHIT:      39817  itMISS:      76314  dtACCESS:     374969  dtHIT:     157689  dtMISS:     217280
cpu0_L2C LOAD         ACCESS:    2034063  HIT:     202634  MISS:    1831429  iACCESS:     836922  iHIT:     111009  iMISS:     725913  dACCESS:    1197141  dHIT:      91625  dMISS:    1105516  itACCESS:          0  itHIT:          0  itMISS:          0  dtACCESS:          0  dtHIT:          0  dtMISS:          0
cpu0_L2C RFO          ACCESS:     219550  HIT:      31011  MISS:     188539  iACCESS:          0  iHIT:          0  iMISS:          0  dACCESS:     219550  dHIT:      31011  dMISS:     188539  itACCESS:          0  itHIT:          0  itMISS:          0  dtACCESS:          0  dtHIT:          0  dtMISS:          0
cpu0_L2C PREFETCH     ACCESS:    5517391  HIT:    1002932  MISS:    4514459  iACCESS:    2927885  iHIT:     686343  iMISS:    2241542  dACCESS:    2589506  dHIT:     316589  dMISS:    2272917  itACCESS:          0  itHIT:          0  itMISS:          0  dtACCESS:          0  dtHIT:          0  dtMISS:          0
cpu0_L2C WRITE        ACCESS:     346305  HIT:     101325  MISS:     244980  iACCESS:          0  iHIT:          0  iMISS:          0  dACCESS:     346305  dHIT:     101325  dMISS:     244980  itACCESS:          0  itHIT:          0  itMISS:          0  dtACCESS:          0  dtHIT:          0  dtMISS:          0
cpu0_L2C TRANSLATION  ACCESS:     491100  HIT:     197506  MISS:     293594  iACCESS:          0  iHIT:          0  iMISS:          0  dACCESS:          0  dHIT:          0  dMISS:          0  itACCESS:     116131  itHIT:      39817  itMISS:      76314  dtACCESS:     374969  dtHIT:     157689  dtMISS:     217280
cpu0_L2C PREFETCH  REQUESTED:    1544661  ISSUED:    1544659  CROSSED:          0  USEFUL:     416801  USELESS:     493758
cpu0_L2C AVERAGE iMISS LATENCY: 26.9032 cycles
cpu0_L2C AVERAGE dMISS LATENCY: 50.9981 cycles
cpu0_L2C AVERAGE itMISS LATENCY: 1.66984 cycles
cpu0_L2C AVERAGE dtMISS LATENCY: 5.12409 cycles
cpu0_L2C PAGE CROSSINGS (TLB HIT):         0 
cpu0_L2C PAGE CROSSINGS (TLB MISS):         0 
cpu0_L2C AVERAGE MISS LATENCY: 84.6951 cycles
LLC TOTAL       ACCESS:    6877208  HIT:    4130145  MISS:    2747063  iACCESS:    2874553  iHIT:    2018822  iMISS:     855731  dACCESS:    3709061  dHIT:    2042206  dMISS:    1666855  itACCESS:      76314  itHIT:      18670  itMISS:      57644  dtACCESS:     217280  dtHIT:      50447  dtMISS:     166833
LLC LOAD         ACCESS:    1823734  HIT:    1158939  MISS:     664795  iACCESS:     724477  iHIT:     541904  iMISS:     182573  dACCESS:    1099257  dHIT:     617035  dMISS:     482222  itACCESS:          0  itHIT:          0  itMISS:          0  dtACCESS:          0  dtHIT:          0  dtMISS:          0
LLC RFO          ACCESS:     188514  HIT:      93506  MISS:      95008  iACCESS:          0  iHIT:          0  iMISS:          0  dACCESS:     188514  dHIT:      93506  dMISS:      95008  itACCESS:          0  itHIT:          0  itMISS:          0  dtACCESS:          0  dtHIT:          0  dtMISS:          0
LLC PREFETCH     ACCESS:    4296547  HIT:    2540121  MISS:    1756426  iACCESS:    2150076  iHIT:    1476918  iMISS:     673158  dACCESS:    2146471  dHIT:    1063203  dMISS:    1083268  itACCESS:          0  itHIT:          0  itMISS:          0  dtACCESS:          0  dtHIT:          0  dtMISS:          0
LLC WRITE        ACCESS:     274819  HIT:     268462  MISS:       6357  iACCESS:          0  iHIT:          0  iMISS:          0  dACCESS:     274819  dHIT:     268462  dMISS:       6357  itACCESS:          0  itHIT:          0  itMISS:          0  dtACCESS:          0  dtHIT:          0  dtMISS:          0
LLC TRANSLATION  ACCESS:     293594  HIT:      69117  MISS:     224477  iACCESS:          0  iHIT:          0  iMISS:          0  dACCESS:          0  dHIT:          0  dMISS:          0  itACCESS:      76314  itHIT:      18670  itMISS:      57644  dtACCESS:     217280  dtHIT:      50447  dtMISS:     166833
LLC PREFETCH  REQUESTED:          0  ISSUED:          0  CROSSED:          0  USEFUL:          0  USELESS:          0
LLC AVERAGE iMISS LATENCY: 48.9441 cycles
LLC AVERAGE dMISS LATENCY: 108.037 cycles
LLC AVERAGE itMISS LATENCY: 3.75235 cycles
LLC AVERAGE dtMISS LATENCY: 11.6358 cycles
LLC PAGE CROSSINGS (TLB HIT):         0 
LLC PAGE CROSSINGS (TLB MISS):         0 
LLC AVERAGE MISS LATENCY: 172.37 cycles

PageTableWalker TOTAL       ACCESS:     195710  
PageTableWalker AVERAGE LATENCY: 5.80961 cycles
PageTableWalker TOTAL LATENCY: 1136997 cycles

DRAM Statistics
Channel 0
 RQ ROW_BUFFER_HIT:     604804
  ROW_BUFFER_MISS:    2115729
 AVG DBUS CONGESTED CYCLE:    3.65745
 WQ ROW_BUFFER_HIT:      67645
  ROW_BUFFER_MISS:      65161  FULL:          0

