last_page:0x200000000000000
VMEM_RES_CAP:0x100000
PAGE_SIZE:4096
LOG2_PAGE_SIZE:12
LOG2_PAGE_TABLE_SIZE:9
page_table_levels:5
WARNING: physical memory size is smaller than virtual memory size
FDiP enabled with aggresivity 16

*** ChampSim Multicore Out-of-Order Simulator ***

Warmup Instructions: 50000000
Simulation Instructions: 100000000
Number of CPUs: 1
Small page size: 4096
Large page size: 2097152

CPU 0 Bimodal branch predictor
Basic BTB sets: 1024 ways: 8 indirect buffer size: 4096 RAS size: 64
Instruction page size distrubution: 0
Loading instruction page size distribution from /home/bsc/bsc018186/scratch/itp_asplos25_AE/dump/smt_srv12_ap_srv259_ap_1024i.pdst
Data page size distrubution: 0
Loading data page size distribution from /home/bsc/bsc018186/scratch/itp_asplos25_AE/dump/smt_srv12_ap_srv259_ap_1024i.pdst
cpu0_L2C IP-based stride prefetcher
cpu0_L1D next line prefetcher
CHiRPing...
cpu0_L1I next line prefetcher
Off-chip DRAM Size: 4 GiB Channels: 1 Width: 64-bit Data Rate: 3200 MT/s
Heartbeat CPU 0 instructions: 10000001 cycles: 2500571 heartbeat IPC: 3.99909 cumulative IPC: 3.99909 (Simulation time: 0 hr 0 min 40 sec) 
Heartbeat CPU 0 instructions: 20000003 cycles: 5000895 heartbeat IPC: 3.99949 cumulative IPC: 3.99929 (Simulation time: 0 hr 1 min 21 sec) 
Heartbeat CPU 0 instructions: 30000001 cycles: 7501721 heartbeat IPC: 3.99868 cumulative IPC: 3.99909 (Simulation time: 0 hr 2 min 4 sec) 
Heartbeat CPU 0 instructions: 40000000 cycles: 10002235 heartbeat IPC: 3.99918 cumulative IPC: 3.99911 (Simulation time: 0 hr 2 min 47 sec) 
Heartbeat CPU 0 instructions: 50000000 cycles: 12502640 heartbeat IPC: 3.99936 cumulative IPC: 3.99916 (Simulation time: 0 hr 3 min 30 sec) 
Warmup finished CPU 0 instructions: 50000000 cycles: 12502641 cumulative IPC: 3.99916 (Simulation time: 0 hr 3 min 30 sec) 

Warmup complete CPU 0 instructions: 50000000 cycles: 12502641 (Simulation time: 0 hr 3 min 30 sec) 

Heartbeat CPU 0 instructions: 60000000 cycles: 39915618 heartbeat IPC: 0.364791 cumulative IPC: 0.364791 (Simulation time: 0 hr 4 min 54 sec) 
Heartbeat CPU 0 instructions: 70000002 cycles: 68002161 heartbeat IPC: 0.356043 cumulative IPC: 0.360364 (Simulation time: 0 hr 6 min 19 sec) 
Heartbeat CPU 0 instructions: 80000001 cycles: 95514406 heartbeat IPC: 0.363475 cumulative IPC: 0.361395 (Simulation time: 0 hr 7 min 44 sec) 
Heartbeat CPU 0 instructions: 90000001 cycles: 120386635 heartbeat IPC: 0.402055 cumulative IPC: 0.370769 (Simulation time: 0 hr 9 min 3 sec) 
Heartbeat CPU 0 instructions: 100000000 cycles: 148402193 heartbeat IPC: 0.356945 cumulative IPC: 0.367919 (Simulation time: 0 hr 10 min 29 sec) 
Heartbeat CPU 0 instructions: 110000000 cycles: 175589798 heartbeat IPC: 0.367815 cumulative IPC: 0.367902 (Simulation time: 0 hr 11 min 53 sec) 
Heartbeat CPU 0 instructions: 120000001 cycles: 202181155 heartbeat IPC: 0.376063 cumulative IPC: 0.369046 (Simulation time: 0 hr 13 min 16 sec) 
Heartbeat CPU 0 instructions: 130000002 cycles: 229127511 heartbeat IPC: 0.371108 cumulative IPC: 0.369303 (Simulation time: 0 hr 14 min 40 sec) 
Heartbeat CPU 0 instructions: 140000000 cycles: 256218642 heartbeat IPC: 0.369125 cumulative IPC: 0.369283 (Simulation time: 0 hr 16 min 4 sec) 
Heartbeat CPU 0 instructions: 150000002 cycles: 283378041 heartbeat IPC: 0.368197 cumulative IPC: 0.369174 (Simulation time: 0 hr 17 min 28 sec) 
Simulation finished CPU 0 instructions: 100000002 cycles: 270875401 cumulative IPC: 0.369174 (Simulation time: 0 hr 17 min 28 sec) 

Simulation complete CPU 0 instructions: 100000002 cycles: 270875401 (Simulation time: 0 hr 17 min 28 sec) 


ChampSim completed all CPUs

Saving instructions large page distribution to /home/bsc/bsc018186/scratch/itp_asplos25_AE/dump/smt_srv12_ap_srv259_ap_1024i.pdst...
Saving data large page distribution to /home/bsc/bsc018186/scratch/itp_asplos25_AE/dump/smt_srv12_ap_srv259_ap_1024i.pdst...
=== Simulation ===
CPU 0 runs /gpfs/projects/bsc18/MN4/bsc18/romol/ChampSim/traces/qualcomm_srv/smt_srv12_ap_srv259_ap_1024i.champsimtrace.xz

Region of Interest Statistics

CPU 0 cumulative IPC: 0.369174 instructions: 100000002 cycles: 270875401
CPU 0 Branch Prediction Accuracy: 75.8292% MPKI: 43.7685 Average ROB Occupancy at Mispredict: 10.767
Branch type MPKI
BRANCH_DIRECT_JUMP: 1.39258
BRANCH_INDIRECT: 22.9539
BRANCH_CONDITIONAL: 12.2272
BRANCH_DIRECT_CALL: 2.61101
BRANCH_INDIRECT_CALL: 1.11504
BRANCH_RETURN: 3.46884

Instructions large pages: 0
Instructions small pages: 11133
Large page distribution for instructions: 0%

Data large pages: 0
Data small pages: 9495
Large page distribution for data: 0%

cpu0_L1I TOTAL       ACCESS:   39241298  HIT:   30057294  MISS:    9184004  iACCESS:   39241298  iHIT:   30057294  iMISS:    9184004  dACCESS:          0  dHIT:          0  dMISS:          0  itACCESS:          0  itHIT:          0  itMISS:          0  dtACCESS:          0  dtHIT:          0  dtMISS:          0
cpu0_L1I LOAD         ACCESS:   11698606  HIT:    9190169  MISS:    2508437  iACCESS:   11698606  iHIT:    9190169  iMISS:    2508437  dACCESS:          0  dHIT:          0  dMISS:          0  itACCESS:          0  itHIT:          0  itMISS:          0  dtACCESS:          0  dtHIT:          0  dtMISS:          0
cpu0_L1I RFO          ACCESS:          0  HIT:          0  MISS:          0  iACCESS:          0  iHIT:          0  iMISS:          0  dACCESS:          0  dHIT:          0  dMISS:          0  itACCESS:          0  itHIT:          0  itMISS:          0  dtACCESS:          0  dtHIT:          0  dtMISS:          0
cpu0_L1I PREFETCH     ACCESS:   27542692  HIT:   20867125  MISS:    6675567  iACCESS:   27542692  iHIT:   20867125  iMISS:    6675567  dACCESS:          0  dHIT:          0  dMISS:          0  itACCESS:          0  itHIT:          0  itMISS:          0  dtACCESS:          0  dtHIT:          0  dtMISS:          0
cpu0_L1I WRITE        ACCESS:          0  HIT:          0  MISS:          0  iACCESS:          0  iHIT:          0  iMISS:          0  dACCESS:          0  dHIT:          0  dMISS:          0  itACCESS:          0  itHIT:          0  itMISS:          0  dtACCESS:          0  dtHIT:          0  dtMISS:          0
cpu0_L1I TRANSLATION  ACCESS:          0  HIT:          0  MISS:          0  iACCESS:          0  iHIT:          0  iMISS:          0  dACCESS:          0  dHIT:          0  dMISS:          0  itACCESS:          0  itHIT:          0  itMISS:          0  dtACCESS:          0  dtHIT:          0  dtMISS:          0
cpu0_L1I PREFETCH  REQUESTED:   30173928  ISSUED:   30172632  CROSSED:          0  USEFUL:    2206265  USELESS:     764797
cpu0_L1I AVERAGE iMISS LATENCY: 22.7105 cycles
cpu0_L1I AVERAGE dMISS LATENCY: 0 cycles
cpu0_L1I AVERAGE itMISS LATENCY: 0 cycles
cpu0_L1I AVERAGE dtMISS LATENCY: 0 cycles
cpu0_L1I PAGE CROSSINGS (TLB HIT):         0 
cpu0_L1I PAGE CROSSINGS (TLB MISS):         0 
cpu0_L1I AVERAGE MISS LATENCY: 22.7105 cycles
cpu0_ITLB TOTAL       ACCESS:   33002107  HIT:   30757720  MISS:    2244387  iACCESS:   33002107  iHIT:   30757720  iMISS:    2244387  dACCESS:          0  dHIT:          0  dMISS:          0  itACCESS:          0  itHIT:          0  itMISS:          0  dtACCESS:          0  dtHIT:          0  dtMISS:          0
cpu0_ITLB LOAD         ACCESS:   33002107  HIT:   30757720  MISS:    2244387  iACCESS:   33002107  iHIT:   30757720  iMISS:    2244387  dACCESS:          0  dHIT:          0  dMISS:          0  itACCESS:          0  itHIT:          0  itMISS:          0  dtACCESS:          0  dtHIT:          0  dtMISS:          0
cpu0_ITLB RFO          ACCESS:          0  HIT:          0  MISS:          0  iACCESS:          0  iHIT:          0  iMISS:          0  dACCESS:          0  dHIT:          0  dMISS:          0  itACCESS:          0  itHIT:          0  itMISS:          0  dtACCESS:          0  dtHIT:          0  dtMISS:          0
cpu0_ITLB PREFETCH     ACCESS:          0  HIT:          0  MISS:          0  iACCESS:          0  iHIT:          0  iMISS:          0  dACCESS:          0  dHIT:          0  dMISS:          0  itACCESS:          0  itHIT:          0  itMISS:          0  dtACCESS:          0  dtHIT:          0  dtMISS:          0
cpu0_ITLB WRITE        ACCESS:          0  HIT:          0  MISS:          0  iACCESS:          0  iHIT:          0  iMISS:          0  dACCESS:          0  dHIT:          0  dMISS:          0  itACCESS:          0  itHIT:          0  itMISS:          0  dtACCESS:          0  dtHIT:          0  dtMISS:          0
cpu0_ITLB TRANSLATION  ACCESS:          0  HIT:          0  MISS:          0  iACCESS:          0  iHIT:          0  iMISS:          0  dACCESS:          0  dHIT:          0  dMISS:          0  itACCESS:          0  itHIT:          0  itMISS:          0  dtACCESS:          0  dtHIT:          0  dtMISS:          0
cpu0_ITLB PREFETCH  REQUESTED:          0  ISSUED:          0  CROSSED:          0  USEFUL:     389246  USELESS:      81821
cpu0_ITLB AVERAGE iMISS LATENCY: 7.75518 cycles
cpu0_ITLB AVERAGE dMISS LATENCY: 0 cycles
cpu0_ITLB AVERAGE itMISS LATENCY: 0 cycles
cpu0_ITLB AVERAGE dtMISS LATENCY: 0 cycles
cpu0_ITLB PAGE CROSSINGS (TLB HIT):         0 
cpu0_ITLB PAGE CROSSINGS (TLB MISS):         0 
cpu0_ITLB AVERAGE MISS LATENCY: 7.75518 cycles
cpu0_DTLB TOTAL       ACCESS:   28939003  HIT:   25401267  MISS:    3537736  iACCESS:          0  iHIT:          0  iMISS:          0  dACCESS:   28939003  dHIT:   25401267  dMISS:    3537736  itACCESS:          0  itHIT:          0  itMISS:          0  dtACCESS:          0  dtHIT:          0  dtMISS:          0
cpu0_DTLB LOAD         ACCESS:   28939003  HIT:   25401267  MISS:    3537736  iACCESS:          0  iHIT:          0  iMISS:          0  dACCESS:   28939003  dHIT:   25401267  dMISS:    3537736  itACCESS:          0  itHIT:          0  itMISS:          0  dtACCESS:          0  dtHIT:          0  dtMISS:          0
cpu0_DTLB RFO          ACCESS:          0  HIT:          0  MISS:          0  iACCESS:          0  iHIT:          0  iMISS:          0  dACCESS:          0  dHIT:          0  dMISS:          0  itACCESS:          0  itHIT:          0  itMISS:          0  dtACCESS:          0  dtHIT:          0  dtMISS:          0
cpu0_DTLB PREFETCH     ACCESS:          0  HIT:          0  MISS:          0  iACCESS:          0  iHIT:          0  iMISS:          0  dACCESS:          0  dHIT:          0  dMISS:          0  itACCESS:          0  itHIT:          0  itMISS:          0  dtACCESS:          0  dtHIT:          0  dtMISS:          0
cpu0_DTLB WRITE        ACCESS:          0  HIT:          0  MISS:          0  iACCESS:          0  iHIT:          0  iMISS:          0  dACCESS:          0  dHIT:          0  dMISS:          0  itACCESS:          0  itHIT:          0  itMISS:          0  dtACCESS:          0  dtHIT:          0  dtMISS:          0
cpu0_DTLB TRANSLATION  ACCESS:          0  HIT:          0  MISS:          0  iACCESS:          0  iHIT:          0  iMISS:          0  dACCESS:          0  dHIT:          0  dMISS:          0  itACCESS:          0  itHIT:          0  itMISS:          0  dtACCESS:          0  dtHIT:          0  dtMISS:          0
cpu0_DTLB PREFETCH  REQUESTED:          0  ISSUED:          0  CROSSED:          0  USEFUL:          0  USELESS:          0
cpu0_DTLB AVERAGE iMISS LATENCY: 0 cycles
cpu0_DTLB AVERAGE dMISS LATENCY: 17.6027 cycles
cpu0_DTLB AVERAGE itMISS LATENCY: 0 cycles
cpu0_DTLB AVERAGE dtMISS LATENCY: 0 cycles
cpu0_DTLB PAGE CROSSINGS (TLB HIT):         0 
cpu0_DTLB PAGE CROSSINGS (TLB MISS):         0 
cpu0_DTLB AVERAGE MISS LATENCY: 17.6027 cycles
cpu0_STLB TOTAL       ACCESS:    2544956  HIT:    2171220  MISS:     373736  iACCESS:     471075  iHIT:     358482  iMISS:     112593  dACCESS:    2073881  dHIT:    1812738  dMISS:     261143  itACCESS:          0  itHIT:          0  itMISS:          0  dtACCESS:          0  dtHIT:          0  dtMISS:          0
cpu0_STLB LOAD         ACCESS:    2544956  HIT:    2171220  MISS:     373736  iACCESS:     471075  iHIT:     358482  iMISS:     112593  dACCESS:    2073881  dHIT:    1812738  dMISS:     261143  itACCESS:          0  itHIT:          0  itMISS:          0  dtACCESS:          0  dtHIT:          0  dtMISS:          0
cpu0_STLB RFO          ACCESS:          0  HIT:          0  MISS:          0  iACCESS:          0  iHIT:          0  iMISS:          0  dACCESS:          0  dHIT:          0  dMISS:          0  itACCESS:          0  itHIT:          0  itMISS:          0  dtACCESS:          0  dtHIT:          0  dtMISS:          0
cpu0_STLB PREFETCH     ACCESS:          0  HIT:          0  MISS:          0  iACCESS:          0  iHIT:          0  iMISS:          0  dACCESS:          0  dHIT:          0  dMISS:          0  itACCESS:          0  itHIT:          0  itMISS:          0  dtACCESS:          0  dtHIT:          0  dtMISS:          0
cpu0_STLB WRITE        ACCESS:          0  HIT:          0  MISS:          0  iACCESS:          0  iHIT:          0  iMISS:          0  dACCESS:          0  dHIT:          0  dMISS:          0  itACCESS:          0  itHIT:          0  itMISS:          0  dtACCESS:          0  dtHIT:          0  dtMISS:          0
cpu0_STLB TRANSLATION  ACCESS:          0  HIT:          0  MISS:          0  iACCESS:          0  iHIT:          0  iMISS:          0  dACCESS:          0  dHIT:          0  dMISS:          0  itACCESS:          0  itHIT:          0  itMISS:          0  dtACCESS:          0  dtHIT:          0  dtMISS:          0
cpu0_STLB PREFETCH  REQUESTED:          0  ISSUED:          0  CROSSED:          0  USEFUL:          0  USELESS:          0
cpu0_STLB AVERAGE iMISS LATENCY: 36.5074 cycles
cpu0_STLB AVERAGE dMISS LATENCY: 122.019 cycles
cpu0_STLB AVERAGE itMISS LATENCY: 0 cycles
cpu0_STLB AVERAGE dtMISS LATENCY: 0 cycles
cpu0_STLB PAGE CROSSINGS (TLB HIT):         0 
cpu0_STLB PAGE CROSSINGS (TLB MISS):         0 
cpu0_STLB AVERAGE MISS LATENCY: 158.526 cycles
cpu0_L1D TOTAL       ACCESS:   45038849  HIT:   39218073  MISS:    5820776  iACCESS:          0  iHIT:          0  iMISS:          0  dACCESS:   44482071  dHIT:   39186468  dMISS:    5295603  itACCESS:     127638  itHIT:      13289  itMISS:     114349  dtACCESS:     429140  dtHIT:      18316  dtMISS:     410824
cpu0_L1D LOAD         ACCESS:   20365078  HIT:   17995376  MISS:    2369702  iACCESS:          0  iHIT:          0  iMISS:          0  dACCESS:   20365078  dHIT:   17995376  dMISS:    2369702  itACCESS:          0  itHIT:          0  itMISS:          0  dtACCESS:          0  dtHIT:          0  dtMISS:          0
cpu0_L1D RFO          ACCESS:          0  HIT:          0  MISS:          0  iACCESS:          0  iHIT:          0  iMISS:          0  dACCESS:          0  dHIT:          0  dMISS:          0  itACCESS:          0  itHIT:          0  itMISS:          0  dtACCESS:          0  dtHIT:          0  dtMISS:          0
cpu0_L1D PREFETCH     ACCESS:   13973193  HIT:   11625851  MISS:    2347342  iACCESS:          0  iHIT:          0  iMISS:          0  dACCESS:   13973193  dHIT:   11625851  dMISS:    2347342  itACCESS:          0  itHIT:          0  itMISS:          0  dtACCESS:          0  dtHIT:          0  dtMISS:          0
cpu0_L1D WRITE        ACCESS:   10143800  HIT:    9565241  MISS:     578559  iACCESS:          0  iHIT:          0  iMISS:          0  dACCESS:   10143800  dHIT:    9565241  dMISS:     578559  itACCESS:          0  itHIT:          0  itMISS:          0  dtACCESS:          0  dtHIT:          0  dtMISS:          0
cpu0_L1D TRANSLATION  ACCESS:     556778  HIT:      31605  MISS:     525173  iACCESS:          0  iHIT:          0  iMISS:          0  dACCESS:          0  dHIT:          0  dMISS:          0  itACCESS:     127638  itHIT:      13289  itMISS:     114349  dtACCESS:     429140  dtHIT:      18316  dtMISS:     410824
cpu0_L1D PREFETCH  REQUESTED:   20365078  ISSUED:   18527093  CROSSED:          0  USEFUL:     358371  USELESS:     925268
cpu0_L1D AVERAGE iMISS LATENCY: 0 cycles
cpu0_L1D AVERAGE dMISS LATENCY: 50.3078 cycles
cpu0_L1D AVERAGE itMISS LATENCY: 2.1456 cycles
cpu0_L1D AVERAGE dtMISS LATENCY: 7.03088 cycles
cpu0_L1D PAGE CROSSINGS (TLB HIT):         0 
cpu0_L1D PAGE CROSSINGS (TLB MISS):         0 
cpu0_L1D AVERAGE MISS LATENCY: 59.4843 cycles
cpu0_L2C TOTAL       ACCESS:    8585131  HIT:    1546606  MISS:    7038525  iACCESS:    3778723  iHIT:     823405  iMISS:    2955318  dACCESS:    4318982  dHIT:     528961  dMISS:    3790021  itACCESS:     113383  itHIT:      42190  itMISS:      71193  dtACCESS:     374043  dtHIT:     152050  dtMISS:     221993
cpu0_L2C LOAD         ACCESS:    2047374  HIT:     209928  MISS:    1837446  iACCESS:     844312  iHIT:     121036  iMISS:     723276  dACCESS:    1203062  dHIT:      88892  dMISS:    1114170  itACCESS:          0  itHIT:          0  itMISS:          0  dtACCESS:          0  dtHIT:          0  dtMISS:          0
cpu0_L2C RFO          ACCESS:     214030  HIT:      26624  MISS:     187406  iACCESS:          0  iHIT:          0  iMISS:          0  dACCESS:     214030  dHIT:      26624  dMISS:     187406  itACCESS:          0  itHIT:          0  itMISS:          0  dtACCESS:          0  dtHIT:          0  dtMISS:          0
cpu0_L2C PREFETCH     ACCESS:    5500581  HIT:    1019406  MISS:    4481175  iACCESS:    2934411  iHIT:     702369  iMISS:    2232042  dACCESS:    2566170  dHIT:     317037  dMISS:    2249133  itACCESS:          0  itHIT:          0  itMISS:          0  dtACCESS:          0  dtHIT:          0  dtMISS:          0
cpu0_L2C WRITE        ACCESS:     335720  HIT:      96408  MISS:     239312  iACCESS:          0  iHIT:          0  iMISS:          0  dACCESS:     335720  dHIT:      96408  dMISS:     239312  itACCESS:          0  itHIT:          0  itMISS:          0  dtACCESS:          0  dtHIT:          0  dtMISS:          0
cpu0_L2C TRANSLATION  ACCESS:     487426  HIT:     194240  MISS:     293186  iACCESS:          0  iHIT:          0  iMISS:          0  dACCESS:          0  dHIT:          0  dMISS:          0  itACCESS:     113383  itHIT:      42190  itMISS:      71193  dtACCESS:     374043  dtHIT:     152050  dtMISS:     221993
cpu0_L2C PREFETCH  REQUESTED:    1540345  ISSUED:    1540342  CROSSED:          0  USEFUL:     420501  USELESS:     480942
cpu0_L2C AVERAGE iMISS LATENCY: 24.898 cycles
cpu0_L2C AVERAGE dMISS LATENCY: 50.0103 cycles
cpu0_L2C AVERAGE itMISS LATENCY: 1.61885 cycles
cpu0_L2C AVERAGE dtMISS LATENCY: 5.30224 cycles
cpu0_L2C PAGE CROSSINGS (TLB HIT):         0 
cpu0_L2C PAGE CROSSINGS (TLB MISS):         0 
cpu0_L2C AVERAGE MISS LATENCY: 81.8293 cycles
LLC TOTAL       ACCESS:    6866351  HIT:    4260916  MISS:    2605435  iACCESS:    2871023  iHIT:    2102025  iMISS:     768998  dACCESS:    3702142  dHIT:    2092884  dMISS:    1609258  itACCESS:      71193  itHIT:      14970  itMISS:      56223  dtACCESS:     221993  dtHIT:      51037  dtMISS:     170956
LLC LOAD         ACCESS:    1829758  HIT:    1183964  MISS:     645794  iACCESS:     721896  iHIT:     560964  iMISS:     160932  dACCESS:    1107862  dHIT:     623000  dMISS:     484862  itACCESS:          0  itHIT:          0  itMISS:          0  dtACCESS:          0  dtHIT:          0  dtMISS:          0
LLC RFO          ACCESS:     187387  HIT:      93941  MISS:      93446  iACCESS:          0  iHIT:          0  iMISS:          0  dACCESS:     187387  dHIT:      93941  dMISS:      93446  itACCESS:          0  itHIT:          0  itMISS:          0  dtACCESS:          0  dtHIT:          0  dtMISS:          0
LLC PREFETCH     ACCESS:    4287915  HIT:    2655538  MISS:    1632377  iACCESS:    2149127  iHIT:    1541061  iMISS:     608066  dACCESS:    2138788  dHIT:    1114477  dMISS:    1024311  itACCESS:          0  itHIT:          0  itMISS:          0  dtACCESS:          0  dtHIT:          0  dtMISS:          0
LLC WRITE        ACCESS:     268105  HIT:     261466  MISS:       6639  iACCESS:          0  iHIT:          0  iMISS:          0  dACCESS:     268105  dHIT:     261466  dMISS:       6639  itACCESS:          0  itHIT:          0  itMISS:          0  dtACCESS:          0  dtHIT:          0  dtMISS:          0
LLC TRANSLATION  ACCESS:     293186  HIT:      66007  MISS:     227179  iACCESS:          0  iHIT:          0  iMISS:          0  dACCESS:          0  dHIT:          0  dMISS:          0  itACCESS:      71193  itHIT:      14970  itMISS:      56223  dtACCESS:     221993  dtHIT:      51037  dtMISS:     170956
LLC PREFETCH  REQUESTED:          0  ISSUED:          0  CROSSED:          0  USEFUL:          0  USELESS:          0
LLC AVERAGE iMISS LATENCY: 45.8872 cycles
LLC AVERAGE dMISS LATENCY: 110.486 cycles
LLC AVERAGE itMISS LATENCY: 3.83419 cycles
LLC AVERAGE dtMISS LATENCY: 12.6454 cycles
LLC PAGE CROSSINGS (TLB HIT):         0 
LLC PAGE CROSSINGS (TLB MISS):         0 
LLC AVERAGE MISS LATENCY: 172.853 cycles

PageTableWalker TOTAL       ACCESS:     182498  
PageTableWalker AVERAGE LATENCY: 5.82007 cycles
PageTableWalker TOTAL LATENCY: 1062151 cycles

DRAM Statistics
Channel 0
 RQ ROW_BUFFER_HIT:     588514
  ROW_BUFFER_MISS:    1990156
 AVG DBUS CONGESTED CYCLE:      3.651
 WQ ROW_BUFFER_HIT:      66756
  ROW_BUFFER_MISS:      61405  FULL:          0

