last_page:0x200000000000000
VMEM_RES_CAP:0x100000
PAGE_SIZE:4096
LOG2_PAGE_SIZE:12
LOG2_PAGE_TABLE_SIZE:9
page_table_levels:5
WARNING: physical memory size is smaller than virtual memory size
FDiP enabled with aggresivity 16

*** ChampSim Multicore Out-of-Order Simulator ***

Warmup Instructions: 50000000
Simulation Instructions: 100000000
Number of CPUs: 1
Small page size: 4096
Large page size: 2097152

CPU 0 Bimodal branch predictor
Basic BTB sets: 1024 ways: 8 indirect buffer size: 4096 RAS size: 64
Instruction page size distrubution: 0
Loading instruction page size distribution from /home/bsc/bsc018186/scratch/itp_asplos25_AE/dump/smt_srv85_ap_srv495_ap_1024i.pdst
Data page size distrubution: 0
Loading data page size distribution from /home/bsc/bsc018186/scratch/itp_asplos25_AE/dump/smt_srv85_ap_srv495_ap_1024i.pdst
cpu0_L2C IP-based stride prefetcher
cpu0_L2C is using xPTP/LRU
	TLB_LOWER_STRESS_THRESHOLD:1
	TLB_UPPER_STRESS_THRESHOLD:4
	MIN_EVICTION_POSITION:4
cpu0_L1D next line prefetcher
cpu0_STLB using iTP with max lru@8
cpu0_STLB using iTP with instr@0 and data@2
Init sat counter with 3 bits (max:50).
cpu0_L1I next line prefetcher
Off-chip DRAM Size: 4 GiB Channels: 1 Width: 64-bit Data Rate: 3200 MT/s
Heartbeat CPU 0 instructions: 10000000 cycles: 2500261 heartbeat IPC: 3.99959 cumulative IPC: 3.99959 (Simulation time: 0 hr 0 min 41 sec) 
Heartbeat CPU 0 instructions: 20000003 cycles: 5000404 heartbeat IPC: 3.99978 cumulative IPC: 3.99968 (Simulation time: 0 hr 1 min 24 sec) 
Heartbeat CPU 0 instructions: 30000000 cycles: 7500461 heartbeat IPC: 3.99991 cumulative IPC: 3.99976 (Simulation time: 0 hr 2 min 8 sec) 
Heartbeat CPU 0 instructions: 40000003 cycles: 10000723 heartbeat IPC: 3.99959 cumulative IPC: 3.99972 (Simulation time: 0 hr 2 min 52 sec) 
Heartbeat CPU 0 instructions: 50000002 cycles: 12500879 heartbeat IPC: 3.99976 cumulative IPC: 3.99972 (Simulation time: 0 hr 3 min 36 sec) 
Warmup finished CPU 0 instructions: 50000002 cycles: 12500880 cumulative IPC: 3.99972 (Simulation time: 0 hr 3 min 36 sec) 

Warmup complete CPU 0 instructions: 50000002 cycles: 12500880 (Simulation time: 0 hr 3 min 36 sec) 

Heartbeat CPU 0 instructions: 60000001 cycles: 40351111 heartbeat IPC: 0.359064 cumulative IPC: 0.359064 (Simulation time: 0 hr 5 min 2 sec) 
Heartbeat CPU 0 instructions: 70000003 cycles: 68152948 heartbeat IPC: 0.359689 cumulative IPC: 0.359376 (Simulation time: 0 hr 6 min 28 sec) 
Heartbeat CPU 0 instructions: 80000000 cycles: 96400208 heartbeat IPC: 0.354017 cumulative IPC: 0.357572 (Simulation time: 0 hr 7 min 54 sec) 
Heartbeat CPU 0 instructions: 90000002 cycles: 124544113 heartbeat IPC: 0.355317 cumulative IPC: 0.357006 (Simulation time: 0 hr 9 min 17 sec) 
Heartbeat CPU 0 instructions: 100000000 cycles: 152048731 heartbeat IPC: 0.363576 cumulative IPC: 0.358301 (Simulation time: 0 hr 10 min 38 sec) 
Heartbeat CPU 0 instructions: 110000000 cycles: 180153902 heartbeat IPC: 0.355807 cumulative IPC: 0.357882 (Simulation time: 0 hr 12 min 0 sec) 
Heartbeat CPU 0 instructions: 120000000 cycles: 207401202 heartbeat IPC: 0.367009 cumulative IPC: 0.359158 (Simulation time: 0 hr 13 min 20 sec) 
Heartbeat CPU 0 instructions: 130000002 cycles: 235254603 heartbeat IPC: 0.359023 cumulative IPC: 0.359142 (Simulation time: 0 hr 14 min 41 sec) 
Heartbeat CPU 0 instructions: 140000004 cycles: 262668327 heartbeat IPC: 0.364781 cumulative IPC: 0.35976 (Simulation time: 0 hr 16 min 2 sec) 
Heartbeat CPU 0 instructions: 150000000 cycles: 290180053 heartbeat IPC: 0.363482 cumulative IPC: 0.360128 (Simulation time: 0 hr 17 min 23 sec) 
Simulation finished CPU 0 instructions: 100000003 cycles: 277679175 cumulative IPC: 0.360128 (Simulation time: 0 hr 17 min 23 sec) 

Simulation complete CPU 0 instructions: 100000003 cycles: 277679175 (Simulation time: 0 hr 17 min 23 sec) 


ChampSim completed all CPUs

Saving instructions large page distribution to /home/bsc/bsc018186/scratch/itp_asplos25_AE/dump/smt_srv85_ap_srv495_ap_1024i.pdst...
Saving data large page distribution to /home/bsc/bsc018186/scratch/itp_asplos25_AE/dump/smt_srv85_ap_srv495_ap_1024i.pdst...
=== Simulation ===
CPU 0 runs /gpfs/projects/bsc18/MN4/bsc18/romol/ChampSim/traces/qualcomm_srv/smt_srv85_ap_srv495_ap_1024i.champsimtrace.xz

Region of Interest Statistics

CPU 0 cumulative IPC: 0.360128 instructions: 100000003 cycles: 277679175
CPU 0 Branch Prediction Accuracy: 74.693% MPKI: 45.6057 Average ROB Occupancy at Mispredict: 10.5075
Branch type MPKI
BRANCH_DIRECT_JUMP: 1.43109
BRANCH_INDIRECT: 23.5974
BRANCH_CONDITIONAL: 13.2603
BRANCH_DIRECT_CALL: 2.72313
BRANCH_INDIRECT_CALL: 1.02023
BRANCH_RETURN: 3.57353

Instructions large pages: 0
Instructions small pages: 9904
Large page distribution for instructions: 0%

Data large pages: 0
Data small pages: 8542
Large page distribution for data: 0%

cpu0_L1I TOTAL       ACCESS:   39646709  HIT:   30554922  MISS:    9091787  iACCESS:   39646709  iHIT:   30554922  iMISS:    9091787  dACCESS:          0  dHIT:          0  dMISS:          0  itACCESS:          0  itHIT:          0  itMISS:          0  dtACCESS:          0  dtHIT:          0  dtMISS:          0
cpu0_L1I LOAD         ACCESS:   11873905  HIT:    9405348  MISS:    2468557  iACCESS:   11873905  iHIT:    9405348  iMISS:    2468557  dACCESS:          0  dHIT:          0  dMISS:          0  itACCESS:          0  itHIT:          0  itMISS:          0  dtACCESS:          0  dtHIT:          0  dtMISS:          0
cpu0_L1I RFO          ACCESS:          0  HIT:          0  MISS:          0  iACCESS:          0  iHIT:          0  iMISS:          0  dACCESS:          0  dHIT:          0  dMISS:          0  itACCESS:          0  itHIT:          0  itMISS:          0  dtACCESS:          0  dtHIT:          0  dtMISS:          0
cpu0_L1I PREFETCH     ACCESS:   27772804  HIT:   21149574  MISS:    6623230  iACCESS:   27772804  iHIT:   21149574  iMISS:    6623230  dACCESS:          0  dHIT:          0  dMISS:          0  itACCESS:          0  itHIT:          0  itMISS:          0  dtACCESS:          0  dtHIT:          0  dtMISS:          0
cpu0_L1I WRITE        ACCESS:          0  HIT:          0  MISS:          0  iACCESS:          0  iHIT:          0  iMISS:          0  dACCESS:          0  dHIT:          0  dMISS:          0  itACCESS:          0  itHIT:          0  itMISS:          0  dtACCESS:          0  dtHIT:          0  dtMISS:          0
cpu0_L1I TRANSLATION  ACCESS:          0  HIT:          0  MISS:          0  iACCESS:          0  iHIT:          0  iMISS:          0  dACCESS:          0  dHIT:          0  dMISS:          0  itACCESS:          0  itHIT:          0  itMISS:          0  dtACCESS:          0  dtHIT:          0  dtMISS:          0
cpu0_L1I PREFETCH  REQUESTED:   30508742  ISSUED:   30508170  CROSSED:          0  USEFUL:    2249019  USELESS:     779574
cpu0_L1I AVERAGE iMISS LATENCY: 22.9142 cycles
cpu0_L1I AVERAGE dMISS LATENCY: 0 cycles
cpu0_L1I AVERAGE itMISS LATENCY: 0 cycles
cpu0_L1I AVERAGE dtMISS LATENCY: 0 cycles
cpu0_L1I PAGE CROSSINGS (TLB HIT):         0 
cpu0_L1I PAGE CROSSINGS (TLB MISS):         0 
cpu0_L1I AVERAGE MISS LATENCY: 22.9142 cycles
cpu0_ITLB TOTAL       ACCESS:   33498635  HIT:   31234967  MISS:    2263668  iACCESS:   33498635  iHIT:   31234967  iMISS:    2263668  dACCESS:          0  dHIT:          0  dMISS:          0  itACCESS:          0  itHIT:          0  itMISS:          0  dtACCESS:          0  dtHIT:          0  dtMISS:          0
cpu0_ITLB LOAD         ACCESS:   33498635  HIT:   31234967  MISS:    2263668  iACCESS:   33498635  iHIT:   31234967  iMISS:    2263668  dACCESS:          0  dHIT:          0  dMISS:          0  itACCESS:          0  itHIT:          0  itMISS:          0  dtACCESS:          0  dtHIT:          0  dtMISS:          0
cpu0_ITLB RFO          ACCESS:          0  HIT:          0  MISS:          0  iACCESS:          0  iHIT:          0  iMISS:          0  dACCESS:          0  dHIT:          0  dMISS:          0  itACCESS:          0  itHIT:          0  itMISS:          0  dtACCESS:          0  dtHIT:          0  dtMISS:          0
cpu0_ITLB PREFETCH     ACCESS:          0  HIT:          0  MISS:          0  iACCESS:          0  iHIT:          0  iMISS:          0  dACCESS:          0  dHIT:          0  dMISS:          0  itACCESS:          0  itHIT:          0  itMISS:          0  dtACCESS:          0  dtHIT:          0  dtMISS:          0
cpu0_ITLB WRITE        ACCESS:          0  HIT:          0  MISS:          0  iACCESS:          0  iHIT:          0  iMISS:          0  dACCESS:          0  dHIT:          0  dMISS:          0  itACCESS:          0  itHIT:          0  itMISS:          0  dtACCESS:          0  dtHIT:          0  dtMISS:          0
cpu0_ITLB TRANSLATION  ACCESS:          0  HIT:          0  MISS:          0  iACCESS:          0  iHIT:          0  iMISS:          0  dACCESS:          0  dHIT:          0  dMISS:          0  itACCESS:          0  itHIT:          0  itMISS:          0  dtACCESS:          0  dtHIT:          0  dtMISS:          0
cpu0_ITLB PREFETCH  REQUESTED:          0  ISSUED:          0  CROSSED:          0  USEFUL:     397602  USELESS:      80809
cpu0_ITLB AVERAGE iMISS LATENCY: 5.95526 cycles
cpu0_ITLB AVERAGE dMISS LATENCY: 0 cycles
cpu0_ITLB AVERAGE itMISS LATENCY: 0 cycles
cpu0_ITLB AVERAGE dtMISS LATENCY: 0 cycles
cpu0_ITLB PAGE CROSSINGS (TLB HIT):         0 
cpu0_ITLB PAGE CROSSINGS (TLB MISS):         0 
cpu0_ITLB AVERAGE MISS LATENCY: 5.95526 cycles
cpu0_DTLB TOTAL       ACCESS:   28907544  HIT:   25275924  MISS:    3631620  iACCESS:          0  iHIT:          0  iMISS:          0  dACCESS:   28907544  dHIT:   25275924  dMISS:    3631620  itACCESS:          0  itHIT:          0  itMISS:          0  dtACCESS:          0  dtHIT:          0  dtMISS:          0
cpu0_DTLB LOAD         ACCESS:   28907544  HIT:   25275924  MISS:    3631620  iACCESS:          0  iHIT:          0  iMISS:          0  dACCESS:   28907544  dHIT:   25275924  dMISS:    3631620  itACCESS:          0  itHIT:          0  itMISS:          0  dtACCESS:          0  dtHIT:          0  dtMISS:          0
cpu0_DTLB RFO          ACCESS:          0  HIT:          0  MISS:          0  iACCESS:          0  iHIT:          0  iMISS:          0  dACCESS:          0  dHIT:          0  dMISS:          0  itACCESS:          0  itHIT:          0  itMISS:          0  dtACCESS:          0  dtHIT:          0  dtMISS:          0
cpu0_DTLB PREFETCH     ACCESS:          0  HIT:          0  MISS:          0  iACCESS:          0  iHIT:          0  iMISS:          0  dACCESS:          0  dHIT:          0  dMISS:          0  itACCESS:          0  itHIT:          0  itMISS:          0  dtACCESS:          0  dtHIT:          0  dtMISS:          0
cpu0_DTLB WRITE        ACCESS:          0  HIT:          0  MISS:          0  iACCESS:          0  iHIT:          0  iMISS:          0  dACCESS:          0  dHIT:          0  dMISS:          0  itACCESS:          0  itHIT:          0  itMISS:          0  dtACCESS:          0  dtHIT:          0  dtMISS:          0
cpu0_DTLB TRANSLATION  ACCESS:          0  HIT:          0  MISS:          0  iACCESS:          0  iHIT:          0  iMISS:          0  dACCESS:          0  dHIT:          0  dMISS:          0  itACCESS:          0  itHIT:          0  itMISS:          0  dtACCESS:          0  dtHIT:          0  dtMISS:          0
cpu0_DTLB PREFETCH  REQUESTED:          0  ISSUED:          0  CROSSED:          0  USEFUL:          0  USELESS:          0
cpu0_DTLB AVERAGE iMISS LATENCY: 0 cycles
cpu0_DTLB AVERAGE dMISS LATENCY: 19.3093 cycles
cpu0_DTLB AVERAGE itMISS LATENCY: 0 cycles
cpu0_DTLB AVERAGE dtMISS LATENCY: 0 cycles
cpu0_DTLB PAGE CROSSINGS (TLB HIT):         0 
cpu0_DTLB PAGE CROSSINGS (TLB MISS):         0 
cpu0_DTLB AVERAGE MISS LATENCY: 19.3093 cycles
cpu0_STLB TOTAL       ACCESS:    2612355  HIT:    2225360  MISS:     386995  iACCESS:     478411  iHIT:     417764  iMISS:      60647  dACCESS:    2133944  dHIT:    1807596  dMISS:     326348  itACCESS:          0  itHIT:          0  itMISS:          0  dtACCESS:          0  dtHIT:          0  dtMISS:          0
cpu0_STLB LOAD         ACCESS:    2612355  HIT:    2225360  MISS:     386995  iACCESS:     478411  iHIT:     417764  iMISS:      60647  dACCESS:    2133944  dHIT:    1807596  dMISS:     326348  itACCESS:          0  itHIT:          0  itMISS:          0  dtACCESS:          0  dtHIT:          0  dtMISS:          0
cpu0_STLB RFO          ACCESS:          0  HIT:          0  MISS:          0  iACCESS:          0  iHIT:          0  iMISS:          0  dACCESS:          0  dHIT:          0  dMISS:          0  itACCESS:          0  itHIT:          0  itMISS:          0  dtACCESS:          0  dtHIT:          0  dtMISS:          0
cpu0_STLB PREFETCH     ACCESS:          0  HIT:          0  MISS:          0  iACCESS:          0  iHIT:          0  iMISS:          0  dACCESS:          0  dHIT:          0  dMISS:          0  itACCESS:          0  itHIT:          0  itMISS:          0  dtACCESS:          0  dtHIT:          0  dtMISS:          0
cpu0_STLB WRITE        ACCESS:          0  HIT:          0  MISS:          0  iACCESS:          0  iHIT:          0  iMISS:          0  dACCESS:          0  dHIT:          0  dMISS:          0  itACCESS:          0  itHIT:          0  itMISS:          0  dtACCESS:          0  dtHIT:          0  dtMISS:          0
cpu0_STLB TRANSLATION  ACCESS:          0  HIT:          0  MISS:          0  iACCESS:          0  iHIT:          0  iMISS:          0  dACCESS:          0  dHIT:          0  dMISS:          0  itACCESS:          0  itHIT:          0  itMISS:          0  dtACCESS:          0  dtHIT:          0  dtMISS:          0
cpu0_STLB PREFETCH  REQUESTED:          0  ISSUED:          0  CROSSED:          0  USEFUL:          0  USELESS:          0
cpu0_STLB AVERAGE iMISS LATENCY: 25.1119 cycles
cpu0_STLB AVERAGE dMISS LATENCY: 136.731 cycles
cpu0_STLB AVERAGE itMISS LATENCY: 0 cycles
cpu0_STLB AVERAGE dtMISS LATENCY: 0 cycles
cpu0_STLB PAGE CROSSINGS (TLB HIT):         0 
cpu0_STLB PAGE CROSSINGS (TLB MISS):         0 
cpu0_STLB AVERAGE MISS LATENCY: 161.843 cycles
cpu0_L1D TOTAL       ACCESS:   44983778  HIT:   39272762  MISS:    5711016  iACCESS:          0  iHIT:          0  iMISS:          0  dACCESS:   44395203  dHIT:   39243716  dMISS:    5151487  itACCESS:      71276  itHIT:       5305  itMISS:      65971  dtACCESS:     517299  dtHIT:      23741  dtMISS:     493558
cpu0_L1D LOAD         ACCESS:   20241636  HIT:   17925792  MISS:    2315844  iACCESS:          0  iHIT:          0  iMISS:          0  dACCESS:   20241636  dHIT:   17925792  dMISS:    2315844  itACCESS:          0  itHIT:          0  itMISS:          0  dtACCESS:          0  dtHIT:          0  dtMISS:          0
cpu0_L1D RFO          ACCESS:          0  HIT:          0  MISS:          0  iACCESS:          0  iHIT:          0  iMISS:          0  dACCESS:          0  dHIT:          0  dMISS:          0  itACCESS:          0  itHIT:          0  itMISS:          0  dtACCESS:          0  dtHIT:          0  dtMISS:          0
cpu0_L1D PREFETCH     ACCESS:   14002592  HIT:   11749921  MISS:    2252671  iACCESS:          0  iHIT:          0  iMISS:          0  dACCESS:   14002592  dHIT:   11749921  dMISS:    2252671  itACCESS:          0  itHIT:          0  itMISS:          0  dtACCESS:          0  dtHIT:          0  dtMISS:          0
cpu0_L1D WRITE        ACCESS:   10150975  HIT:    9568003  MISS:     582972  iACCESS:          0  iHIT:          0  iMISS:          0  dACCESS:   10150975  dHIT:    9568003  dMISS:     582972  itACCESS:          0  itHIT:          0  itMISS:          0  dtACCESS:          0  dtHIT:          0  dtMISS:          0
cpu0_L1D TRANSLATION  ACCESS:     588575  HIT:      29046  MISS:     559529  iACCESS:          0  iHIT:          0  iMISS:          0  dACCESS:          0  dHIT:          0  dMISS:          0  itACCESS:      71276  itHIT:       5305  itMISS:      65971  dtACCESS:     517299  dtHIT:      23741  dtMISS:     493558
cpu0_L1D PREFETCH  REQUESTED:   20241636  ISSUED:   18543515  CROSSED:          0  USEFUL:     363636  USELESS:     942382
cpu0_L1D AVERAGE iMISS LATENCY: 0 cycles
cpu0_L1D AVERAGE dMISS LATENCY: 49.514 cycles
cpu0_L1D AVERAGE itMISS LATENCY: 1.59431 cycles
cpu0_L1D AVERAGE dtMISS LATENCY: 8.3895 cycles
cpu0_L1D PAGE CROSSINGS (TLB HIT):         0 
cpu0_L1D PAGE CROSSINGS (TLB MISS):         0 
cpu0_L1D AVERAGE MISS LATENCY: 59.4978 cycles
cpu0_L2C TOTAL       ACCESS:    8787621  HIT:    2506886  MISS:    6280735  iACCESS:    3843071  iHIT:    1419000  iMISS:    2424071  dACCESS:    4412511  dHIT:     849697  dMISS:    3562814  itACCESS:      65585  itHIT:      15685  itMISS:      49900  dtACCESS:     466454  dtHIT:     222504  dtMISS:     243950
cpu0_L2C LOAD         ACCESS:    2077388  HIT:     464659  MISS:    1612729  iACCESS:     851261  iHIT:     277886  iMISS:     573375  dACCESS:    1226127  dHIT:     186773  dMISS:    1039354  itACCESS:          0  itHIT:          0  itMISS:          0  dtACCESS:          0  dtHIT:          0  dtMISS:          0
cpu0_L2C RFO          ACCESS:     215975  HIT:      29744  MISS:     186231  iACCESS:          0  iHIT:          0  iMISS:          0  dACCESS:     215975  dHIT:      29744  dMISS:     186231  itACCESS:          0  itHIT:          0  itMISS:          0  dtACCESS:          0  dtHIT:          0  dtMISS:          0
cpu0_L2C PREFETCH     ACCESS:    5616692  HIT:    1651556  MISS:    3965136  iACCESS:    2991810  iHIT:    1141114  iMISS:    1850696  dACCESS:    2624882  dHIT:     510442  dMISS:    2114440  itACCESS:          0  itHIT:          0  itMISS:          0  dtACCESS:          0  dtHIT:          0  dtMISS:          0
cpu0_L2C WRITE        ACCESS:     345527  HIT:     122738  MISS:     222789  iACCESS:          0  iHIT:          0  iMISS:          0  dACCESS:     345527  dHIT:     122738  dMISS:     222789  itACCESS:          0  itHIT:          0  itMISS:          0  dtACCESS:          0  dtHIT:          0  dtMISS:          0
cpu0_L2C TRANSLATION  ACCESS:     532039  HIT:     238189  MISS:     293850  iACCESS:          0  iHIT:          0  iMISS:          0  dACCESS:          0  dHIT:          0  dMISS:          0  itACCESS:      65585  itHIT:      15685  itMISS:      49900  dtACCESS:     466454  dtHIT:     222504  dtMISS:     243950
cpu0_L2C PREFETCH  REQUESTED:    1565191  ISSUED:    1565191  CROSSED:          0  USEFUL:     389631  USELESS:     450513
cpu0_L2C AVERAGE iMISS LATENCY: 27.9786 cycles
cpu0_L2C AVERAGE dMISS LATENCY: 55.2539 cycles
cpu0_L2C AVERAGE itMISS LATENCY: 1.34743 cycles
cpu0_L2C AVERAGE dtMISS LATENCY: 6.91791 cycles
cpu0_L2C PAGE CROSSINGS (TLB HIT):         0 
cpu0_L2C PAGE CROSSINGS (TLB MISS):         0 
cpu0_L2C AVERAGE MISS LATENCY: 91.4978 cycles
LLC TOTAL       ACCESS:    6116023  HIT:    3414474  MISS:    2701549  iACCESS:    2332558  iHIT:    1504526  iMISS:     828032  dACCESS:    3489615  dHIT:    1861531  dMISS:    1628084  itACCESS:      49900  itHIT:       8026  itMISS:      41874  dtACCESS:     243950  dtHIT:      40391  dtMISS:     203559
LLC LOAD         ACCESS:    1605426  HIT:     957255  MISS:     648171  iACCESS:     571989  iHIT:     399273  iMISS:     172716  dACCESS:    1033437  dHIT:     557982  dMISS:     475455  itACCESS:          0  itHIT:          0  itMISS:          0  dtACCESS:          0  dtHIT:          0  dtMISS:          0
LLC RFO          ACCESS:     186222  HIT:      93074  MISS:      93148  iACCESS:          0  iHIT:          0  iMISS:          0  dACCESS:     186222  dHIT:      93074  dMISS:      93148  itACCESS:          0  itHIT:          0  itMISS:          0  dtACCESS:          0  dtHIT:          0  dtMISS:          0
LLC PREFETCH     ACCESS:    3752008  HIT:    2042043  MISS:    1709965  iACCESS:    1760569  iHIT:    1105253  iMISS:     655316  dACCESS:    1991439  dHIT:     936790  dMISS:    1054649  itACCESS:          0  itHIT:          0  itMISS:          0  dtACCESS:          0  dtHIT:          0  dtMISS:          0
LLC WRITE        ACCESS:     278517  HIT:     273685  MISS:       4832  iACCESS:          0  iHIT:          0  iMISS:          0  dACCESS:     278517  dHIT:     273685  dMISS:       4832  itACCESS:          0  itHIT:          0  itMISS:          0  dtACCESS:          0  dtHIT:          0  dtMISS:          0
LLC TRANSLATION  ACCESS:     293850  HIT:      48417  MISS:     245433  iACCESS:          0  iHIT:          0  iMISS:          0  dACCESS:          0  dHIT:          0  dMISS:          0  itACCESS:      49900  itHIT:       8026  itMISS:      41874  dtACCESS:     243950  dtHIT:      40391  dtMISS:     203559
LLC PREFETCH  REQUESTED:          0  ISSUED:          0  CROSSED:          0  USEFUL:          0  USELESS:          0
LLC AVERAGE iMISS LATENCY: 48.2476 cycles
LLC AVERAGE dMISS LATENCY: 106.214 cycles
LLC AVERAGE itMISS LATENCY: 2.76753 cycles
LLC AVERAGE dtMISS LATENCY: 14.2994 cycles
LLC PAGE CROSSINGS (TLB HIT):         0 
LLC PAGE CROSSINGS (TLB MISS):         0 
LLC AVERAGE MISS LATENCY: 171.529 cycles

PageTableWalker TOTAL       ACCESS:     190897  
PageTableWalker AVERAGE LATENCY: 6.09355 cycles
PageTableWalker TOTAL LATENCY: 1163239 cycles

DRAM Statistics
Channel 0
 RQ ROW_BUFFER_HIT:     597849
  ROW_BUFFER_MISS:    2081240
 AVG DBUS CONGESTED CYCLE:    3.65354
 WQ ROW_BUFFER_HIT:      68577
  ROW_BUFFER_MISS:      68158  FULL:          0

