last_page:0x200000000000000
VMEM_RES_CAP:0x100000
PAGE_SIZE:4096
LOG2_PAGE_SIZE:12
LOG2_PAGE_TABLE_SIZE:9
page_table_levels:5
WARNING: physical memory size is smaller than virtual memory size
FDiP enabled with aggresivity 16

*** ChampSim Multicore Out-of-Order Simulator ***

Warmup Instructions: 50000000
Simulation Instructions: 100000000
Number of CPUs: 1
Small page size: 4096
Large page size: 2097152

CPU 0 Bimodal branch predictor
Basic BTB sets: 1024 ways: 8 indirect buffer size: 4096 RAS size: 64
Instruction page size distrubution: 0
Loading instruction page size distribution from /home/bsc/bsc018186/scratch/itp_asplos25_AE/dump/smt_srv12_ap_srv442_ap_1024i.pdst
Data page size distrubution: 0
Loading data page size distribution from /home/bsc/bsc018186/scratch/itp_asplos25_AE/dump/smt_srv12_ap_srv442_ap_1024i.pdst
cpu0_L2C IP-based stride prefetcher
cpu0_L2C is using PTP replacement policy:
	TLB_STRESS_THRESHOLD:0
	PTE_EVICTION_RATIO:0
cpu0_L1D next line prefetcher
cpu0_L1I next line prefetcher
Off-chip DRAM Size: 4 GiB Channels: 1 Width: 64-bit Data Rate: 3200 MT/s
Heartbeat CPU 0 instructions: 10000001 cycles: 2500551 heartbeat IPC: 3.99912 cumulative IPC: 3.99912 (Simulation time: 0 hr 0 min 45 sec) 
Heartbeat CPU 0 instructions: 20000000 cycles: 5000842 heartbeat IPC: 3.99954 cumulative IPC: 3.99933 (Simulation time: 0 hr 1 min 31 sec) 
Heartbeat CPU 0 instructions: 30000002 cycles: 7501551 heartbeat IPC: 3.99887 cumulative IPC: 3.99918 (Simulation time: 0 hr 2 min 19 sec) 
Heartbeat CPU 0 instructions: 40000000 cycles: 10001844 heartbeat IPC: 3.99954 cumulative IPC: 3.99927 (Simulation time: 0 hr 3 min 6 sec) 
Heartbeat CPU 0 instructions: 50000002 cycles: 12502179 heartbeat IPC: 3.99947 cumulative IPC: 3.99931 (Simulation time: 0 hr 3 min 53 sec) 
Warmup finished CPU 0 instructions: 50000002 cycles: 12502180 cumulative IPC: 3.99931 (Simulation time: 0 hr 3 min 53 sec) 

Warmup complete CPU 0 instructions: 50000002 cycles: 12502180 (Simulation time: 0 hr 3 min 53 sec) 

Heartbeat CPU 0 instructions: 60000000 cycles: 43361496 heartbeat IPC: 0.324052 cumulative IPC: 0.324052 (Simulation time: 0 hr 5 min 33 sec) 
Heartbeat CPU 0 instructions: 70000004 cycles: 72966289 heartbeat IPC: 0.337784 cumulative IPC: 0.330775 (Simulation time: 0 hr 7 min 10 sec) 
Heartbeat CPU 0 instructions: 80000001 cycles: 103544306 heartbeat IPC: 0.327033 cumulative IPC: 0.329518 (Simulation time: 0 hr 8 min 46 sec) 
Heartbeat CPU 0 instructions: 90000000 cycles: 131705047 heartbeat IPC: 0.355105 cumulative IPC: 0.335563 (Simulation time: 0 hr 10 min 20 sec) 
Heartbeat CPU 0 instructions: 100000001 cycles: 161593605 heartbeat IPC: 0.334577 cumulative IPC: 0.335365 (Simulation time: 0 hr 11 min 58 sec) 
Heartbeat CPU 0 instructions: 110000003 cycles: 191507643 heartbeat IPC: 0.334292 cumulative IPC: 0.335186 (Simulation time: 0 hr 13 min 36 sec) 
Heartbeat CPU 0 instructions: 120000002 cycles: 220027160 heartbeat IPC: 0.350638 cumulative IPC: 0.337309 (Simulation time: 0 hr 15 min 11 sec) 
Heartbeat CPU 0 instructions: 130000000 cycles: 251198133 heartbeat IPC: 0.320812 cumulative IPC: 0.335155 (Simulation time: 0 hr 16 min 52 sec) 
Heartbeat CPU 0 instructions: 140000000 cycles: 280706874 heartbeat IPC: 0.338883 cumulative IPC: 0.335565 (Simulation time: 0 hr 18 min 31 sec) 
Heartbeat CPU 0 instructions: 150000002 cycles: 310675967 heartbeat IPC: 0.333678 cumulative IPC: 0.335375 (Simulation time: 0 hr 20 min 2 sec) 
Simulation finished CPU 0 instructions: 100000000 cycles: 298173788 cumulative IPC: 0.335375 (Simulation time: 0 hr 20 min 2 sec) 

Simulation complete CPU 0 instructions: 100000000 cycles: 298173788 (Simulation time: 0 hr 20 min 2 sec) 


ChampSim completed all CPUs

Saving instructions large page distribution to /home/bsc/bsc018186/scratch/itp_asplos25_AE/dump/smt_srv12_ap_srv442_ap_1024i.pdst...
Saving data large page distribution to /home/bsc/bsc018186/scratch/itp_asplos25_AE/dump/smt_srv12_ap_srv442_ap_1024i.pdst...
=== Simulation ===
CPU 0 runs /gpfs/projects/bsc18/MN4/bsc18/romol/ChampSim/traces/qualcomm_srv/smt_srv12_ap_srv442_ap_1024i.champsimtrace.xz

Region of Interest Statistics

CPU 0 cumulative IPC: 0.335375 instructions: 100000000 cycles: 298173788
CPU 0 Branch Prediction Accuracy: 75.7426% MPKI: 43.9697 Average ROB Occupancy at Mispredict: 10.9821
Branch type MPKI
BRANCH_DIRECT_JUMP: 1.38601
BRANCH_INDIRECT: 23.1713
BRANCH_CONDITIONAL: 12.2361
BRANCH_DIRECT_CALL: 2.58698
BRANCH_INDIRECT_CALL: 1.12084
BRANCH_RETURN: 3.46853

Instructions large pages: 0
Instructions small pages: 11516
Large page distribution for instructions: 0%

Data large pages: 0
Data small pages: 9858
Large page distribution for data: 0%

cpu0_L1I TOTAL       ACCESS:   39022273  HIT:   30161891  MISS:    8860382  iACCESS:   39022273  iHIT:   30161891  iMISS:    8860382  dACCESS:          0  dHIT:          0  dMISS:          0  itACCESS:          0  itHIT:          0  itMISS:          0  dtACCESS:          0  dtHIT:          0  dtMISS:          0
cpu0_L1I LOAD         ACCESS:   11650837  HIT:    9216236  MISS:    2434601  iACCESS:   11650837  iHIT:    9216236  iMISS:    2434601  dACCESS:          0  dHIT:          0  dMISS:          0  itACCESS:          0  itHIT:          0  itMISS:          0  dtACCESS:          0  dtHIT:          0  dtMISS:          0
cpu0_L1I RFO          ACCESS:          0  HIT:          0  MISS:          0  iACCESS:          0  iHIT:          0  iMISS:          0  dACCESS:          0  dHIT:          0  dMISS:          0  itACCESS:          0  itHIT:          0  itMISS:          0  dtACCESS:          0  dtHIT:          0  dtMISS:          0
cpu0_L1I PREFETCH     ACCESS:   27371436  HIT:   20945655  MISS:    6425781  iACCESS:   27371436  iHIT:   20945655  iMISS:    6425781  dACCESS:          0  dHIT:          0  dMISS:          0  itACCESS:          0  itHIT:          0  itMISS:          0  dtACCESS:          0  dtHIT:          0  dtMISS:          0
cpu0_L1I WRITE        ACCESS:          0  HIT:          0  MISS:          0  iACCESS:          0  iHIT:          0  iMISS:          0  dACCESS:          0  dHIT:          0  dMISS:          0  itACCESS:          0  itHIT:          0  itMISS:          0  dtACCESS:          0  dtHIT:          0  dtMISS:          0
cpu0_L1I TRANSLATION  ACCESS:          0  HIT:          0  MISS:          0  iACCESS:          0  iHIT:          0  iMISS:          0  dACCESS:          0  dHIT:          0  dMISS:          0  itACCESS:          0  itHIT:          0  itMISS:          0  dtACCESS:          0  dtHIT:          0  dtMISS:          0
cpu0_L1I PREFETCH  REQUESTED:   30179052  ISSUED:   30178846  CROSSED:          0  USEFUL:    2230858  USELESS:     785929
cpu0_L1I AVERAGE iMISS LATENCY: 22.7653 cycles
cpu0_L1I AVERAGE dMISS LATENCY: 0 cycles
cpu0_L1I AVERAGE itMISS LATENCY: 0 cycles
cpu0_L1I AVERAGE dtMISS LATENCY: 0 cycles
cpu0_L1I PAGE CROSSINGS (TLB HIT):         0 
cpu0_L1I PAGE CROSSINGS (TLB MISS):         0 
cpu0_L1I AVERAGE MISS LATENCY: 22.7653 cycles
cpu0_ITLB TOTAL       ACCESS:   33041844  HIT:   30739502  MISS:    2302342  iACCESS:   33041844  iHIT:   30739502  iMISS:    2302342  dACCESS:          0  dHIT:          0  dMISS:          0  itACCESS:          0  itHIT:          0  itMISS:          0  dtACCESS:          0  dtHIT:          0  dtMISS:          0
cpu0_ITLB LOAD         ACCESS:   33041844  HIT:   30739502  MISS:    2302342  iACCESS:   33041844  iHIT:   30739502  iMISS:    2302342  dACCESS:          0  dHIT:          0  dMISS:          0  itACCESS:          0  itHIT:          0  itMISS:          0  dtACCESS:          0  dtHIT:          0  dtMISS:          0
cpu0_ITLB RFO          ACCESS:          0  HIT:          0  MISS:          0  iACCESS:          0  iHIT:          0  iMISS:          0  dACCESS:          0  dHIT:          0  dMISS:          0  itACCESS:          0  itHIT:          0  itMISS:          0  dtACCESS:          0  dtHIT:          0  dtMISS:          0
cpu0_ITLB PREFETCH     ACCESS:          0  HIT:          0  MISS:          0  iACCESS:          0  iHIT:          0  iMISS:          0  dACCESS:          0  dHIT:          0  dMISS:          0  itACCESS:          0  itHIT:          0  itMISS:          0  dtACCESS:          0  dtHIT:          0  dtMISS:          0
cpu0_ITLB WRITE        ACCESS:          0  HIT:          0  MISS:          0  iACCESS:          0  iHIT:          0  iMISS:          0  dACCESS:          0  dHIT:          0  dMISS:          0  itACCESS:          0  itHIT:          0  itMISS:          0  dtACCESS:          0  dtHIT:          0  dtMISS:          0
cpu0_ITLB TRANSLATION  ACCESS:          0  HIT:          0  MISS:          0  iACCESS:          0  iHIT:          0  iMISS:          0  dACCESS:          0  dHIT:          0  dMISS:          0  itACCESS:          0  itHIT:          0  itMISS:          0  dtACCESS:          0  dtHIT:          0  dtMISS:          0
cpu0_ITLB PREFETCH  REQUESTED:          0  ISSUED:          0  CROSSED:          0  USEFUL:     396146  USELESS:      84328
cpu0_ITLB AVERAGE iMISS LATENCY: 10.332 cycles
cpu0_ITLB AVERAGE dMISS LATENCY: 0 cycles
cpu0_ITLB AVERAGE itMISS LATENCY: 0 cycles
cpu0_ITLB AVERAGE dtMISS LATENCY: 0 cycles
cpu0_ITLB PAGE CROSSINGS (TLB HIT):         0 
cpu0_ITLB PAGE CROSSINGS (TLB MISS):         0 
cpu0_ITLB AVERAGE MISS LATENCY: 10.332 cycles
cpu0_DTLB TOTAL       ACCESS:   28950141  HIT:   25382318  MISS:    3567823  iACCESS:          0  iHIT:          0  iMISS:          0  dACCESS:   28950141  dHIT:   25382318  dMISS:    3567823  itACCESS:          0  itHIT:          0  itMISS:          0  dtACCESS:          0  dtHIT:          0  dtMISS:          0
cpu0_DTLB LOAD         ACCESS:   28950141  HIT:   25382318  MISS:    3567823  iACCESS:          0  iHIT:          0  iMISS:          0  dACCESS:   28950141  dHIT:   25382318  dMISS:    3567823  itACCESS:          0  itHIT:          0  itMISS:          0  dtACCESS:          0  dtHIT:          0  dtMISS:          0
cpu0_DTLB RFO          ACCESS:          0  HIT:          0  MISS:          0  iACCESS:          0  iHIT:          0  iMISS:          0  dACCESS:          0  dHIT:          0  dMISS:          0  itACCESS:          0  itHIT:          0  itMISS:          0  dtACCESS:          0  dtHIT:          0  dtMISS:          0
cpu0_DTLB PREFETCH     ACCESS:          0  HIT:          0  MISS:          0  iACCESS:          0  iHIT:          0  iMISS:          0  dACCESS:          0  dHIT:          0  dMISS:          0  itACCESS:          0  itHIT:          0  itMISS:          0  dtACCESS:          0  dtHIT:          0  dtMISS:          0
cpu0_DTLB WRITE        ACCESS:          0  HIT:          0  MISS:          0  iACCESS:          0  iHIT:          0  iMISS:          0  dACCESS:          0  dHIT:          0  dMISS:          0  itACCESS:          0  itHIT:          0  itMISS:          0  dtACCESS:          0  dtHIT:          0  dtMISS:          0
cpu0_DTLB TRANSLATION  ACCESS:          0  HIT:          0  MISS:          0  iACCESS:          0  iHIT:          0  iMISS:          0  dACCESS:          0  dHIT:          0  dMISS:          0  itACCESS:          0  itHIT:          0  itMISS:          0  dtACCESS:          0  dtHIT:          0  dtMISS:          0
cpu0_DTLB PREFETCH  REQUESTED:          0  ISSUED:          0  CROSSED:          0  USEFUL:          0  USELESS:          0
cpu0_DTLB AVERAGE iMISS LATENCY: 0 cycles
cpu0_DTLB AVERAGE dMISS LATENCY: 25.8248 cycles
cpu0_DTLB AVERAGE itMISS LATENCY: 0 cycles
cpu0_DTLB AVERAGE dtMISS LATENCY: 0 cycles
cpu0_DTLB PAGE CROSSINGS (TLB HIT):         0 
cpu0_DTLB PAGE CROSSINGS (TLB MISS):         0 
cpu0_DTLB AVERAGE MISS LATENCY: 25.8248 cycles
cpu0_STLB TOTAL       ACCESS:    2562958  HIT:    2187036  MISS:     375922  iACCESS:     480476  iHIT:     368494  iMISS:     111982  dACCESS:    2082482  dHIT:    1818542  dMISS:     263940  itACCESS:          0  itHIT:          0  itMISS:          0  dtACCESS:          0  dtHIT:          0  dtMISS:          0
cpu0_STLB LOAD         ACCESS:    2562958  HIT:    2187036  MISS:     375922  iACCESS:     480476  iHIT:     368494  iMISS:     111982  dACCESS:    2082482  dHIT:    1818542  dMISS:     263940  itACCESS:          0  itHIT:          0  itMISS:          0  dtACCESS:          0  dtHIT:          0  dtMISS:          0
cpu0_STLB RFO          ACCESS:          0  HIT:          0  MISS:          0  iACCESS:          0  iHIT:          0  iMISS:          0  dACCESS:          0  dHIT:          0  dMISS:          0  itACCESS:          0  itHIT:          0  itMISS:          0  dtACCESS:          0  dtHIT:          0  dtMISS:          0
cpu0_STLB PREFETCH     ACCESS:          0  HIT:          0  MISS:          0  iACCESS:          0  iHIT:          0  iMISS:          0  dACCESS:          0  dHIT:          0  dMISS:          0  itACCESS:          0  itHIT:          0  itMISS:          0  dtACCESS:          0  dtHIT:          0  dtMISS:          0
cpu0_STLB WRITE        ACCESS:          0  HIT:          0  MISS:          0  iACCESS:          0  iHIT:          0  iMISS:          0  dACCESS:          0  dHIT:          0  dMISS:          0  itACCESS:          0  itHIT:          0  itMISS:          0  dtACCESS:          0  dtHIT:          0  dtMISS:          0
cpu0_STLB TRANSLATION  ACCESS:          0  HIT:          0  MISS:          0  iACCESS:          0  iHIT:          0  iMISS:          0  dACCESS:          0  dHIT:          0  dMISS:          0  itACCESS:          0  itHIT:          0  itMISS:          0  dtACCESS:          0  dtHIT:          0  dtMISS:          0
cpu0_STLB PREFETCH  REQUESTED:          0  ISSUED:          0  CROSSED:          0  USEFUL:          0  USELESS:          0
cpu0_STLB AVERAGE iMISS LATENCY: 53.0667 cycles
cpu0_STLB AVERAGE dMISS LATENCY: 200.501 cycles
cpu0_STLB AVERAGE itMISS LATENCY: 0 cycles
cpu0_STLB AVERAGE dtMISS LATENCY: 0 cycles
cpu0_STLB PAGE CROSSINGS (TLB HIT):         0 
cpu0_STLB PAGE CROSSINGS (TLB MISS):         0 
cpu0_STLB AVERAGE MISS LATENCY: 253.568 cycles
cpu0_L1D TOTAL       ACCESS:   45172360  HIT:   39233206  MISS:    5939154  iACCESS:          0  iHIT:          0  iMISS:          0  dACCESS:   44603976  dHIT:   39201687  dMISS:    5402289  itACCESS:     127128  itHIT:      13022  itMISS:     114106  dtACCESS:     441256  dtHIT:      18497  dtMISS:     422759
cpu0_L1D LOAD         ACCESS:   20392113  HIT:   17970379  MISS:    2421734  iACCESS:          0  iHIT:          0  iMISS:          0  dACCESS:   20392113  dHIT:   17970379  dMISS:    2421734  itACCESS:          0  itHIT:          0  itMISS:          0  dtACCESS:          0  dtHIT:          0  dtMISS:          0
cpu0_L1D RFO          ACCESS:          0  HIT:          0  MISS:          0  iACCESS:          0  iHIT:          0  iMISS:          0  dACCESS:          0  dHIT:          0  dMISS:          0  itACCESS:          0  itHIT:          0  itMISS:          0  dtACCESS:          0  dtHIT:          0  dtMISS:          0
cpu0_L1D PREFETCH     ACCESS:   14038577  HIT:   11640532  MISS:    2398045  iACCESS:          0  iHIT:          0  iMISS:          0  dACCESS:   14038577  dHIT:   11640532  dMISS:    2398045  itACCESS:          0  itHIT:          0  itMISS:          0  dtACCESS:          0  dtHIT:          0  dtMISS:          0
cpu0_L1D WRITE        ACCESS:   10173286  HIT:    9590776  MISS:     582510  iACCESS:          0  iHIT:          0  iMISS:          0  dACCESS:   10173286  dHIT:    9590776  dMISS:     582510  itACCESS:          0  itHIT:          0  itMISS:          0  dtACCESS:          0  dtHIT:          0  dtMISS:          0
cpu0_L1D TRANSLATION  ACCESS:     568384  HIT:      31519  MISS:     536865  iACCESS:          0  iHIT:          0  iMISS:          0  dACCESS:          0  dHIT:          0  dMISS:          0  itACCESS:     127128  itHIT:      13022  itMISS:     114106  dtACCESS:     441256  dtHIT:      18497  dtMISS:     422759
cpu0_L1D PREFETCH  REQUESTED:   20392113  ISSUED:   18565769  CROSSED:          0  USEFUL:     361522  USELESS:     940210
cpu0_L1D AVERAGE iMISS LATENCY: 0 cycles
cpu0_L1D AVERAGE dMISS LATENCY: 49.3717 cycles
cpu0_L1D AVERAGE itMISS LATENCY: 3.16557 cycles
cpu0_L1D AVERAGE dtMISS LATENCY: 11.8738 cycles
cpu0_L1D PAGE CROSSINGS (TLB HIT):         0 
cpu0_L1D PAGE CROSSINGS (TLB MISS):         0 
cpu0_L1D AVERAGE MISS LATENCY: 64.411 cycles
cpu0_L2C TOTAL       ACCESS:    8703346  HIT:    4293527  MISS:    4409819  iACCESS:    3853629  iHIT:    2381258  iMISS:    1472371  dACCESS:    4359884  dHIT:    1856642  dMISS:    2503242  itACCESS:     112719  itHIT:      17449  itMISS:      95270  dtACCESS:     377114  dtHIT:      38178  dtMISS:     338936
cpu0_L2C LOAD         ACCESS:    2095158  HIT:    1042163  MISS:    1052995  iACCESS:     874563  iHIT:     566708  iMISS:     307855  dACCESS:    1220595  dHIT:     475455  dMISS:     745140  itACCESS:          0  itHIT:          0  itMISS:          0  dtACCESS:          0  dtHIT:          0  dtMISS:          0
cpu0_L2C RFO          ACCESS:     216974  HIT:      82123  MISS:     134851  iACCESS:          0  iHIT:          0  iMISS:          0  dACCESS:     216974  dHIT:      82123  dMISS:     134851  itACCESS:          0  itHIT:          0  itMISS:          0  dtACCESS:          0  dtHIT:          0  dtMISS:          0
cpu0_L2C PREFETCH     ACCESS:    5559254  HIT:    2774922  MISS:    2784332  iACCESS:    2979066  iHIT:    1814550  iMISS:    1164516  dACCESS:    2580188  dHIT:     960372  dMISS:    1619816  itACCESS:          0  itHIT:          0  itMISS:          0  dtACCESS:          0  dtHIT:          0  dtMISS:          0
cpu0_L2C WRITE        ACCESS:     342127  HIT:     338692  MISS:       3435  iACCESS:          0  iHIT:          0  iMISS:          0  dACCESS:     342127  dHIT:     338692  dMISS:       3435  itACCESS:          0  itHIT:          0  itMISS:          0  dtACCESS:          0  dtHIT:          0  dtMISS:          0
cpu0_L2C TRANSLATION  ACCESS:     489833  HIT:      55627  MISS:     434206  iACCESS:          0  iHIT:          0  iMISS:          0  dACCESS:          0  dHIT:          0  dMISS:          0  itACCESS:     112719  itHIT:      17449  itMISS:      95270  dtACCESS:     377114  dtHIT:      38178  dtMISS:     338936
cpu0_L2C PREFETCH  REQUESTED:    1534389  ISSUED:    1534385  CROSSED:          0  USEFUL:     357389  USELESS:     311006
cpu0_L2C AVERAGE iMISS LATENCY: 38.2482 cycles
cpu0_L2C AVERAGE dMISS LATENCY: 80.4569 cycles
cpu0_L2C AVERAGE itMISS LATENCY: 4.01096 cycles
cpu0_L2C AVERAGE dtMISS LATENCY: 15.1401 cycles
cpu0_L2C PAGE CROSSINGS (TLB HIT):         0 
cpu0_L2C PAGE CROSSINGS (TLB MISS):         0 
cpu0_L2C AVERAGE MISS LATENCY: 137.857 cycles
LLC TOTAL       ACCESS:    4416071  HIT:    1393374  MISS:    3022697  iACCESS:    1387861  iHIT:     487497  iMISS:     900364  dACCESS:    2594004  dHIT:     866495  dMISS:    1727509  itACCESS:      95270  itHIT:       6430  itMISS:      88840  dtACCESS:     338936  dtHIT:      32952  dtMISS:     305984
LLC LOAD         ACCESS:    1045779  HIT:     334095  MISS:     711684  iACCESS:     306717  iHIT:     114478  iMISS:     192239  dACCESS:     739062  dHIT:     219617  dMISS:     519445  itACCESS:          0  itHIT:          0  itMISS:          0  dtACCESS:          0  dtHIT:          0  dtMISS:          0
LLC RFO          ACCESS:     134847  HIT:      40746  MISS:      94101  iACCESS:          0  iHIT:          0  iMISS:          0  dACCESS:     134847  dHIT:      40746  dMISS:      94101  itACCESS:          0  itHIT:          0  itMISS:          0  dtACCESS:          0  dtHIT:          0  dtMISS:          0
LLC PREFETCH     ACCESS:    2591101  HIT:     778968  MISS:    1812133  iACCESS:    1081144  iHIT:     373019  iMISS:     708125  dACCESS:    1509957  dHIT:     405949  dMISS:    1104008  itACCESS:          0  itHIT:          0  itMISS:          0  dtACCESS:          0  dtHIT:          0  dtMISS:          0
LLC WRITE        ACCESS:     210138  HIT:     200183  MISS:       9955  iACCESS:          0  iHIT:          0  iMISS:          0  dACCESS:     210138  dHIT:     200183  dMISS:       9955  itACCESS:          0  itHIT:          0  itMISS:          0  dtACCESS:          0  dtHIT:          0  dtMISS:          0
LLC TRANSLATION  ACCESS:     434206  HIT:      39382  MISS:     394824  iACCESS:          0  iHIT:          0  iMISS:          0  dACCESS:          0  dHIT:          0  dMISS:          0  itACCESS:      95270  itHIT:       6430  itMISS:      88840  dtACCESS:     338936  dtHIT:      32952  dtMISS:     305984
LLC PREFETCH  REQUESTED:          0  ISSUED:          0  CROSSED:          0  USEFUL:          0  USELESS:          0
LLC AVERAGE iMISS LATENCY: 46.7714 cycles
LLC AVERAGE dMISS LATENCY: 102.817 cycles
LLC AVERAGE itMISS LATENCY: 5.22624 cycles
LLC AVERAGE dtMISS LATENCY: 19.8704 cycles
LLC PAGE CROSSINGS (TLB HIT):         0 
LLC PAGE CROSSINGS (TLB MISS):         0 
LLC AVERAGE MISS LATENCY: 174.685 cycles

PageTableWalker TOTAL       ACCESS:     180423  
PageTableWalker AVERAGE LATENCY: 6.51842 cycles
PageTableWalker TOTAL LATENCY: 1176072 cycles

DRAM Statistics
Channel 0
 RQ ROW_BUFFER_HIT:     630125
  ROW_BUFFER_MISS:    2363106
 AVG DBUS CONGESTED CYCLE:    3.64901
 WQ ROW_BUFFER_HIT:      66112
  ROW_BUFFER_MISS:      55654  FULL:          0

