last_page:0x200000000000000
VMEM_RES_CAP:0x100000
PAGE_SIZE:4096
LOG2_PAGE_SIZE:12
LOG2_PAGE_TABLE_SIZE:9
page_table_levels:5
WARNING: physical memory size is smaller than virtual memory size
FDiP enabled with aggresivity 16

*** ChampSim Multicore Out-of-Order Simulator ***

Warmup Instructions: 50000000
Simulation Instructions: 100000000
Number of CPUs: 1
Small page size: 4096
Large page size: 2097152

CPU 0 Bimodal branch predictor
Basic BTB sets: 1024 ways: 8 indirect buffer size: 4096 RAS size: 64
Instruction page size distrubution: 0
Loading instruction page size distribution from /home/bsc/bsc018186/scratch/itp_asplos25_AE/dump/smt_srv85_ap_srv180_ap_1024i.pdst
Data page size distrubution: 0
Loading data page size distribution from /home/bsc/bsc018186/scratch/itp_asplos25_AE/dump/smt_srv85_ap_srv180_ap_1024i.pdst
cpu0_L2C IP-based stride prefetcher
cpu0_L2C is using xPTP/LRU
	TLB_LOWER_STRESS_THRESHOLD:1
	TLB_UPPER_STRESS_THRESHOLD:4
	MIN_EVICTION_POSITION:4
cpu0_L1D next line prefetcher
cpu0_STLB using iTP with max lru@8
cpu0_STLB using iTP with instr@0 and data@2
Init sat counter with 3 bits (max:50).
cpu0_L1I next line prefetcher
Off-chip DRAM Size: 4 GiB Channels: 1 Width: 64-bit Data Rate: 3200 MT/s
Heartbeat CPU 0 instructions: 10000002 cycles: 2500495 heartbeat IPC: 3.99921 cumulative IPC: 3.99921 (Simulation time: 0 hr 0 min 37 sec) 
Heartbeat CPU 0 instructions: 20000000 cycles: 5000682 heartbeat IPC: 3.99971 cumulative IPC: 3.99946 (Simulation time: 0 hr 1 min 16 sec) 
Heartbeat CPU 0 instructions: 30000002 cycles: 7500750 heartbeat IPC: 3.9999 cumulative IPC: 3.99961 (Simulation time: 0 hr 1 min 55 sec) 
Heartbeat CPU 0 instructions: 40000001 cycles: 10001027 heartbeat IPC: 3.99956 cumulative IPC: 3.99959 (Simulation time: 0 hr 2 min 34 sec) 
Heartbeat CPU 0 instructions: 50000002 cycles: 12501123 heartbeat IPC: 3.99985 cumulative IPC: 3.99965 (Simulation time: 0 hr 3 min 14 sec) 
Warmup finished CPU 0 instructions: 50000002 cycles: 12501124 cumulative IPC: 3.99965 (Simulation time: 0 hr 3 min 14 sec) 

Warmup complete CPU 0 instructions: 50000002 cycles: 12501124 (Simulation time: 0 hr 3 min 14 sec) 

Heartbeat CPU 0 instructions: 60000004 cycles: 38769454 heartbeat IPC: 0.380687 cumulative IPC: 0.380687 (Simulation time: 0 hr 4 min 32 sec) 
Heartbeat CPU 0 instructions: 70000003 cycles: 64125859 heartbeat IPC: 0.394378 cumulative IPC: 0.387412 (Simulation time: 0 hr 5 min 49 sec) 
Heartbeat CPU 0 instructions: 80000002 cycles: 90806324 heartbeat IPC: 0.374807 cumulative IPC: 0.383117 (Simulation time: 0 hr 7 min 8 sec) 
Heartbeat CPU 0 instructions: 90000002 cycles: 116958065 heartbeat IPC: 0.382384 cumulative IPC: 0.382933 (Simulation time: 0 hr 8 min 27 sec) 
Heartbeat CPU 0 instructions: 100000000 cycles: 142990838 heartbeat IPC: 0.384132 cumulative IPC: 0.383172 (Simulation time: 0 hr 9 min 45 sec) 
Heartbeat CPU 0 instructions: 110000000 cycles: 169597558 heartbeat IPC: 0.375845 cumulative IPC: 0.381931 (Simulation time: 0 hr 11 min 4 sec) 
Heartbeat CPU 0 instructions: 120000001 cycles: 195436988 heartbeat IPC: 0.387006 cumulative IPC: 0.382648 (Simulation time: 0 hr 12 min 22 sec) 
Heartbeat CPU 0 instructions: 130000000 cycles: 220728968 heartbeat IPC: 0.395383 cumulative IPC: 0.384195 (Simulation time: 0 hr 13 min 39 sec) 
Heartbeat CPU 0 instructions: 140000002 cycles: 247204496 heartbeat IPC: 0.377708 cumulative IPC: 0.383463 (Simulation time: 0 hr 14 min 58 sec) 
Heartbeat CPU 0 instructions: 150000000 cycles: 273224533 heartbeat IPC: 0.38432 cumulative IPC: 0.383549 (Simulation time: 0 hr 16 min 17 sec) 
Simulation finished CPU 0 instructions: 100000003 cycles: 260723411 cumulative IPC: 0.383549 (Simulation time: 0 hr 16 min 17 sec) 

Simulation complete CPU 0 instructions: 100000003 cycles: 260723411 (Simulation time: 0 hr 16 min 17 sec) 


ChampSim completed all CPUs

Saving instructions large page distribution to /home/bsc/bsc018186/scratch/itp_asplos25_AE/dump/smt_srv85_ap_srv180_ap_1024i.pdst...
Saving data large page distribution to /home/bsc/bsc018186/scratch/itp_asplos25_AE/dump/smt_srv85_ap_srv180_ap_1024i.pdst...
=== Simulation ===
CPU 0 runs /gpfs/projects/bsc18/MN4/bsc18/romol/ChampSim/traces/qualcomm_srv/smt_srv85_ap_srv180_ap_1024i.champsimtrace.xz

Region of Interest Statistics

CPU 0 cumulative IPC: 0.383549 instructions: 100000003 cycles: 260723411
CPU 0 Branch Prediction Accuracy: 75.818% MPKI: 43.4496 Average ROB Occupancy at Mispredict: 11.2417
Branch type MPKI
BRANCH_DIRECT_JUMP: 1.30954
BRANCH_INDIRECT: 22.6756
BRANCH_CONDITIONAL: 12.6136
BRANCH_DIRECT_CALL: 2.49478
BRANCH_INDIRECT_CALL: 0.92066
BRANCH_RETURN: 3.43539

Instructions large pages: 0
Instructions small pages: 13336
Large page distribution for instructions: 0%

Data large pages: 0
Data small pages: 12088
Large page distribution for data: 0%

cpu0_L1I TOTAL       ACCESS:   39233646  HIT:   30311772  MISS:    8921874  iACCESS:   39233646  iHIT:   30311772  iMISS:    8921874  dACCESS:          0  dHIT:          0  dMISS:          0  itACCESS:          0  itHIT:          0  itMISS:          0  dtACCESS:          0  dtHIT:          0  dtMISS:          0
cpu0_L1I LOAD         ACCESS:   11797700  HIT:    9366553  MISS:    2431147  iACCESS:   11797700  iHIT:    9366553  iMISS:    2431147  dACCESS:          0  dHIT:          0  dMISS:          0  itACCESS:          0  itHIT:          0  itMISS:          0  dtACCESS:          0  dtHIT:          0  dtMISS:          0
cpu0_L1I RFO          ACCESS:          0  HIT:          0  MISS:          0  iACCESS:          0  iHIT:          0  iMISS:          0  dACCESS:          0  dHIT:          0  dMISS:          0  itACCESS:          0  itHIT:          0  itMISS:          0  dtACCESS:          0  dtHIT:          0  dtMISS:          0
cpu0_L1I PREFETCH     ACCESS:   27435946  HIT:   20945219  MISS:    6490727  iACCESS:   27435946  iHIT:   20945219  iMISS:    6490727  dACCESS:          0  dHIT:          0  dMISS:          0  itACCESS:          0  itHIT:          0  itMISS:          0  dtACCESS:          0  dtHIT:          0  dtMISS:          0
cpu0_L1I WRITE        ACCESS:          0  HIT:          0  MISS:          0  iACCESS:          0  iHIT:          0  iMISS:          0  dACCESS:          0  dHIT:          0  dMISS:          0  itACCESS:          0  itHIT:          0  itMISS:          0  dtACCESS:          0  dtHIT:          0  dtMISS:          0
cpu0_L1I TRANSLATION  ACCESS:          0  HIT:          0  MISS:          0  iACCESS:          0  iHIT:          0  iMISS:          0  dACCESS:          0  dHIT:          0  dMISS:          0  itACCESS:          0  itHIT:          0  itMISS:          0  dtACCESS:          0  dtHIT:          0  dtMISS:          0
cpu0_L1I PREFETCH  REQUESTED:   30227232  ISSUED:   30226855  CROSSED:          0  USEFUL:    2202052  USELESS:     751765
cpu0_L1I AVERAGE iMISS LATENCY: 21.7035 cycles
cpu0_L1I AVERAGE dMISS LATENCY: 0 cycles
cpu0_L1I AVERAGE itMISS LATENCY: 0 cycles
cpu0_L1I AVERAGE dtMISS LATENCY: 0 cycles
cpu0_L1I PAGE CROSSINGS (TLB HIT):         0 
cpu0_L1I PAGE CROSSINGS (TLB MISS):         0 
cpu0_L1I AVERAGE MISS LATENCY: 21.7035 cycles
cpu0_ITLB TOTAL       ACCESS:   33034878  HIT:   30842899  MISS:    2191979  iACCESS:   33034878  iHIT:   30842899  iMISS:    2191979  dACCESS:          0  dHIT:          0  dMISS:          0  itACCESS:          0  itHIT:          0  itMISS:          0  dtACCESS:          0  dtHIT:          0  dtMISS:          0
cpu0_ITLB LOAD         ACCESS:   33034878  HIT:   30842899  MISS:    2191979  iACCESS:   33034878  iHIT:   30842899  iMISS:    2191979  dACCESS:          0  dHIT:          0  dMISS:          0  itACCESS:          0  itHIT:          0  itMISS:          0  dtACCESS:          0  dtHIT:          0  dtMISS:          0
cpu0_ITLB RFO          ACCESS:          0  HIT:          0  MISS:          0  iACCESS:          0  iHIT:          0  iMISS:          0  dACCESS:          0  dHIT:          0  dMISS:          0  itACCESS:          0  itHIT:          0  itMISS:          0  dtACCESS:          0  dtHIT:          0  dtMISS:          0
cpu0_ITLB PREFETCH     ACCESS:          0  HIT:          0  MISS:          0  iACCESS:          0  iHIT:          0  iMISS:          0  dACCESS:          0  dHIT:          0  dMISS:          0  itACCESS:          0  itHIT:          0  itMISS:          0  dtACCESS:          0  dtHIT:          0  dtMISS:          0
cpu0_ITLB WRITE        ACCESS:          0  HIT:          0  MISS:          0  iACCESS:          0  iHIT:          0  iMISS:          0  dACCESS:          0  dHIT:          0  dMISS:          0  itACCESS:          0  itHIT:          0  itMISS:          0  dtACCESS:          0  dtHIT:          0  dtMISS:          0
cpu0_ITLB TRANSLATION  ACCESS:          0  HIT:          0  MISS:          0  iACCESS:          0  iHIT:          0  iMISS:          0  dACCESS:          0  dHIT:          0  dMISS:          0  itACCESS:          0  itHIT:          0  itMISS:          0  dtACCESS:          0  dtHIT:          0  dtMISS:          0
cpu0_ITLB PREFETCH  REQUESTED:          0  ISSUED:          0  CROSSED:          0  USEFUL:     383705  USELESS:      77198
cpu0_ITLB AVERAGE iMISS LATENCY: 5.35074 cycles
cpu0_ITLB AVERAGE dMISS LATENCY: 0 cycles
cpu0_ITLB AVERAGE itMISS LATENCY: 0 cycles
cpu0_ITLB AVERAGE dtMISS LATENCY: 0 cycles
cpu0_ITLB PAGE CROSSINGS (TLB HIT):         0 
cpu0_ITLB PAGE CROSSINGS (TLB MISS):         0 
cpu0_ITLB AVERAGE MISS LATENCY: 5.35074 cycles
cpu0_DTLB TOTAL       ACCESS:   28776478  HIT:   25091332  MISS:    3685146  iACCESS:          0  iHIT:          0  iMISS:          0  dACCESS:   28776478  dHIT:   25091332  dMISS:    3685146  itACCESS:          0  itHIT:          0  itMISS:          0  dtACCESS:          0  dtHIT:          0  dtMISS:          0
cpu0_DTLB LOAD         ACCESS:   28776478  HIT:   25091332  MISS:    3685146  iACCESS:          0  iHIT:          0  iMISS:          0  dACCESS:   28776478  dHIT:   25091332  dMISS:    3685146  itACCESS:          0  itHIT:          0  itMISS:          0  dtACCESS:          0  dtHIT:          0  dtMISS:          0
cpu0_DTLB RFO          ACCESS:          0  HIT:          0  MISS:          0  iACCESS:          0  iHIT:          0  iMISS:          0  dACCESS:          0  dHIT:          0  dMISS:          0  itACCESS:          0  itHIT:          0  itMISS:          0  dtACCESS:          0  dtHIT:          0  dtMISS:          0
cpu0_DTLB PREFETCH     ACCESS:          0  HIT:          0  MISS:          0  iACCESS:          0  iHIT:          0  iMISS:          0  dACCESS:          0  dHIT:          0  dMISS:          0  itACCESS:          0  itHIT:          0  itMISS:          0  dtACCESS:          0  dtHIT:          0  dtMISS:          0
cpu0_DTLB WRITE        ACCESS:          0  HIT:          0  MISS:          0  iACCESS:          0  iHIT:          0  iMISS:          0  dACCESS:          0  dHIT:          0  dMISS:          0  itACCESS:          0  itHIT:          0  itMISS:          0  dtACCESS:          0  dtHIT:          0  dtMISS:          0
cpu0_DTLB TRANSLATION  ACCESS:          0  HIT:          0  MISS:          0  iACCESS:          0  iHIT:          0  iMISS:          0  dACCESS:          0  dHIT:          0  dMISS:          0  itACCESS:          0  itHIT:          0  itMISS:          0  dtACCESS:          0  dtHIT:          0  dtMISS:          0
cpu0_DTLB PREFETCH  REQUESTED:          0  ISSUED:          0  CROSSED:          0  USEFUL:          0  USELESS:          0
cpu0_DTLB AVERAGE iMISS LATENCY: 0 cycles
cpu0_DTLB AVERAGE dMISS LATENCY: 18.1785 cycles
cpu0_DTLB AVERAGE itMISS LATENCY: 0 cycles
cpu0_DTLB AVERAGE dtMISS LATENCY: 0 cycles
cpu0_DTLB PAGE CROSSINGS (TLB HIT):         0 
cpu0_DTLB PAGE CROSSINGS (TLB MISS):         0 
cpu0_DTLB AVERAGE MISS LATENCY: 18.1785 cycles
cpu0_STLB TOTAL       ACCESS:    2608991  HIT:    2244323  MISS:     364668  iACCESS:     460909  iHIT:     410757  iMISS:      50152  dACCESS:    2148082  dHIT:    1833566  dMISS:     314516  itACCESS:          0  itHIT:          0  itMISS:          0  dtACCESS:          0  dtHIT:          0  dtMISS:          0
cpu0_STLB LOAD         ACCESS:    2608991  HIT:    2244323  MISS:     364668  iACCESS:     460909  iHIT:     410757  iMISS:      50152  dACCESS:    2148082  dHIT:    1833566  dMISS:     314516  itACCESS:          0  itHIT:          0  itMISS:          0  dtACCESS:          0  dtHIT:          0  dtMISS:          0
cpu0_STLB RFO          ACCESS:          0  HIT:          0  MISS:          0  iACCESS:          0  iHIT:          0  iMISS:          0  dACCESS:          0  dHIT:          0  dMISS:          0  itACCESS:          0  itHIT:          0  itMISS:          0  dtACCESS:          0  dtHIT:          0  dtMISS:          0
cpu0_STLB PREFETCH     ACCESS:          0  HIT:          0  MISS:          0  iACCESS:          0  iHIT:          0  iMISS:          0  dACCESS:          0  dHIT:          0  dMISS:          0  itACCESS:          0  itHIT:          0  itMISS:          0  dtACCESS:          0  dtHIT:          0  dtMISS:          0
cpu0_STLB WRITE        ACCESS:          0  HIT:          0  MISS:          0  iACCESS:          0  iHIT:          0  iMISS:          0  dACCESS:          0  dHIT:          0  dMISS:          0  itACCESS:          0  itHIT:          0  itMISS:          0  dtACCESS:          0  dtHIT:          0  dtMISS:          0
cpu0_STLB TRANSLATION  ACCESS:          0  HIT:          0  MISS:          0  iACCESS:          0  iHIT:          0  iMISS:          0  dACCESS:          0  dHIT:          0  dMISS:          0  itACCESS:          0  itHIT:          0  itMISS:          0  dtACCESS:          0  dtHIT:          0  dtMISS:          0
cpu0_STLB PREFETCH  REQUESTED:          0  ISSUED:          0  CROSSED:          0  USEFUL:          0  USELESS:          0
cpu0_STLB AVERAGE iMISS LATENCY: 22.2514 cycles
cpu0_STLB AVERAGE dMISS LATENCY: 136.225 cycles
cpu0_STLB AVERAGE itMISS LATENCY: 0 cycles
cpu0_STLB AVERAGE dtMISS LATENCY: 0 cycles
cpu0_STLB PAGE CROSSINGS (TLB HIT):         0 
cpu0_STLB PAGE CROSSINGS (TLB MISS):         0 
cpu0_STLB AVERAGE MISS LATENCY: 158.477 cycles
cpu0_L1D TOTAL       ACCESS:   44372390  HIT:   39075315  MISS:    5297075  iACCESS:          0  iHIT:          0  iMISS:          0  dACCESS:   43806628  dHIT:   39046573  dMISS:    4760055  itACCESS:      60437  itHIT:       4604  itMISS:      55833  dtACCESS:     505325  dtHIT:      24138  dtMISS:     481187
cpu0_L1D LOAD         ACCESS:   19981403  HIT:   17852911  MISS:    2128492  iACCESS:          0  iHIT:          0  iMISS:          0  dACCESS:   19981403  dHIT:   17852911  dMISS:    2128492  itACCESS:          0  itHIT:          0  itMISS:          0  dtACCESS:          0  dtHIT:          0  dtMISS:          0
cpu0_L1D RFO          ACCESS:          0  HIT:          0  MISS:          0  iACCESS:          0  iHIT:          0  iMISS:          0  dACCESS:          0  dHIT:          0  dMISS:          0  itACCESS:          0  itHIT:          0  itMISS:          0  dtACCESS:          0  dtHIT:          0  dtMISS:          0
cpu0_L1D PREFETCH     ACCESS:   13688354  HIT:   11618887  MISS:    2069467  iACCESS:          0  iHIT:          0  iMISS:          0  dACCESS:   13688354  dHIT:   11618887  dMISS:    2069467  itACCESS:          0  itHIT:          0  itMISS:          0  dtACCESS:          0  dtHIT:          0  dtMISS:          0
cpu0_L1D WRITE        ACCESS:   10136871  HIT:    9574775  MISS:     562096  iACCESS:          0  iHIT:          0  iMISS:          0  dACCESS:   10136871  dHIT:    9574775  dMISS:     562096  itACCESS:          0  itHIT:          0  itMISS:          0  dtACCESS:          0  dtHIT:          0  dtMISS:          0
cpu0_L1D TRANSLATION  ACCESS:     565762  HIT:      28742  MISS:     537020  iACCESS:          0  iHIT:          0  iMISS:          0  dACCESS:          0  dHIT:          0  dMISS:          0  itACCESS:      60437  itHIT:       4604  itMISS:      55833  dtACCESS:     505325  dtHIT:      24138  dtMISS:     481187
cpu0_L1D PREFETCH  REQUESTED:   19981403  ISSUED:   18348709  CROSSED:          0  USEFUL:     358685  USELESS:     934838
cpu0_L1D AVERAGE iMISS LATENCY: 0 cycles
cpu0_L1D AVERAGE dMISS LATENCY: 49.4266 cycles
cpu0_L1D AVERAGE itMISS LATENCY: 1.43491 cycles
cpu0_L1D AVERAGE dtMISS LATENCY: 8.30066 cycles
cpu0_L1D PAGE CROSSINGS (TLB HIT):         0 
cpu0_L1D PAGE CROSSINGS (TLB MISS):         0 
cpu0_L1D AVERAGE MISS LATENCY: 59.1622 cycles
cpu0_L2C TOTAL       ACCESS:    8588915  HIT:    2523206  MISS:    6065709  iACCESS:    3752882  iHIT:    1410821  iMISS:    2342061  dACCESS:    4328645  dHIT:     872644  dMISS:    3456001  itACCESS:      55117  itHIT:      13690  itMISS:      41427  dtACCESS:     452271  dtHIT:     226051  dtMISS:     226220
cpu0_L2C LOAD         ACCESS:    2046438  HIT:     495713  MISS:    1550725  iACCESS:     835837  iHIT:     287022  iMISS:     548815  dACCESS:    1210601  dHIT:     208691  dMISS:    1001910  itACCESS:          0  itHIT:          0  itMISS:          0  dtACCESS:          0  dtHIT:          0  dtMISS:          0
cpu0_L2C RFO          ACCESS:     210316  HIT:      31698  MISS:     178618  iACCESS:          0  iHIT:          0  iMISS:          0  dACCESS:     210316  dHIT:      31698  dMISS:     178618  itACCESS:          0  itHIT:          0  itMISS:          0  dtACCESS:          0  dtHIT:          0  dtMISS:          0
cpu0_L2C PREFETCH     ACCESS:    5477744  HIT:    1625853  MISS:    3851891  iACCESS:    2917045  iHIT:    1123799  iMISS:    1793246  dACCESS:    2560699  dHIT:     502054  dMISS:    2058645  itACCESS:          0  itHIT:          0  itMISS:          0  dtACCESS:          0  dtHIT:          0  dtMISS:          0
cpu0_L2C WRITE        ACCESS:     347029  HIT:     130201  MISS:     216828  iACCESS:          0  iHIT:          0  iMISS:          0  dACCESS:     347029  dHIT:     130201  dMISS:     216828  itACCESS:          0  itHIT:          0  itMISS:          0  dtACCESS:          0  dtHIT:          0  dtMISS:          0
cpu0_L2C TRANSLATION  ACCESS:     507388  HIT:     239741  MISS:     267647  iACCESS:          0  iHIT:          0  iMISS:          0  dACCESS:          0  dHIT:          0  dMISS:          0  itACCESS:      55117  itHIT:      13690  itMISS:      41427  dtACCESS:     452271  dtHIT:     226051  dtMISS:     226220
cpu0_L2C PREFETCH  REQUESTED:    1516336  ISSUED:    1516331  CROSSED:          0  USEFUL:     384250  USELESS:     443140
cpu0_L2C AVERAGE iMISS LATENCY: 26.6019 cycles
cpu0_L2C AVERAGE dMISS LATENCY: 52.9028 cycles
cpu0_L2C AVERAGE itMISS LATENCY: 1.16422 cycles
cpu0_L2C AVERAGE dtMISS LATENCY: 6.53705 cycles
cpu0_L2C PAGE CROSSINGS (TLB HIT):         0 
cpu0_L2C PAGE CROSSINGS (TLB MISS):         0 
cpu0_L2C AVERAGE MISS LATENCY: 87.2059 cycles
LLC TOTAL       ACCESS:    5921634  HIT:    3466590  MISS:    2455044  iACCESS:    2252487  iHIT:    1506085  iMISS:     746402  dACCESS:    3401500  dHIT:    1915872  dMISS:    1485628  itACCESS:      41427  itHIT:       6335  itMISS:      35092  dtACCESS:     226220  dtHIT:      38298  dtMISS:     187922
LLC LOAD         ACCESS:    1545465  HIT:     960910  MISS:     584555  iACCESS:     547540  iHIT:     393488  iMISS:     154052  dACCESS:     997925  dHIT:     567422  dMISS:     430503  itACCESS:          0  itHIT:          0  itMISS:          0  dtACCESS:          0  dtHIT:          0  dtMISS:          0
LLC RFO          ACCESS:     178599  HIT:      94492  MISS:      84107  iACCESS:          0  iHIT:          0  iMISS:          0  dACCESS:     178599  dHIT:      94492  dMISS:      84107  itACCESS:          0  itHIT:          0  itMISS:          0  dtACCESS:          0  dtHIT:          0  dtMISS:          0
LLC PREFETCH     ACCESS:    3650246  HIT:    2091397  MISS:    1558849  iACCESS:    1704947  iHIT:    1112597  iMISS:     592350  dACCESS:    1945299  dHIT:     978800  dMISS:     966499  itACCESS:          0  itHIT:          0  itMISS:          0  dtACCESS:          0  dtHIT:          0  dtMISS:          0
LLC WRITE        ACCESS:     279677  HIT:     275158  MISS:       4519  iACCESS:          0  iHIT:          0  iMISS:          0  dACCESS:     279677  dHIT:     275158  dMISS:       4519  itACCESS:          0  itHIT:          0  itMISS:          0  dtACCESS:          0  dtHIT:          0  dtMISS:          0
LLC TRANSLATION  ACCESS:     267647  HIT:      44633  MISS:     223014  iACCESS:          0  iHIT:          0  iMISS:          0  dACCESS:          0  dHIT:          0  dMISS:          0  itACCESS:      41427  itHIT:       6335  itMISS:      35092  dtACCESS:     226220  dtHIT:      38298  dtMISS:     187922
LLC PREFETCH  REQUESTED:          0  ISSUED:          0  CROSSED:          0  USEFUL:          0  USELESS:          0
LLC AVERAGE iMISS LATENCY: 47.8921 cycles
LLC AVERAGE dMISS LATENCY: 106.657 cycles
LLC AVERAGE itMISS LATENCY: 2.54282 cycles
LLC AVERAGE dtMISS LATENCY: 14.3311 cycles
LLC PAGE CROSSINGS (TLB HIT):         0 
LLC PAGE CROSSINGS (TLB MISS):         0 
LLC AVERAGE MISS LATENCY: 171.423 cycles

PageTableWalker TOTAL       ACCESS:     180867  
PageTableWalker AVERAGE LATENCY: 6.11039 cycles
PageTableWalker TOTAL LATENCY: 1105167 cycles

DRAM Statistics
Channel 0
 RQ ROW_BUFFER_HIT:     541138
  ROW_BUFFER_MISS:    1899563
 AVG DBUS CONGESTED CYCLE:    3.65094
 WQ ROW_BUFFER_HIT:      63881
  ROW_BUFFER_MISS:      63456  FULL:          0

