last_page:0x200000000000000
VMEM_RES_CAP:0x100000
PAGE_SIZE:4096
LOG2_PAGE_SIZE:12
LOG2_PAGE_TABLE_SIZE:9
page_table_levels:5
WARNING: physical memory size is smaller than virtual memory size
FDiP enabled with aggresivity 16

*** ChampSim Multicore Out-of-Order Simulator ***

Warmup Instructions: 50000000
Simulation Instructions: 100000000
Number of CPUs: 1
Small page size: 4096
Large page size: 2097152

CPU 0 Bimodal branch predictor
Basic BTB sets: 1024 ways: 8 indirect buffer size: 4096 RAS size: 64
Instruction page size distrubution: 0
Loading instruction page size distribution from /home/bsc/bsc018186/scratch/itp_asplos25_AE/dump/smt_srv540_ap_srv259_ap_1024i.pdst
Data page size distrubution: 0
Loading data page size distribution from /home/bsc/bsc018186/scratch/itp_asplos25_AE/dump/smt_srv540_ap_srv259_ap_1024i.pdst
cpu0_L2C IP-based stride prefetcher
cpu0_L1D next line prefetcher
cpu0_STLB using iTP with max lru@8
cpu0_STLB using iTP with instr@0 and data@2
Init sat counter with 3 bits (max:50).
cpu0_L1I next line prefetcher
Off-chip DRAM Size: 4 GiB Channels: 1 Width: 64-bit Data Rate: 3200 MT/s
Heartbeat CPU 0 instructions: 10000003 cycles: 2500269 heartbeat IPC: 3.99958 cumulative IPC: 3.99958 (Simulation time: 0 hr 0 min 57 sec) 
Heartbeat CPU 0 instructions: 20000003 cycles: 5000358 heartbeat IPC: 3.99986 cumulative IPC: 3.99972 (Simulation time: 0 hr 1 min 57 sec) 
Heartbeat CPU 0 instructions: 30000002 cycles: 7500640 heartbeat IPC: 3.99955 cumulative IPC: 3.99966 (Simulation time: 0 hr 2 min 59 sec) 
Heartbeat CPU 0 instructions: 40000002 cycles: 10000692 heartbeat IPC: 3.99992 cumulative IPC: 3.99973 (Simulation time: 0 hr 4 min 0 sec) 
Heartbeat CPU 0 instructions: 50000000 cycles: 12500980 heartbeat IPC: 3.99954 cumulative IPC: 3.99969 (Simulation time: 0 hr 5 min 3 sec) 
Warmup finished CPU 0 instructions: 50000000 cycles: 12500981 cumulative IPC: 3.99969 (Simulation time: 0 hr 5 min 3 sec) 

Warmup complete CPU 0 instructions: 50000000 cycles: 12500981 (Simulation time: 0 hr 5 min 3 sec) 

Heartbeat CPU 0 instructions: 60000000 cycles: 37968756 heartbeat IPC: 0.392654 cumulative IPC: 0.392654 (Simulation time: 0 hr 6 min 55 sec) 
Heartbeat CPU 0 instructions: 70000002 cycles: 63540987 heartbeat IPC: 0.39105 cumulative IPC: 0.39185 (Simulation time: 0 hr 8 min 48 sec) 
Heartbeat CPU 0 instructions: 80000002 cycles: 89775032 heartbeat IPC: 0.381185 cumulative IPC: 0.388229 (Simulation time: 0 hr 10 min 39 sec) 
Heartbeat CPU 0 instructions: 90000000 cycles: 115339387 heartbeat IPC: 0.39117 cumulative IPC: 0.38896 (Simulation time: 0 hr 12 min 31 sec) 
Heartbeat CPU 0 instructions: 100000001 cycles: 142518456 heartbeat IPC: 0.367931 cumulative IPC: 0.384564 (Simulation time: 0 hr 14 min 23 sec) 
Heartbeat CPU 0 instructions: 110000002 cycles: 168436323 heartbeat IPC: 0.385835 cumulative IPC: 0.384775 (Simulation time: 0 hr 16 min 13 sec) 
Heartbeat CPU 0 instructions: 120000001 cycles: 195003170 heartbeat IPC: 0.376409 cumulative IPC: 0.383558 (Simulation time: 0 hr 18 min 11 sec) 
Heartbeat CPU 0 instructions: 130000003 cycles: 221546386 heartbeat IPC: 0.376745 cumulative IPC: 0.382692 (Simulation time: 0 hr 20 min 4 sec) 
Heartbeat CPU 0 instructions: 140000002 cycles: 246780689 heartbeat IPC: 0.396286 cumulative IPC: 0.384157 (Simulation time: 0 hr 21 min 54 sec) 
Heartbeat CPU 0 instructions: 150000001 cycles: 271624035 heartbeat IPC: 0.402523 cumulative IPC: 0.385918 (Simulation time: 0 hr 23 min 44 sec) 
Simulation finished CPU 0 instructions: 100000001 cycles: 259123055 cumulative IPC: 0.385918 (Simulation time: 0 hr 23 min 44 sec) 

Simulation complete CPU 0 instructions: 100000001 cycles: 259123055 (Simulation time: 0 hr 23 min 44 sec) 


ChampSim completed all CPUs

Saving instructions large page distribution to /home/bsc/bsc018186/scratch/itp_asplos25_AE/dump/smt_srv540_ap_srv259_ap_1024i.pdst...
Saving data large page distribution to /home/bsc/bsc018186/scratch/itp_asplos25_AE/dump/smt_srv540_ap_srv259_ap_1024i.pdst...
=== Simulation ===
CPU 0 runs /gpfs/projects/bsc18/MN4/bsc18/romol/ChampSim/traces/qualcomm_srv/smt_srv540_ap_srv259_ap_1024i.champsimtrace.xz

Region of Interest Statistics

CPU 0 cumulative IPC: 0.385918 instructions: 100000001 cycles: 259123055
CPU 0 Branch Prediction Accuracy: 76.8629% MPKI: 41.689 Average ROB Occupancy at Mispredict: 11.3813
Branch type MPKI
BRANCH_DIRECT_JUMP: 1.25098
BRANCH_INDIRECT: 22.2396
BRANCH_CONDITIONAL: 11.5272
BRANCH_DIRECT_CALL: 2.33413
BRANCH_INDIRECT_CALL: 0.97953
BRANCH_RETURN: 3.35763

Instructions large pages: 0
Instructions small pages: 9359
Large page distribution for instructions: 0%

Data large pages: 0
Data small pages: 8207
Large page distribution for data: 0%

cpu0_L1I TOTAL       ACCESS:   38920056  HIT:   29763972  MISS:    9156084  iACCESS:   38920056  iHIT:   29763972  iMISS:    9156084  dACCESS:          0  dHIT:          0  dMISS:          0  itACCESS:          0  itHIT:          0  itMISS:          0  dtACCESS:          0  dtHIT:          0  dtMISS:          0
cpu0_L1I LOAD         ACCESS:   11640508  HIT:    9126750  MISS:    2513758  iACCESS:   11640508  iHIT:    9126750  iMISS:    2513758  dACCESS:          0  dHIT:          0  dMISS:          0  itACCESS:          0  itHIT:          0  itMISS:          0  dtACCESS:          0  dtHIT:          0  dtMISS:          0
cpu0_L1I RFO          ACCESS:          0  HIT:          0  MISS:          0  iACCESS:          0  iHIT:          0  iMISS:          0  dACCESS:          0  dHIT:          0  dMISS:          0  itACCESS:          0  itHIT:          0  itMISS:          0  dtACCESS:          0  dtHIT:          0  dtMISS:          0
cpu0_L1I PREFETCH     ACCESS:   27279548  HIT:   20637222  MISS:    6642326  iACCESS:   27279548  iHIT:   20637222  iMISS:    6642326  dACCESS:          0  dHIT:          0  dMISS:          0  itACCESS:          0  itHIT:          0  itMISS:          0  dtACCESS:          0  dtHIT:          0  dtMISS:          0
cpu0_L1I WRITE        ACCESS:          0  HIT:          0  MISS:          0  iACCESS:          0  iHIT:          0  iMISS:          0  dACCESS:          0  dHIT:          0  dMISS:          0  itACCESS:          0  itHIT:          0  itMISS:          0  dtACCESS:          0  dtHIT:          0  dtMISS:          0
cpu0_L1I TRANSLATION  ACCESS:          0  HIT:          0  MISS:          0  iACCESS:          0  iHIT:          0  iMISS:          0  dACCESS:          0  dHIT:          0  dMISS:          0  itACCESS:          0  itHIT:          0  itMISS:          0  dtACCESS:          0  dtHIT:          0  dtMISS:          0
cpu0_L1I PREFETCH  REQUESTED:   29918163  ISSUED:   29916763  CROSSED:          0  USEFUL:    2175843  USELESS:     750403
cpu0_L1I AVERAGE iMISS LATENCY: 21.7385 cycles
cpu0_L1I AVERAGE dMISS LATENCY: 0 cycles
cpu0_L1I AVERAGE itMISS LATENCY: 0 cycles
cpu0_L1I AVERAGE dtMISS LATENCY: 0 cycles
cpu0_L1I PAGE CROSSINGS (TLB HIT):         0 
cpu0_L1I PAGE CROSSINGS (TLB MISS):         0 
cpu0_L1I AVERAGE MISS LATENCY: 21.7385 cycles
cpu0_ITLB TOTAL       ACCESS:   32616864  HIT:   30393219  MISS:    2223645  iACCESS:   32616864  iHIT:   30393219  iMISS:    2223645  dACCESS:          0  dHIT:          0  dMISS:          0  itACCESS:          0  itHIT:          0  itMISS:          0  dtACCESS:          0  dtHIT:          0  dtMISS:          0
cpu0_ITLB LOAD         ACCESS:   32616864  HIT:   30393219  MISS:    2223645  iACCESS:   32616864  iHIT:   30393219  iMISS:    2223645  dACCESS:          0  dHIT:          0  dMISS:          0  itACCESS:          0  itHIT:          0  itMISS:          0  dtACCESS:          0  dtHIT:          0  dtMISS:          0
cpu0_ITLB RFO          ACCESS:          0  HIT:          0  MISS:          0  iACCESS:          0  iHIT:          0  iMISS:          0  dACCESS:          0  dHIT:          0  dMISS:          0  itACCESS:          0  itHIT:          0  itMISS:          0  dtACCESS:          0  dtHIT:          0  dtMISS:          0
cpu0_ITLB PREFETCH     ACCESS:          0  HIT:          0  MISS:          0  iACCESS:          0  iHIT:          0  iMISS:          0  dACCESS:          0  dHIT:          0  dMISS:          0  itACCESS:          0  itHIT:          0  itMISS:          0  dtACCESS:          0  dtHIT:          0  dtMISS:          0
cpu0_ITLB WRITE        ACCESS:          0  HIT:          0  MISS:          0  iACCESS:          0  iHIT:          0  iMISS:          0  dACCESS:          0  dHIT:          0  dMISS:          0  itACCESS:          0  itHIT:          0  itMISS:          0  dtACCESS:          0  dtHIT:          0  dtMISS:          0
cpu0_ITLB TRANSLATION  ACCESS:          0  HIT:          0  MISS:          0  iACCESS:          0  iHIT:          0  iMISS:          0  dACCESS:          0  dHIT:          0  dMISS:          0  itACCESS:          0  itHIT:          0  itMISS:          0  dtACCESS:          0  dtHIT:          0  dtMISS:          0
cpu0_ITLB PREFETCH  REQUESTED:          0  ISSUED:          0  CROSSED:          0  USEFUL:     379748  USELESS:      79935
cpu0_ITLB AVERAGE iMISS LATENCY: 4.90779 cycles
cpu0_ITLB AVERAGE dMISS LATENCY: 0 cycles
cpu0_ITLB AVERAGE itMISS LATENCY: 0 cycles
cpu0_ITLB AVERAGE dtMISS LATENCY: 0 cycles
cpu0_ITLB PAGE CROSSINGS (TLB HIT):         0 
cpu0_ITLB PAGE CROSSINGS (TLB MISS):         0 
cpu0_ITLB AVERAGE MISS LATENCY: 4.90779 cycles
cpu0_DTLB TOTAL       ACCESS:   28770740  HIT:   25088087  MISS:    3682653  iACCESS:          0  iHIT:          0  iMISS:          0  dACCESS:   28770740  dHIT:   25088087  dMISS:    3682653  itACCESS:          0  itHIT:          0  itMISS:          0  dtACCESS:          0  dtHIT:          0  dtMISS:          0
cpu0_DTLB LOAD         ACCESS:   28770740  HIT:   25088087  MISS:    3682653  iACCESS:          0  iHIT:          0  iMISS:          0  dACCESS:   28770740  dHIT:   25088087  dMISS:    3682653  itACCESS:          0  itHIT:          0  itMISS:          0  dtACCESS:          0  dtHIT:          0  dtMISS:          0
cpu0_DTLB RFO          ACCESS:          0  HIT:          0  MISS:          0  iACCESS:          0  iHIT:          0  iMISS:          0  dACCESS:          0  dHIT:          0  dMISS:          0  itACCESS:          0  itHIT:          0  itMISS:          0  dtACCESS:          0  dtHIT:          0  dtMISS:          0
cpu0_DTLB PREFETCH     ACCESS:          0  HIT:          0  MISS:          0  iACCESS:          0  iHIT:          0  iMISS:          0  dACCESS:          0  dHIT:          0  dMISS:          0  itACCESS:          0  itHIT:          0  itMISS:          0  dtACCESS:          0  dtHIT:          0  dtMISS:          0
cpu0_DTLB WRITE        ACCESS:          0  HIT:          0  MISS:          0  iACCESS:          0  iHIT:          0  iMISS:          0  dACCESS:          0  dHIT:          0  dMISS:          0  itACCESS:          0  itHIT:          0  itMISS:          0  dtACCESS:          0  dtHIT:          0  dtMISS:          0
cpu0_DTLB TRANSLATION  ACCESS:          0  HIT:          0  MISS:          0  iACCESS:          0  iHIT:          0  iMISS:          0  dACCESS:          0  dHIT:          0  dMISS:          0  itACCESS:          0  itHIT:          0  itMISS:          0  dtACCESS:          0  dtHIT:          0  dtMISS:          0
cpu0_DTLB PREFETCH  REQUESTED:          0  ISSUED:          0  CROSSED:          0  USEFUL:          0  USELESS:          0
cpu0_DTLB AVERAGE iMISS LATENCY: 0 cycles
cpu0_DTLB AVERAGE dMISS LATENCY: 18.2254 cycles
cpu0_DTLB AVERAGE itMISS LATENCY: 0 cycles
cpu0_DTLB AVERAGE dtMISS LATENCY: 0 cycles
cpu0_DTLB PAGE CROSSINGS (TLB HIT):         0 
cpu0_DTLB PAGE CROSSINGS (TLB MISS):         0 
cpu0_DTLB AVERAGE MISS LATENCY: 18.2254 cycles
cpu0_STLB TOTAL       ACCESS:    2581167  HIT:    2221878  MISS:     359289  iACCESS:     459684  iHIT:     412508  iMISS:      47176  dACCESS:    2121483  dHIT:    1809370  dMISS:     312113  itACCESS:          0  itHIT:          0  itMISS:          0  dtACCESS:          0  dtHIT:          0  dtMISS:          0
cpu0_STLB LOAD         ACCESS:    2581167  HIT:    2221878  MISS:     359289  iACCESS:     459684  iHIT:     412508  iMISS:      47176  dACCESS:    2121483  dHIT:    1809370  dMISS:     312113  itACCESS:          0  itHIT:          0  itMISS:          0  dtACCESS:          0  dtHIT:          0  dtMISS:          0
cpu0_STLB RFO          ACCESS:          0  HIT:          0  MISS:          0  iACCESS:          0  iHIT:          0  iMISS:          0  dACCESS:          0  dHIT:          0  dMISS:          0  itACCESS:          0  itHIT:          0  itMISS:          0  dtACCESS:          0  dtHIT:          0  dtMISS:          0
cpu0_STLB PREFETCH     ACCESS:          0  HIT:          0  MISS:          0  iACCESS:          0  iHIT:          0  iMISS:          0  dACCESS:          0  dHIT:          0  dMISS:          0  itACCESS:          0  itHIT:          0  itMISS:          0  dtACCESS:          0  dtHIT:          0  dtMISS:          0
cpu0_STLB WRITE        ACCESS:          0  HIT:          0  MISS:          0  iACCESS:          0  iHIT:          0  iMISS:          0  dACCESS:          0  dHIT:          0  dMISS:          0  itACCESS:          0  itHIT:          0  itMISS:          0  dtACCESS:          0  dtHIT:          0  dtMISS:          0
cpu0_STLB TRANSLATION  ACCESS:          0  HIT:          0  MISS:          0  iACCESS:          0  iHIT:          0  iMISS:          0  dACCESS:          0  dHIT:          0  dMISS:          0  itACCESS:          0  itHIT:          0  itMISS:          0  dtACCESS:          0  dtHIT:          0  dtMISS:          0
cpu0_STLB PREFETCH  REQUESTED:          0  ISSUED:          0  CROSSED:          0  USEFUL:          0  USELESS:          0
cpu0_STLB AVERAGE iMISS LATENCY: 20.3469 cycles
cpu0_STLB AVERAGE dMISS LATENCY: 139.203 cycles
cpu0_STLB AVERAGE itMISS LATENCY: 0 cycles
cpu0_STLB AVERAGE dtMISS LATENCY: 0 cycles
cpu0_STLB PAGE CROSSINGS (TLB HIT):         0 
cpu0_STLB PAGE CROSSINGS (TLB MISS):         0 
cpu0_STLB AVERAGE MISS LATENCY: 159.55 cycles
cpu0_L1D TOTAL       ACCESS:   44699153  HIT:   38875153  MISS:    5824000  iACCESS:          0  iHIT:          0  iMISS:          0  dACCESS:   44148967  dHIT:   38847019  dMISS:    5301948  itACCESS:      57062  itHIT:       3929  itMISS:      53133  dtACCESS:     493124  dtHIT:      24205  dtMISS:     468919
cpu0_L1D LOAD         ACCESS:   20216758  HIT:   17825002  MISS:    2391756  iACCESS:          0  iHIT:          0  iMISS:          0  dACCESS:   20216758  dHIT:   17825002  dMISS:    2391756  itACCESS:          0  itHIT:          0  itMISS:          0  dtACCESS:          0  dtHIT:          0  dtMISS:          0
cpu0_L1D RFO          ACCESS:          0  HIT:          0  MISS:          0  iACCESS:          0  iHIT:          0  iMISS:          0  dACCESS:          0  dHIT:          0  dMISS:          0  itACCESS:          0  itHIT:          0  itMISS:          0  dtACCESS:          0  dtHIT:          0  dtMISS:          0
cpu0_L1D PREFETCH     ACCESS:   13816586  HIT:   11481623  MISS:    2334963  iACCESS:          0  iHIT:          0  iMISS:          0  dACCESS:   13816586  dHIT:   11481623  dMISS:    2334963  itACCESS:          0  itHIT:          0  itMISS:          0  dtACCESS:          0  dtHIT:          0  dtMISS:          0
cpu0_L1D WRITE        ACCESS:   10115623  HIT:    9540394  MISS:     575229  iACCESS:          0  iHIT:          0  iMISS:          0  dACCESS:   10115623  dHIT:    9540394  dMISS:     575229  itACCESS:          0  itHIT:          0  itMISS:          0  dtACCESS:          0  dtHIT:          0  dtMISS:          0
cpu0_L1D TRANSLATION  ACCESS:     550186  HIT:      28134  MISS:     522052  iACCESS:          0  iHIT:          0  iMISS:          0  dACCESS:          0  dHIT:          0  dMISS:          0  itACCESS:      57062  itHIT:       3929  itMISS:      53133  dtACCESS:     493124  dtHIT:      24205  dtMISS:     468919
cpu0_L1D PREFETCH  REQUESTED:   20216758  ISSUED:   18339069  CROSSED:          0  USEFUL:     354902  USELESS:     920869
cpu0_L1D AVERAGE iMISS LATENCY: 0 cycles
cpu0_L1D AVERAGE dMISS LATENCY: 49.3769 cycles
cpu0_L1D AVERAGE itMISS LATENCY: 1.16911 cycles
cpu0_L1D AVERAGE dtMISS LATENCY: 7.73124 cycles
cpu0_L1D PAGE CROSSINGS (TLB HIT):         0 
cpu0_L1D PAGE CROSSINGS (TLB MISS):         0 
cpu0_L1D AVERAGE MISS LATENCY: 58.2773 cycles
cpu0_L2C TOTAL       ACCESS:    8514999  HIT:    1579189  MISS:    6935810  iACCESS:    3732502  iHIT:     818385  iMISS:    2914117  dACCESS:    4283598  dHIT:     556488  dMISS:    3727110  itACCESS:      52957  itHIT:      13771  itMISS:      39186  dtACCESS:     445942  dtHIT:     190545  dtMISS:     255397
cpu0_L2C LOAD         ACCESS:    2036012  HIT:     218804  MISS:    1817208  iACCESS:     842629  iHIT:     119173  iMISS:     723456  dACCESS:    1193383  dHIT:      99631  dMISS:    1093752  itACCESS:          0  itHIT:          0  itMISS:          0  dtACCESS:          0  dtHIT:          0  dtMISS:          0
cpu0_L2C RFO          ACCESS:     218755  HIT:      31627  MISS:     187128  iACCESS:          0  iHIT:          0  iMISS:          0  dACCESS:     218755  dHIT:      31627  dMISS:     187128  itACCESS:          0  itHIT:          0  itMISS:          0  dtACCESS:          0  dtHIT:          0  dtMISS:          0
cpu0_L2C PREFETCH     ACCESS:    5419713  HIT:    1018810  MISS:    4400903  iACCESS:    2889873  iHIT:     699212  iMISS:    2190661  dACCESS:    2529840  dHIT:     319598  dMISS:    2210242  itACCESS:          0  itHIT:          0  itMISS:          0  dtACCESS:          0  dtHIT:          0  dtMISS:          0
cpu0_L2C WRITE        ACCESS:     341620  HIT:     105632  MISS:     235988  iACCESS:          0  iHIT:          0  iMISS:          0  dACCESS:     341620  dHIT:     105632  dMISS:     235988  itACCESS:          0  itHIT:          0  itMISS:          0  dtACCESS:          0  dtHIT:          0  dtMISS:          0
cpu0_L2C TRANSLATION  ACCESS:     498899  HIT:     204316  MISS:     294583  iACCESS:          0  iHIT:          0  iMISS:          0  dACCESS:          0  dHIT:          0  dMISS:          0  itACCESS:      52957  itHIT:      13771  itMISS:      39186  dtACCESS:     445942  dtHIT:     190545  dtMISS:     255397
cpu0_L2C PREFETCH  REQUESTED:    1516610  ISSUED:    1516608  CROSSED:          0  USEFUL:     415104  USELESS:     467400
cpu0_L2C AVERAGE iMISS LATENCY: 23.9372 cycles
cpu0_L2C AVERAGE dMISS LATENCY: 49.5106 cycles
cpu0_L2C AVERAGE itMISS LATENCY: 0.907084 cycles
cpu0_L2C AVERAGE dtMISS LATENCY: 5.87339 cycles
cpu0_L2C PAGE CROSSINGS (TLB HIT):         0 
cpu0_L2C PAGE CROSSINGS (TLB MISS):         0 
cpu0_L2C AVERAGE MISS LATENCY: 80.2283 cycles
LLC TOTAL       ACCESS:    6770985  HIT:    4301666  MISS:    2469319  iACCESS:    2832570  iHIT:    2130579  iMISS:     701991  dACCESS:    3643832  dHIT:    2094960  dMISS:    1548872  itACCESS:      39186  itHIT:       8136  itMISS:      31050  dtACCESS:     255397  dtHIT:      67991  dtMISS:     187406
LLC LOAD         ACCESS:    1809275  HIT:    1193783  MISS:     615492  iACCESS:     722022  iHIT:     576232  iMISS:     145790  dACCESS:    1087253  dHIT:     617551  dMISS:     469702  itACCESS:          0  itHIT:          0  itMISS:          0  dtACCESS:          0  dtHIT:          0  dtMISS:          0
LLC RFO          ACCESS:     187109  HIT:      97923  MISS:      89186  iACCESS:          0  iHIT:          0  iMISS:          0  dACCESS:     187109  dHIT:      97923  dMISS:      89186  itACCESS:          0  itHIT:          0  itMISS:          0  dtACCESS:          0  dtHIT:          0  dtMISS:          0
LLC PREFETCH     ACCESS:    4213026  HIT:    2674012  MISS:    1539014  iACCESS:    2110548  iHIT:    1554347  iMISS:     556201  dACCESS:    2102478  dHIT:    1119665  dMISS:     982813  itACCESS:          0  itHIT:          0  itMISS:          0  dtACCESS:          0  dtHIT:          0  dtMISS:          0
LLC WRITE        ACCESS:     266992  HIT:     259821  MISS:       7171  iACCESS:          0  iHIT:          0  iMISS:          0  dACCESS:     266992  dHIT:     259821  dMISS:       7171  itACCESS:          0  itHIT:          0  itMISS:          0  dtACCESS:          0  dtHIT:          0  dtMISS:          0
LLC TRANSLATION  ACCESS:     294583  HIT:      76127  MISS:     218456  iACCESS:          0  iHIT:          0  iMISS:          0  dACCESS:          0  dHIT:          0  dMISS:          0  itACCESS:      39186  itHIT:       8136  itMISS:      31050  dtACCESS:     255397  dtHIT:      67991  dtMISS:     187406
LLC PREFETCH  REQUESTED:          0  ISSUED:          0  CROSSED:          0  USEFUL:          0  USELESS:          0
LLC AVERAGE iMISS LATENCY: 44.998 cycles
LLC AVERAGE dMISS LATENCY: 113.713 cycles
LLC AVERAGE itMISS LATENCY: 2.23485 cycles
LLC AVERAGE dtMISS LATENCY: 14.4619 cycles
LLC PAGE CROSSINGS (TLB HIT):         0 
LLC PAGE CROSSINGS (TLB MISS):         0 
LLC AVERAGE MISS LATENCY: 175.407 cycles

PageTableWalker TOTAL       ACCESS:     177087  
PageTableWalker AVERAGE LATENCY: 6.02062 cycles
PageTableWalker TOTAL LATENCY: 1066172 cycles

DRAM Statistics
Channel 0
 RQ ROW_BUFFER_HIT:     524405
  ROW_BUFFER_MISS:    1916720
 AVG DBUS CONGESTED CYCLE:    3.65523
 WQ ROW_BUFFER_HIT:      61574
  ROW_BUFFER_MISS:      60541  FULL:          0

