last_page:0x200000000000000
VMEM_RES_CAP:0x100000
PAGE_SIZE:4096
LOG2_PAGE_SIZE:12
LOG2_PAGE_TABLE_SIZE:9
page_table_levels:5
WARNING: physical memory size is smaller than virtual memory size
FDiP enabled with aggresivity 16

*** ChampSim Multicore Out-of-Order Simulator ***

Warmup Instructions: 50000000
Simulation Instructions: 100000000
Number of CPUs: 1
Small page size: 4096
Large page size: 2097152

CPU 0 Bimodal branch predictor
Basic BTB sets: 1024 ways: 8 indirect buffer size: 4096 RAS size: 64
Instruction page size distrubution: 0
Loading instruction page size distribution from /home/bsc/bsc018186/scratch/itp_asplos25_AE/dump/smt_srv12_ap_srv298_ap_1024i.pdst
Data page size distrubution: 0
Loading data page size distribution from /home/bsc/bsc018186/scratch/itp_asplos25_AE/dump/smt_srv12_ap_srv298_ap_1024i.pdst
cpu0_L2C IP-based stride prefetcher
cpu0_L2C is using PTP replacement policy:
	TLB_STRESS_THRESHOLD:0
	PTE_EVICTION_RATIO:0
cpu0_L1D next line prefetcher
cpu0_L1I next line prefetcher
Off-chip DRAM Size: 4 GiB Channels: 1 Width: 64-bit Data Rate: 3200 MT/s
Heartbeat CPU 0 instructions: 10000003 cycles: 2500552 heartbeat IPC: 3.99912 cumulative IPC: 3.99912 (Simulation time: 0 hr 0 min 39 sec) 
Heartbeat CPU 0 instructions: 20000001 cycles: 5000713 heartbeat IPC: 3.99975 cumulative IPC: 3.99943 (Simulation time: 0 hr 1 min 19 sec) 
Heartbeat CPU 0 instructions: 30000000 cycles: 7501552 heartbeat IPC: 3.99866 cumulative IPC: 3.99918 (Simulation time: 0 hr 2 min 0 sec) 
Heartbeat CPU 0 instructions: 40000002 cycles: 10001861 heartbeat IPC: 3.99951 cumulative IPC: 3.99926 (Simulation time: 0 hr 2 min 42 sec) 
Heartbeat CPU 0 instructions: 50000003 cycles: 12502141 heartbeat IPC: 3.99956 cumulative IPC: 3.99932 (Simulation time: 0 hr 3 min 29 sec) 
Warmup finished CPU 0 instructions: 50000003 cycles: 12502142 cumulative IPC: 3.99932 (Simulation time: 0 hr 3 min 29 sec) 

Warmup complete CPU 0 instructions: 50000003 cycles: 12502142 (Simulation time: 0 hr 3 min 29 sec) 

Heartbeat CPU 0 instructions: 60000003 cycles: 42139923 heartbeat IPC: 0.337408 cumulative IPC: 0.337408 (Simulation time: 0 hr 5 min 7 sec) 
Heartbeat CPU 0 instructions: 70000001 cycles: 71407040 heartbeat IPC: 0.341681 cumulative IPC: 0.339531 (Simulation time: 0 hr 6 min 43 sec) 
Heartbeat CPU 0 instructions: 80000001 cycles: 100315025 heartbeat IPC: 0.345926 cumulative IPC: 0.341636 (Simulation time: 0 hr 8 min 21 sec) 
Heartbeat CPU 0 instructions: 90000000 cycles: 126189828 heartbeat IPC: 0.386477 cumulative IPC: 0.351842 (Simulation time: 0 hr 9 min 53 sec) 
Heartbeat CPU 0 instructions: 100000000 cycles: 154975980 heartbeat IPC: 0.34739 cumulative IPC: 0.350942 (Simulation time: 0 hr 11 min 28 sec) 
Heartbeat CPU 0 instructions: 110000003 cycles: 184309781 heartbeat IPC: 0.340904 cumulative IPC: 0.349228 (Simulation time: 0 hr 13 min 7 sec) 
Heartbeat CPU 0 instructions: 120000000 cycles: 212369619 heartbeat IPC: 0.356382 cumulative IPC: 0.350233 (Simulation time: 0 hr 14 min 43 sec) 
Heartbeat CPU 0 instructions: 130000003 cycles: 242638671 heartbeat IPC: 0.330371 cumulative IPC: 0.34762 (Simulation time: 0 hr 16 min 21 sec) 
Heartbeat CPU 0 instructions: 140000000 cycles: 272611907 heartbeat IPC: 0.333631 cumulative IPC: 0.346008 (Simulation time: 0 hr 18 min 0 sec) 
Heartbeat CPU 0 instructions: 150000002 cycles: 302857127 heartbeat IPC: 0.330631 cumulative IPC: 0.344407 (Simulation time: 0 hr 19 min 38 sec) 
Simulation finished CPU 0 instructions: 100000004 cycles: 290354987 cumulative IPC: 0.344407 (Simulation time: 0 hr 19 min 38 sec) 

Simulation complete CPU 0 instructions: 100000004 cycles: 290354987 (Simulation time: 0 hr 19 min 38 sec) 


ChampSim completed all CPUs

Saving instructions large page distribution to /home/bsc/bsc018186/scratch/itp_asplos25_AE/dump/smt_srv12_ap_srv298_ap_1024i.pdst...
Saving data large page distribution to /home/bsc/bsc018186/scratch/itp_asplos25_AE/dump/smt_srv12_ap_srv298_ap_1024i.pdst...
=== Simulation ===
CPU 0 runs /gpfs/projects/bsc18/MN4/bsc18/romol/ChampSim/traces/qualcomm_srv/smt_srv12_ap_srv298_ap_1024i.champsimtrace.xz

Region of Interest Statistics

CPU 0 cumulative IPC: 0.344407 instructions: 100000004 cycles: 290354987
CPU 0 Branch Prediction Accuracy: 75.6528% MPKI: 44.0521 Average ROB Occupancy at Mispredict: 11.1429
Branch type MPKI
BRANCH_DIRECT_JUMP: 1.33331
BRANCH_INDIRECT: 22.7363
BRANCH_CONDITIONAL: 12.9124
BRANCH_DIRECT_CALL: 2.56733
BRANCH_INDIRECT_CALL: 1.0555
BRANCH_RETURN: 3.44725

Instructions large pages: 0
Instructions small pages: 14944
Large page distribution for instructions: 0%

Data large pages: 0
Data small pages: 13231
Large page distribution for data: 0%

cpu0_L1I TOTAL       ACCESS:   38969670  HIT:   30324538  MISS:    8645132  iACCESS:   38969670  iHIT:   30324538  iMISS:    8645132  dACCESS:          0  dHIT:          0  dMISS:          0  itACCESS:          0  itHIT:          0  itMISS:          0  dtACCESS:          0  dtHIT:          0  dtMISS:          0
cpu0_L1I LOAD         ACCESS:   11626488  HIT:    9266949  MISS:    2359539  iACCESS:   11626488  iHIT:    9266949  iMISS:    2359539  dACCESS:          0  dHIT:          0  dMISS:          0  itACCESS:          0  itHIT:          0  itMISS:          0  dtACCESS:          0  dtHIT:          0  dtMISS:          0
cpu0_L1I RFO          ACCESS:          0  HIT:          0  MISS:          0  iACCESS:          0  iHIT:          0  iMISS:          0  dACCESS:          0  dHIT:          0  dMISS:          0  itACCESS:          0  itHIT:          0  itMISS:          0  dtACCESS:          0  dtHIT:          0  dtMISS:          0
cpu0_L1I PREFETCH     ACCESS:   27343182  HIT:   21057589  MISS:    6285593  iACCESS:   27343182  iHIT:   21057589  iMISS:    6285593  dACCESS:          0  dHIT:          0  dMISS:          0  itACCESS:          0  itHIT:          0  itMISS:          0  dtACCESS:          0  dtHIT:          0  dtMISS:          0
cpu0_L1I WRITE        ACCESS:          0  HIT:          0  MISS:          0  iACCESS:          0  iHIT:          0  iMISS:          0  dACCESS:          0  dHIT:          0  dMISS:          0  itACCESS:          0  itHIT:          0  itMISS:          0  dtACCESS:          0  dtHIT:          0  dtMISS:          0
cpu0_L1I TRANSLATION  ACCESS:          0  HIT:          0  MISS:          0  iACCESS:          0  iHIT:          0  iMISS:          0  dACCESS:          0  dHIT:          0  dMISS:          0  itACCESS:          0  itHIT:          0  itMISS:          0  dtACCESS:          0  dtHIT:          0  dtMISS:          0
cpu0_L1I PREFETCH  REQUESTED:   30133273  ISSUED:   30133262  CROSSED:          0  USEFUL:    2188446  USELESS:     758982
cpu0_L1I AVERAGE iMISS LATENCY: 23.6182 cycles
cpu0_L1I AVERAGE dMISS LATENCY: 0 cycles
cpu0_L1I AVERAGE itMISS LATENCY: 0 cycles
cpu0_L1I AVERAGE dtMISS LATENCY: 0 cycles
cpu0_L1I PAGE CROSSINGS (TLB HIT):         0 
cpu0_L1I PAGE CROSSINGS (TLB MISS):         0 
cpu0_L1I AVERAGE MISS LATENCY: 23.6182 cycles
cpu0_ITLB TOTAL       ACCESS:   32978624  HIT:   30773901  MISS:    2204723  iACCESS:   32978624  iHIT:   30773901  iMISS:    2204723  dACCESS:          0  dHIT:          0  dMISS:          0  itACCESS:          0  itHIT:          0  itMISS:          0  dtACCESS:          0  dtHIT:          0  dtMISS:          0
cpu0_ITLB LOAD         ACCESS:   32978624  HIT:   30773901  MISS:    2204723  iACCESS:   32978624  iHIT:   30773901  iMISS:    2204723  dACCESS:          0  dHIT:          0  dMISS:          0  itACCESS:          0  itHIT:          0  itMISS:          0  dtACCESS:          0  dtHIT:          0  dtMISS:          0
cpu0_ITLB RFO          ACCESS:          0  HIT:          0  MISS:          0  iACCESS:          0  iHIT:          0  iMISS:          0  dACCESS:          0  dHIT:          0  dMISS:          0  itACCESS:          0  itHIT:          0  itMISS:          0  dtACCESS:          0  dtHIT:          0  dtMISS:          0
cpu0_ITLB PREFETCH     ACCESS:          0  HIT:          0  MISS:          0  iACCESS:          0  iHIT:          0  iMISS:          0  dACCESS:          0  dHIT:          0  dMISS:          0  itACCESS:          0  itHIT:          0  itMISS:          0  dtACCESS:          0  dtHIT:          0  dtMISS:          0
cpu0_ITLB WRITE        ACCESS:          0  HIT:          0  MISS:          0  iACCESS:          0  iHIT:          0  iMISS:          0  dACCESS:          0  dHIT:          0  dMISS:          0  itACCESS:          0  itHIT:          0  itMISS:          0  dtACCESS:          0  dtHIT:          0  dtMISS:          0
cpu0_ITLB TRANSLATION  ACCESS:          0  HIT:          0  MISS:          0  iACCESS:          0  iHIT:          0  iMISS:          0  dACCESS:          0  dHIT:          0  dMISS:          0  itACCESS:          0  itHIT:          0  itMISS:          0  dtACCESS:          0  dtHIT:          0  dtMISS:          0
cpu0_ITLB PREFETCH  REQUESTED:          0  ISSUED:          0  CROSSED:          0  USEFUL:     386962  USELESS:      77673
cpu0_ITLB AVERAGE iMISS LATENCY: 10.0012 cycles
cpu0_ITLB AVERAGE dMISS LATENCY: 0 cycles
cpu0_ITLB AVERAGE itMISS LATENCY: 0 cycles
cpu0_ITLB AVERAGE dtMISS LATENCY: 0 cycles
cpu0_ITLB PAGE CROSSINGS (TLB HIT):         0 
cpu0_ITLB PAGE CROSSINGS (TLB MISS):         0 
cpu0_ITLB AVERAGE MISS LATENCY: 10.0012 cycles
cpu0_DTLB TOTAL       ACCESS:   28887050  HIT:   25275004  MISS:    3612046  iACCESS:          0  iHIT:          0  iMISS:          0  dACCESS:   28887050  dHIT:   25275004  dMISS:    3612046  itACCESS:          0  itHIT:          0  itMISS:          0  dtACCESS:          0  dtHIT:          0  dtMISS:          0
cpu0_DTLB LOAD         ACCESS:   28887050  HIT:   25275004  MISS:    3612046  iACCESS:          0  iHIT:          0  iMISS:          0  dACCESS:   28887050  dHIT:   25275004  dMISS:    3612046  itACCESS:          0  itHIT:          0  itMISS:          0  dtACCESS:          0  dtHIT:          0  dtMISS:          0
cpu0_DTLB RFO          ACCESS:          0  HIT:          0  MISS:          0  iACCESS:          0  iHIT:          0  iMISS:          0  dACCESS:          0  dHIT:          0  dMISS:          0  itACCESS:          0  itHIT:          0  itMISS:          0  dtACCESS:          0  dtHIT:          0  dtMISS:          0
cpu0_DTLB PREFETCH     ACCESS:          0  HIT:          0  MISS:          0  iACCESS:          0  iHIT:          0  iMISS:          0  dACCESS:          0  dHIT:          0  dMISS:          0  itACCESS:          0  itHIT:          0  itMISS:          0  dtACCESS:          0  dtHIT:          0  dtMISS:          0
cpu0_DTLB WRITE        ACCESS:          0  HIT:          0  MISS:          0  iACCESS:          0  iHIT:          0  iMISS:          0  dACCESS:          0  dHIT:          0  dMISS:          0  itACCESS:          0  itHIT:          0  itMISS:          0  dtACCESS:          0  dtHIT:          0  dtMISS:          0
cpu0_DTLB TRANSLATION  ACCESS:          0  HIT:          0  MISS:          0  iACCESS:          0  iHIT:          0  iMISS:          0  dACCESS:          0  dHIT:          0  dMISS:          0  itACCESS:          0  itHIT:          0  itMISS:          0  dtACCESS:          0  dtHIT:          0  dtMISS:          0
cpu0_DTLB PREFETCH  REQUESTED:          0  ISSUED:          0  CROSSED:          0  USEFUL:          0  USELESS:          0
cpu0_DTLB AVERAGE iMISS LATENCY: 0 cycles
cpu0_DTLB AVERAGE dMISS LATENCY: 23.9981 cycles
cpu0_DTLB AVERAGE itMISS LATENCY: 0 cycles
cpu0_DTLB AVERAGE dtMISS LATENCY: 0 cycles
cpu0_DTLB PAGE CROSSINGS (TLB HIT):         0 
cpu0_DTLB PAGE CROSSINGS (TLB MISS):         0 
cpu0_DTLB AVERAGE MISS LATENCY: 23.9981 cycles
cpu0_STLB TOTAL       ACCESS:    2559838  HIT:    2205357  MISS:     354481  iACCESS:     464641  iHIT:     356015  iMISS:     108626  dACCESS:    2095197  dHIT:    1849342  dMISS:     245855  itACCESS:          0  itHIT:          0  itMISS:          0  dtACCESS:          0  dtHIT:          0  dtMISS:          0
cpu0_STLB LOAD         ACCESS:    2559838  HIT:    2205357  MISS:     354481  iACCESS:     464641  iHIT:     356015  iMISS:     108626  dACCESS:    2095197  dHIT:    1849342  dMISS:     245855  itACCESS:          0  itHIT:          0  itMISS:          0  dtACCESS:          0  dtHIT:          0  dtMISS:          0
cpu0_STLB RFO          ACCESS:          0  HIT:          0  MISS:          0  iACCESS:          0  iHIT:          0  iMISS:          0  dACCESS:          0  dHIT:          0  dMISS:          0  itACCESS:          0  itHIT:          0  itMISS:          0  dtACCESS:          0  dtHIT:          0  dtMISS:          0
cpu0_STLB PREFETCH     ACCESS:          0  HIT:          0  MISS:          0  iACCESS:          0  iHIT:          0  iMISS:          0  dACCESS:          0  dHIT:          0  dMISS:          0  itACCESS:          0  itHIT:          0  itMISS:          0  dtACCESS:          0  dtHIT:          0  dtMISS:          0
cpu0_STLB WRITE        ACCESS:          0  HIT:          0  MISS:          0  iACCESS:          0  iHIT:          0  iMISS:          0  dACCESS:          0  dHIT:          0  dMISS:          0  itACCESS:          0  itHIT:          0  itMISS:          0  dtACCESS:          0  dtHIT:          0  dtMISS:          0
cpu0_STLB TRANSLATION  ACCESS:          0  HIT:          0  MISS:          0  iACCESS:          0  iHIT:          0  iMISS:          0  dACCESS:          0  dHIT:          0  dMISS:          0  itACCESS:          0  itHIT:          0  itMISS:          0  dtACCESS:          0  dtHIT:          0  dtMISS:          0
cpu0_STLB PREFETCH  REQUESTED:          0  ISSUED:          0  CROSSED:          0  USEFUL:          0  USELESS:          0
cpu0_STLB AVERAGE iMISS LATENCY: 51.7315 cycles
cpu0_STLB AVERAGE dMISS LATENCY: 196.986 cycles
cpu0_STLB AVERAGE itMISS LATENCY: 0 cycles
cpu0_STLB AVERAGE dtMISS LATENCY: 0 cycles
cpu0_STLB PAGE CROSSINGS (TLB HIT):         0 
cpu0_STLB PAGE CROSSINGS (TLB MISS):         0 
cpu0_STLB AVERAGE MISS LATENCY: 248.718 cycles
cpu0_L1D TOTAL       ACCESS:   44393458  HIT:   39178517  MISS:    5214941  iACCESS:          0  iHIT:          0  iMISS:          0  dACCESS:   43868951  dHIT:   39144517  dMISS:    4724434  itACCESS:     122280  itHIT:      15009  itMISS:     107271  dtACCESS:     402227  dtHIT:      18991  dtMISS:     383236
cpu0_L1D LOAD         ACCESS:   20039076  HIT:   17933292  MISS:    2105784  iACCESS:          0  iHIT:          0  iMISS:          0  dACCESS:   20039076  dHIT:   17933292  dMISS:    2105784  itACCESS:          0  itHIT:          0  itMISS:          0  dtACCESS:          0  dtHIT:          0  dtMISS:          0
cpu0_L1D RFO          ACCESS:          0  HIT:          0  MISS:          0  iACCESS:          0  iHIT:          0  iMISS:          0  dACCESS:          0  dHIT:          0  dMISS:          0  itACCESS:          0  itHIT:          0  itMISS:          0  dtACCESS:          0  dtHIT:          0  dtMISS:          0
cpu0_L1D PREFETCH     ACCESS:   13645265  HIT:   11581029  MISS:    2064236  iACCESS:          0  iHIT:          0  iMISS:          0  dACCESS:   13645265  dHIT:   11581029  dMISS:    2064236  itACCESS:          0  itHIT:          0  itMISS:          0  dtACCESS:          0  dtHIT:          0  dtMISS:          0
cpu0_L1D WRITE        ACCESS:   10184610  HIT:    9630196  MISS:     554414  iACCESS:          0  iHIT:          0  iMISS:          0  dACCESS:   10184610  dHIT:    9630196  dMISS:     554414  itACCESS:          0  itHIT:          0  itMISS:          0  dtACCESS:          0  dtHIT:          0  dtMISS:          0
cpu0_L1D TRANSLATION  ACCESS:     524507  HIT:      34000  MISS:     490507  iACCESS:          0  iHIT:          0  iMISS:          0  dACCESS:          0  dHIT:          0  dMISS:          0  itACCESS:     122280  itHIT:      15009  itMISS:     107271  dtACCESS:     402227  dtHIT:      18991  dtMISS:     383236
cpu0_L1D PREFETCH  REQUESTED:   20039076  ISSUED:   18372883  CROSSED:          0  USEFUL:     358744  USELESS:     926988
cpu0_L1D AVERAGE iMISS LATENCY: 0 cycles
cpu0_L1D AVERAGE dMISS LATENCY: 51.2757 cycles
cpu0_L1D AVERAGE itMISS LATENCY: 3.30553 cycles
cpu0_L1D AVERAGE dtMISS LATENCY: 12.3591 cycles
cpu0_L1D PAGE CROSSINGS (TLB HIT):         0 
cpu0_L1D PAGE CROSSINGS (TLB MISS):         0 
cpu0_L1D AVERAGE MISS LATENCY: 66.9402 cycles
cpu0_L2C TOTAL       ACCESS:    8505095  HIT:    4137012  MISS:    4368083  iACCESS:    3751197  iHIT:    2265006  iMISS:    1486191  dACCESS:    4292292  dHIT:    1814114  dMISS:    2478178  itACCESS:     106629  itHIT:      18599  itMISS:      88030  dtACCESS:     354977  dtHIT:      39293  dtMISS:     315684
cpu0_L2C LOAD         ACCESS:    2041115  HIT:    1004353  MISS:    1036762  iACCESS:     842082  iHIT:     529123  iMISS:     312959  dACCESS:    1199033  dHIT:     475230  dMISS:     723803  itACCESS:          0  itHIT:          0  itMISS:          0  dtACCESS:          0  dtHIT:          0  dtMISS:          0
cpu0_L2C RFO          ACCESS:     208694  HIT:      80151  MISS:     128543  iACCESS:          0  iHIT:          0  iMISS:          0  dACCESS:     208694  dHIT:      80151  dMISS:     128543  itACCESS:          0  itHIT:          0  itMISS:          0  dtACCESS:          0  dtHIT:          0  dtMISS:          0
cpu0_L2C PREFETCH     ACCESS:    5449240  HIT:    2663669  MISS:    2785571  iACCESS:    2909115  iHIT:    1735883  iMISS:    1173232  dACCESS:    2540125  dHIT:     927786  dMISS:    1612339  itACCESS:          0  itHIT:          0  itMISS:          0  dtACCESS:          0  dtHIT:          0  dtMISS:          0
cpu0_L2C WRITE        ACCESS:     344440  HIT:     330947  MISS:      13493  iACCESS:          0  iHIT:          0  iMISS:          0  dACCESS:     344440  dHIT:     330947  dMISS:      13493  itACCESS:          0  itHIT:          0  itMISS:          0  dtACCESS:          0  dtHIT:          0  dtMISS:          0
cpu0_L2C TRANSLATION  ACCESS:     461606  HIT:      57892  MISS:     403714  iACCESS:          0  iHIT:          0  iMISS:          0  dACCESS:          0  dHIT:          0  dMISS:          0  itACCESS:     106629  itHIT:      18599  itMISS:      88030  dtACCESS:     354977  dtHIT:      39293  dtMISS:     315684
cpu0_L2C PREFETCH  REQUESTED:    1493298  ISSUED:    1493298  CROSSED:          0  USEFUL:     355216  USELESS:     322860
cpu0_L2C AVERAGE iMISS LATENCY: 39.4534 cycles
cpu0_L2C AVERAGE dMISS LATENCY: 76.334 cycles
cpu0_L2C AVERAGE itMISS LATENCY: 3.70586 cycles
cpu0_L2C AVERAGE dtMISS LATENCY: 13.9469 cycles
cpu0_L2C PAGE CROSSINGS (TLB HIT):         0 
cpu0_L2C PAGE CROSSINGS (TLB MISS):         0 
cpu0_L2C AVERAGE MISS LATENCY: 133.441 cycles
LLC TOTAL       ACCESS:    4358049  HIT:    1420182  MISS:    2937867  iACCESS:    1396114  iHIT:     472847  iMISS:     923267  dACCESS:    2558221  dHIT:     907025  dMISS:    1651196  itACCESS:      88030  itHIT:       7015  itMISS:      81015  dtACCESS:     315684  dtHIT:      33295  dtMISS:     282389
LLC LOAD         ACCESS:    1032026  HIT:     361759  MISS:     670267  iACCESS:     311771  iHIT:     116662  iMISS:     195109  dACCESS:     720255  dHIT:     245097  dMISS:     475158  itACCESS:          0  itHIT:          0  itMISS:          0  dtACCESS:          0  dtHIT:          0  dtMISS:          0
LLC RFO          ACCESS:     128536  HIT:      42343  MISS:      86193  iACCESS:          0  iHIT:          0  iMISS:          0  dACCESS:     128536  dHIT:      42343  dMISS:      86193  itACCESS:          0  itHIT:          0  itMISS:          0  dtACCESS:          0  dtHIT:          0  dtMISS:          0
LLC PREFETCH     ACCESS:    2583599  HIT:     775675  MISS:    1807924  iACCESS:    1084343  iHIT:     356185  iMISS:     728158  dACCESS:    1499256  dHIT:     419490  dMISS:    1079766  itACCESS:          0  itHIT:          0  itMISS:          0  dtACCESS:          0  dtHIT:          0  dtMISS:          0
LLC WRITE        ACCESS:     210174  HIT:     200095  MISS:      10079  iACCESS:          0  iHIT:          0  iMISS:          0  dACCESS:     210174  dHIT:     200095  dMISS:      10079  itACCESS:          0  itHIT:          0  itMISS:          0  dtACCESS:          0  dtHIT:          0  dtMISS:          0
LLC TRANSLATION  ACCESS:     403714  HIT:      40310  MISS:     363404  iACCESS:          0  iHIT:          0  iMISS:          0  dACCESS:          0  dHIT:          0  dMISS:          0  itACCESS:      88030  itHIT:       7015  itMISS:      81015  dtACCESS:     315684  dtHIT:      33295  dtMISS:     282389
LLC PREFETCH  REQUESTED:          0  ISSUED:          0  CROSSED:          0  USEFUL:          0  USELESS:          0
LLC AVERAGE iMISS LATENCY: 49.3052 cycles
LLC AVERAGE dMISS LATENCY: 98.353 cycles
LLC AVERAGE itMISS LATENCY: 4.91588 cycles
LLC AVERAGE dtMISS LATENCY: 18.6126 cycles
LLC PAGE CROSSINGS (TLB HIT):         0 
LLC PAGE CROSSINGS (TLB MISS):         0 
LLC AVERAGE MISS LATENCY: 171.187 cycles

PageTableWalker TOTAL       ACCESS:     174036  
PageTableWalker AVERAGE LATENCY: 6.46997 cycles
PageTableWalker TOTAL LATENCY: 1126006 cycles

DRAM Statistics
Channel 0
 RQ ROW_BUFFER_HIT:     639971
  ROW_BUFFER_MISS:    2278213
 AVG DBUS CONGESTED CYCLE:    3.64733
 WQ ROW_BUFFER_HIT:      63113
  ROW_BUFFER_MISS:      52395  FULL:          0

