last_page:0x200000000000000
VMEM_RES_CAP:0x100000
PAGE_SIZE:4096
LOG2_PAGE_SIZE:12
LOG2_PAGE_TABLE_SIZE:9
page_table_levels:5
WARNING: physical memory size is smaller than virtual memory size
FDiP enabled with aggresivity 16

*** ChampSim Multicore Out-of-Order Simulator ***

Warmup Instructions: 50000000
Simulation Instructions: 100000000
Number of CPUs: 1
Small page size: 4096
Large page size: 2097152

CPU 0 Bimodal branch predictor
Basic BTB sets: 1024 ways: 8 indirect buffer size: 4096 RAS size: 64
Instruction page size distrubution: 0
Loading instruction page size distribution from /home/bsc/bsc018186/scratch/itp_asplos25_AE/dump/smt_srv85_ap_srv526_ap_1024i.pdst
Data page size distrubution: 0
Loading data page size distribution from /home/bsc/bsc018186/scratch/itp_asplos25_AE/dump/smt_srv85_ap_srv526_ap_1024i.pdst
cpu0_L2C IP-based stride prefetcher
cpu0_L2C is using PTP replacement policy:
	TLB_STRESS_THRESHOLD:0
	PTE_EVICTION_RATIO:0
cpu0_L1D next line prefetcher
cpu0_L1I next line prefetcher
Off-chip DRAM Size: 4 GiB Channels: 1 Width: 64-bit Data Rate: 3200 MT/s
Heartbeat CPU 0 instructions: 10000001 cycles: 2500599 heartbeat IPC: 3.99905 cumulative IPC: 3.99905 (Simulation time: 0 hr 0 min 44 sec) 
Heartbeat CPU 0 instructions: 20000002 cycles: 5001025 heartbeat IPC: 3.99932 cumulative IPC: 3.99919 (Simulation time: 0 hr 1 min 30 sec) 
Heartbeat CPU 0 instructions: 30000000 cycles: 7584446 heartbeat IPC: 3.87084 cumulative IPC: 3.95547 (Simulation time: 0 hr 2 min 16 sec) 
Heartbeat CPU 0 instructions: 40000002 cycles: 10126794 heartbeat IPC: 3.93338 cumulative IPC: 3.94992 (Simulation time: 0 hr 3 min 6 sec) 
Heartbeat CPU 0 instructions: 50000003 cycles: 12655801 heartbeat IPC: 3.95413 cumulative IPC: 3.95076 (Simulation time: 0 hr 3 min 55 sec) 
Warmup finished CPU 0 instructions: 50000003 cycles: 12655802 cumulative IPC: 3.95076 (Simulation time: 0 hr 3 min 55 sec) 

Warmup complete CPU 0 instructions: 50000003 cycles: 12655802 (Simulation time: 0 hr 3 min 55 sec) 

Heartbeat CPU 0 instructions: 60000003 cycles: 42294720 heartbeat IPC: 0.337395 cumulative IPC: 0.337395 (Simulation time: 0 hr 5 min 33 sec) 
Heartbeat CPU 0 instructions: 70000004 cycles: 73335417 heartbeat IPC: 0.322158 cumulative IPC: 0.3296 (Simulation time: 0 hr 7 min 12 sec) 
Heartbeat CPU 0 instructions: 80000003 cycles: 103712018 heartbeat IPC: 0.329201 cumulative IPC: 0.329467 (Simulation time: 0 hr 8 min 53 sec) 
Heartbeat CPU 0 instructions: 90000002 cycles: 133709688 heartbeat IPC: 0.33336 cumulative IPC: 0.330432 (Simulation time: 0 hr 10 min 30 sec) 
Heartbeat CPU 0 instructions: 100000000 cycles: 164748313 heartbeat IPC: 0.32218 cumulative IPC: 0.328748 (Simulation time: 0 hr 12 min 10 sec) 
Heartbeat CPU 0 instructions: 110000004 cycles: 196045031 heartbeat IPC: 0.319523 cumulative IPC: 0.327173 (Simulation time: 0 hr 13 min 52 sec) 
Heartbeat CPU 0 instructions: 120000000 cycles: 226088512 heartbeat IPC: 0.332851 cumulative IPC: 0.327973 (Simulation time: 0 hr 15 min 25 sec) 
Heartbeat CPU 0 instructions: 130000002 cycles: 256830202 heartbeat IPC: 0.325292 cumulative IPC: 0.327635 (Simulation time: 0 hr 16 min 56 sec) 
Heartbeat CPU 0 instructions: 140000004 cycles: 287308316 heartbeat IPC: 0.328105 cumulative IPC: 0.327687 (Simulation time: 0 hr 18 min 36 sec) 
Heartbeat CPU 0 instructions: 150000000 cycles: 318887693 heartbeat IPC: 0.316663 cumulative IPC: 0.32655 (Simulation time: 0 hr 20 min 17 sec) 
Simulation finished CPU 0 instructions: 100000002 cycles: 306231893 cumulative IPC: 0.32655 (Simulation time: 0 hr 20 min 17 sec) 

Simulation complete CPU 0 instructions: 100000002 cycles: 306231893 (Simulation time: 0 hr 20 min 18 sec) 


ChampSim completed all CPUs

Saving instructions large page distribution to /home/bsc/bsc018186/scratch/itp_asplos25_AE/dump/smt_srv85_ap_srv526_ap_1024i.pdst...
Saving data large page distribution to /home/bsc/bsc018186/scratch/itp_asplos25_AE/dump/smt_srv85_ap_srv526_ap_1024i.pdst...
=== Simulation ===
CPU 0 runs /gpfs/projects/bsc18/MN4/bsc18/romol/ChampSim/traces/qualcomm_srv/smt_srv85_ap_srv526_ap_1024i.champsimtrace.xz

Region of Interest Statistics

CPU 0 cumulative IPC: 0.32655 instructions: 100000002 cycles: 306231893
CPU 0 Branch Prediction Accuracy: 75.3321% MPKI: 44.42 Average ROB Occupancy at Mispredict: 10.8968
Branch type MPKI
BRANCH_DIRECT_JUMP: 1.46417
BRANCH_INDIRECT: 22.9756
BRANCH_CONDITIONAL: 12.7519
BRANCH_DIRECT_CALL: 2.66512
BRANCH_INDIRECT_CALL: 0.98894
BRANCH_RETURN: 3.57432

Instructions large pages: 0
Instructions small pages: 13681
Large page distribution for instructions: 0%

Data large pages: 0
Data small pages: 12256
Large page distribution for data: 0%

cpu0_L1I TOTAL       ACCESS:   39037465  HIT:   30209191  MISS:    8828274  iACCESS:   39037465  iHIT:   30209191  iMISS:    8828274  dACCESS:          0  dHIT:          0  dMISS:          0  itACCESS:          0  itHIT:          0  itMISS:          0  dtACCESS:          0  dtHIT:          0  dtMISS:          0
cpu0_L1I LOAD         ACCESS:   11648393  HIT:    9233387  MISS:    2415006  iACCESS:   11648393  iHIT:    9233387  iMISS:    2415006  dACCESS:          0  dHIT:          0  dMISS:          0  itACCESS:          0  itHIT:          0  itMISS:          0  dtACCESS:          0  dtHIT:          0  dtMISS:          0
cpu0_L1I RFO          ACCESS:          0  HIT:          0  MISS:          0  iACCESS:          0  iHIT:          0  iMISS:          0  dACCESS:          0  dHIT:          0  dMISS:          0  itACCESS:          0  itHIT:          0  itMISS:          0  dtACCESS:          0  dtHIT:          0  dtMISS:          0
cpu0_L1I PREFETCH     ACCESS:   27389072  HIT:   20975804  MISS:    6413268  iACCESS:   27389072  iHIT:   20975804  iMISS:    6413268  dACCESS:          0  dHIT:          0  dMISS:          0  itACCESS:          0  itHIT:          0  itMISS:          0  dtACCESS:          0  dtHIT:          0  dtMISS:          0
cpu0_L1I WRITE        ACCESS:          0  HIT:          0  MISS:          0  iACCESS:          0  iHIT:          0  iMISS:          0  dACCESS:          0  dHIT:          0  dMISS:          0  itACCESS:          0  itHIT:          0  itMISS:          0  dtACCESS:          0  dtHIT:          0  dtMISS:          0
cpu0_L1I TRANSLATION  ACCESS:          0  HIT:          0  MISS:          0  iACCESS:          0  iHIT:          0  iMISS:          0  dACCESS:          0  dHIT:          0  dMISS:          0  itACCESS:          0  itHIT:          0  itMISS:          0  dtACCESS:          0  dtHIT:          0  dtMISS:          0
cpu0_L1I PREFETCH  REQUESTED:   30165565  ISSUED:   30165533  CROSSED:          0  USEFUL:    2220798  USELESS:     778515
cpu0_L1I AVERAGE iMISS LATENCY: 24.6879 cycles
cpu0_L1I AVERAGE dMISS LATENCY: 0 cycles
cpu0_L1I AVERAGE itMISS LATENCY: 0 cycles
cpu0_L1I AVERAGE dtMISS LATENCY: 0 cycles
cpu0_L1I PAGE CROSSINGS (TLB HIT):         0 
cpu0_L1I PAGE CROSSINGS (TLB MISS):         0 
cpu0_L1I AVERAGE MISS LATENCY: 24.6879 cycles
cpu0_ITLB TOTAL       ACCESS:   33086318  HIT:   30795860  MISS:    2290458  iACCESS:   33086318  iHIT:   30795860  iMISS:    2290458  dACCESS:          0  dHIT:          0  dMISS:          0  itACCESS:          0  itHIT:          0  itMISS:          0  dtACCESS:          0  dtHIT:          0  dtMISS:          0
cpu0_ITLB LOAD         ACCESS:   33086318  HIT:   30795860  MISS:    2290458  iACCESS:   33086318  iHIT:   30795860  iMISS:    2290458  dACCESS:          0  dHIT:          0  dMISS:          0  itACCESS:          0  itHIT:          0  itMISS:          0  dtACCESS:          0  dtHIT:          0  dtMISS:          0
cpu0_ITLB RFO          ACCESS:          0  HIT:          0  MISS:          0  iACCESS:          0  iHIT:          0  iMISS:          0  dACCESS:          0  dHIT:          0  dMISS:          0  itACCESS:          0  itHIT:          0  itMISS:          0  dtACCESS:          0  dtHIT:          0  dtMISS:          0
cpu0_ITLB PREFETCH     ACCESS:          0  HIT:          0  MISS:          0  iACCESS:          0  iHIT:          0  iMISS:          0  dACCESS:          0  dHIT:          0  dMISS:          0  itACCESS:          0  itHIT:          0  itMISS:          0  dtACCESS:          0  dtHIT:          0  dtMISS:          0
cpu0_ITLB WRITE        ACCESS:          0  HIT:          0  MISS:          0  iACCESS:          0  iHIT:          0  iMISS:          0  dACCESS:          0  dHIT:          0  dMISS:          0  itACCESS:          0  itHIT:          0  itMISS:          0  dtACCESS:          0  dtHIT:          0  dtMISS:          0
cpu0_ITLB TRANSLATION  ACCESS:          0  HIT:          0  MISS:          0  iACCESS:          0  iHIT:          0  iMISS:          0  dACCESS:          0  dHIT:          0  dMISS:          0  itACCESS:          0  itHIT:          0  itMISS:          0  dtACCESS:          0  dtHIT:          0  dtMISS:          0
cpu0_ITLB PREFETCH  REQUESTED:          0  ISSUED:          0  CROSSED:          0  USEFUL:     399212  USELESS:      85041
cpu0_ITLB AVERAGE iMISS LATENCY: 10.8163 cycles
cpu0_ITLB AVERAGE dMISS LATENCY: 0 cycles
cpu0_ITLB AVERAGE itMISS LATENCY: 0 cycles
cpu0_ITLB AVERAGE dtMISS LATENCY: 0 cycles
cpu0_ITLB PAGE CROSSINGS (TLB HIT):         0 
cpu0_ITLB PAGE CROSSINGS (TLB MISS):         0 
cpu0_ITLB AVERAGE MISS LATENCY: 10.8163 cycles
cpu0_DTLB TOTAL       ACCESS:   28919511  HIT:   25257759  MISS:    3661752  iACCESS:          0  iHIT:          0  iMISS:          0  dACCESS:   28919511  dHIT:   25257759  dMISS:    3661752  itACCESS:          0  itHIT:          0  itMISS:          0  dtACCESS:          0  dtHIT:          0  dtMISS:          0
cpu0_DTLB LOAD         ACCESS:   28919511  HIT:   25257759  MISS:    3661752  iACCESS:          0  iHIT:          0  iMISS:          0  dACCESS:   28919511  dHIT:   25257759  dMISS:    3661752  itACCESS:          0  itHIT:          0  itMISS:          0  dtACCESS:          0  dtHIT:          0  dtMISS:          0
cpu0_DTLB RFO          ACCESS:          0  HIT:          0  MISS:          0  iACCESS:          0  iHIT:          0  iMISS:          0  dACCESS:          0  dHIT:          0  dMISS:          0  itACCESS:          0  itHIT:          0  itMISS:          0  dtACCESS:          0  dtHIT:          0  dtMISS:          0
cpu0_DTLB PREFETCH     ACCESS:          0  HIT:          0  MISS:          0  iACCESS:          0  iHIT:          0  iMISS:          0  dACCESS:          0  dHIT:          0  dMISS:          0  itACCESS:          0  itHIT:          0  itMISS:          0  dtACCESS:          0  dtHIT:          0  dtMISS:          0
cpu0_DTLB WRITE        ACCESS:          0  HIT:          0  MISS:          0  iACCESS:          0  iHIT:          0  iMISS:          0  dACCESS:          0  dHIT:          0  dMISS:          0  itACCESS:          0  itHIT:          0  itMISS:          0  dtACCESS:          0  dtHIT:          0  dtMISS:          0
cpu0_DTLB TRANSLATION  ACCESS:          0  HIT:          0  MISS:          0  iACCESS:          0  iHIT:          0  iMISS:          0  dACCESS:          0  dHIT:          0  dMISS:          0  itACCESS:          0  itHIT:          0  itMISS:          0  dtACCESS:          0  dtHIT:          0  dtMISS:          0
cpu0_DTLB PREFETCH  REQUESTED:          0  ISSUED:          0  CROSSED:          0  USEFUL:          0  USELESS:          0
cpu0_DTLB AVERAGE iMISS LATENCY: 0 cycles
cpu0_DTLB AVERAGE dMISS LATENCY: 25.3741 cycles
cpu0_DTLB AVERAGE itMISS LATENCY: 0 cycles
cpu0_DTLB AVERAGE dtMISS LATENCY: 0 cycles
cpu0_DTLB PAGE CROSSINGS (TLB HIT):         0 
cpu0_DTLB PAGE CROSSINGS (TLB MISS):         0 
cpu0_DTLB AVERAGE MISS LATENCY: 25.3741 cycles
cpu0_STLB TOTAL       ACCESS:    2612440  HIT:    2217418  MISS:     395022  iACCESS:     484257  iHIT:     361542  iMISS:     122715  dACCESS:    2128183  dHIT:    1855876  dMISS:     272307  itACCESS:          0  itHIT:          0  itMISS:          0  dtACCESS:          0  dtHIT:          0  dtMISS:          0
cpu0_STLB LOAD         ACCESS:    2612440  HIT:    2217418  MISS:     395022  iACCESS:     484257  iHIT:     361542  iMISS:     122715  dACCESS:    2128183  dHIT:    1855876  dMISS:     272307  itACCESS:          0  itHIT:          0  itMISS:          0  dtACCESS:          0  dtHIT:          0  dtMISS:          0
cpu0_STLB RFO          ACCESS:          0  HIT:          0  MISS:          0  iACCESS:          0  iHIT:          0  iMISS:          0  dACCESS:          0  dHIT:          0  dMISS:          0  itACCESS:          0  itHIT:          0  itMISS:          0  dtACCESS:          0  dtHIT:          0  dtMISS:          0
cpu0_STLB PREFETCH     ACCESS:          0  HIT:          0  MISS:          0  iACCESS:          0  iHIT:          0  iMISS:          0  dACCESS:          0  dHIT:          0  dMISS:          0  itACCESS:          0  itHIT:          0  itMISS:          0  dtACCESS:          0  dtHIT:          0  dtMISS:          0
cpu0_STLB WRITE        ACCESS:          0  HIT:          0  MISS:          0  iACCESS:          0  iHIT:          0  iMISS:          0  dACCESS:          0  dHIT:          0  dMISS:          0  itACCESS:          0  itHIT:          0  itMISS:          0  dtACCESS:          0  dtHIT:          0  dtMISS:          0
cpu0_STLB TRANSLATION  ACCESS:          0  HIT:          0  MISS:          0  iACCESS:          0  iHIT:          0  iMISS:          0  dACCESS:          0  dHIT:          0  dMISS:          0  itACCESS:          0  itHIT:          0  itMISS:          0  dtACCESS:          0  dtHIT:          0  dtMISS:          0
cpu0_STLB PREFETCH  REQUESTED:          0  ISSUED:          0  CROSSED:          0  USEFUL:          0  USELESS:          0
cpu0_STLB AVERAGE iMISS LATENCY: 52.8936 cycles
cpu0_STLB AVERAGE dMISS LATENCY: 191.829 cycles
cpu0_STLB AVERAGE itMISS LATENCY: 0 cycles
cpu0_STLB AVERAGE dtMISS LATENCY: 0 cycles
cpu0_STLB PAGE CROSSINGS (TLB HIT):         0 
cpu0_STLB PAGE CROSSINGS (TLB MISS):         0 
cpu0_STLB AVERAGE MISS LATENCY: 244.723 cycles
cpu0_L1D TOTAL       ACCESS:   44741777  HIT:   39286695  MISS:    5455082  iACCESS:          0  iHIT:          0  iMISS:          0  dACCESS:   44165638  dHIT:   39250525  dMISS:    4915113  itACCESS:     137913  itHIT:      14599  itMISS:     123314  dtACCESS:     438226  dtHIT:      21571  dtMISS:     416655
cpu0_L1D LOAD         ACCESS:   20105221  HIT:   17914989  MISS:    2190232  iACCESS:          0  iHIT:          0  iMISS:          0  dACCESS:   20105221  dHIT:   17914989  dMISS:    2190232  itACCESS:          0  itHIT:          0  itMISS:          0  dtACCESS:          0  dtHIT:          0  dtMISS:          0
cpu0_L1D RFO          ACCESS:          0  HIT:          0  MISS:          0  iACCESS:          0  iHIT:          0  iMISS:          0  dACCESS:          0  dHIT:          0  dMISS:          0  itACCESS:          0  itHIT:          0  itMISS:          0  dtACCESS:          0  dtHIT:          0  dtMISS:          0
cpu0_L1D PREFETCH     ACCESS:   13832732  HIT:   11697222  MISS:    2135510  iACCESS:          0  iHIT:          0  iMISS:          0  dACCESS:   13832732  dHIT:   11697222  dMISS:    2135510  itACCESS:          0  itHIT:          0  itMISS:          0  dtACCESS:          0  dtHIT:          0  dtMISS:          0
cpu0_L1D WRITE        ACCESS:   10227685  HIT:    9638314  MISS:     589371  iACCESS:          0  iHIT:          0  iMISS:          0  dACCESS:   10227685  dHIT:    9638314  dMISS:     589371  itACCESS:          0  itHIT:          0  itMISS:          0  dtACCESS:          0  dtHIT:          0  dtMISS:          0
cpu0_L1D TRANSLATION  ACCESS:     576139  HIT:      36170  MISS:     539969  iACCESS:          0  iHIT:          0  iMISS:          0  dACCESS:          0  dHIT:          0  dMISS:          0  itACCESS:     137913  itHIT:      14599  itMISS:     123314  dtACCESS:     438226  dtHIT:      21571  dtMISS:     416655
cpu0_L1D PREFETCH  REQUESTED:   20105221  ISSUED:   18482158  CROSSED:          0  USEFUL:     354183  USELESS:     944737
cpu0_L1D AVERAGE iMISS LATENCY: 0 cycles
cpu0_L1D AVERAGE dMISS LATENCY: 52.5278 cycles
cpu0_L1D AVERAGE itMISS LATENCY: 3.61973 cycles
cpu0_L1D AVERAGE dtMISS LATENCY: 12.8518 cycles
cpu0_L1D PAGE CROSSINGS (TLB HIT):         0 
cpu0_L1D PAGE CROSSINGS (TLB MISS):         0 
cpu0_L1D AVERAGE MISS LATENCY: 68.9992 cycles
cpu0_L2C TOTAL       ACCESS:    8670357  HIT:    4051381  MISS:    4618976  iACCESS:    3825579  iHIT:    2231549  iMISS:    1594030  dACCESS:    4332564  dHIT:    1753850  dMISS:    2578714  itACCESS:     122345  itHIT:      21389  itMISS:     100956  dtACCESS:     389869  dtHIT:      44593  dtMISS:     345276
cpu0_L2C LOAD         ACCESS:    2082754  HIT:     981623  MISS:    1101131  iACCESS:     862313  iHIT:     526757  iMISS:     335556  dACCESS:    1220441  dHIT:     454866  dMISS:     765575  itACCESS:          0  itHIT:          0  itMISS:          0  dtACCESS:          0  dtHIT:          0  dtMISS:          0
cpu0_L2C RFO          ACCESS:     220927  HIT:      79668  MISS:     141259  iACCESS:          0  iHIT:          0  iMISS:          0  dACCESS:     220927  dHIT:      79668  dMISS:     141259  itACCESS:          0  itHIT:          0  itMISS:          0  dtACCESS:          0  dtHIT:          0  dtMISS:          0
cpu0_L2C PREFETCH     ACCESS:    5507109  HIT:    2591531  MISS:    2915578  iACCESS:    2963266  iHIT:    1704792  iMISS:    1258474  dACCESS:    2543843  dHIT:     886739  dMISS:    1657104  itACCESS:          0  itHIT:          0  itMISS:          0  dtACCESS:          0  dtHIT:          0  dtMISS:          0
cpu0_L2C WRITE        ACCESS:     347353  HIT:     332577  MISS:      14776  iACCESS:          0  iHIT:          0  iMISS:          0  dACCESS:     347353  dHIT:     332577  dMISS:      14776  itACCESS:          0  itHIT:          0  itMISS:          0  dtACCESS:          0  dtHIT:          0  dtMISS:          0
cpu0_L2C TRANSLATION  ACCESS:     512214  HIT:      65982  MISS:     446232  iACCESS:          0  iHIT:          0  iMISS:          0  dACCESS:          0  dHIT:          0  dMISS:          0  itACCESS:     122345  itHIT:      21389  itMISS:     100956  dtACCESS:     389869  dtHIT:      44593  dtMISS:     345276
cpu0_L2C PREFETCH  REQUESTED:    1481554  ISSUED:    1481549  CROSSED:          0  USEFUL:     352426  USELESS:     332025
cpu0_L2C AVERAGE iMISS LATENCY: 40.1654 cycles
cpu0_L2C AVERAGE dMISS LATENCY: 76.9955 cycles
cpu0_L2C AVERAGE itMISS LATENCY: 4.0139 cycles
cpu0_L2C AVERAGE dtMISS LATENCY: 14.3389 cycles
cpu0_L2C PAGE CROSSINGS (TLB HIT):         0 
cpu0_L2C PAGE CROSSINGS (TLB MISS):         0 
cpu0_L2C AVERAGE MISS LATENCY: 135.514 cycles
LLC TOTAL       ACCESS:    4608916  HIT:    1463234  MISS:    3145682  iACCESS:    1502415  iHIT:     517818  iMISS:     984597  dACCESS:    2660269  dHIT:     900184  dMISS:    1760085  itACCESS:     100956  itHIT:       8355  itMISS:      92601  dtACCESS:     345276  dtHIT:      36877  dtMISS:     308399
LLC LOAD         ACCESS:    1095164  HIT:     368805  MISS:     726359  iACCESS:     334291  iHIT:     124356  iMISS:     209935  dACCESS:     760873  dHIT:     244449  dMISS:     516424  itACCESS:          0  itHIT:          0  itMISS:          0  dtACCESS:          0  dtHIT:          0  dtMISS:          0
LLC RFO          ACCESS:     141251  HIT:      44055  MISS:      97196  iACCESS:          0  iHIT:          0  iMISS:          0  dACCESS:     141251  dHIT:      44055  dMISS:      97196  itACCESS:          0  itHIT:          0  itMISS:          0  dtACCESS:          0  dtHIT:          0  dtMISS:          0
LLC PREFETCH     ACCESS:    2708558  HIT:     797899  MISS:    1910659  iACCESS:    1168124  iHIT:     393462  iMISS:     774662  dACCESS:    1540434  dHIT:     404437  dMISS:    1135997  itACCESS:          0  itHIT:          0  itMISS:          0  dtACCESS:          0  dtHIT:          0  dtMISS:          0
LLC WRITE        ACCESS:     217711  HIT:     207243  MISS:      10468  iACCESS:          0  iHIT:          0  iMISS:          0  dACCESS:     217711  dHIT:     207243  dMISS:      10468  itACCESS:          0  itHIT:          0  itMISS:          0  dtACCESS:          0  dtHIT:          0  dtMISS:          0
LLC TRANSLATION  ACCESS:     446232  HIT:      45232  MISS:     401000  iACCESS:          0  iHIT:          0  iMISS:          0  dACCESS:          0  dHIT:          0  dMISS:          0  itACCESS:     100956  itHIT:       8355  itMISS:      92601  dtACCESS:     345276  dtHIT:      36877  dtMISS:     308399
LLC PREFETCH  REQUESTED:          0  ISSUED:          0  CROSSED:          0  USEFUL:          0  USELESS:          0
LLC AVERAGE iMISS LATENCY: 49.5772 cycles
LLC AVERAGE dMISS LATENCY: 98.3879 cycles
LLC AVERAGE itMISS LATENCY: 5.25749 cycles
LLC AVERAGE dtMISS LATENCY: 18.8848 cycles
LLC PAGE CROSSINGS (TLB HIT):         0 
LLC PAGE CROSSINGS (TLB MISS):         0 
LLC AVERAGE MISS LATENCY: 172.108 cycles

PageTableWalker TOTAL       ACCESS:     147011  
PageTableWalker AVERAGE LATENCY: 6.39804 cycles
PageTableWalker TOTAL LATENCY: 940581 cycles

DRAM Statistics
Channel 0
 RQ ROW_BUFFER_HIT:     655392
  ROW_BUFFER_MISS:    2469135
 AVG DBUS CONGESTED CYCLE:    3.64811
 WQ ROW_BUFFER_HIT:      67971
  ROW_BUFFER_MISS:      59901  FULL:          0

