last_page:0x200000000000000
VMEM_RES_CAP:0x100000
PAGE_SIZE:4096
LOG2_PAGE_SIZE:12
LOG2_PAGE_TABLE_SIZE:9
page_table_levels:5
WARNING: physical memory size is smaller than virtual memory size
FDiP enabled with aggresivity 16

*** ChampSim Multicore Out-of-Order Simulator ***

Warmup Instructions: 50000000
Simulation Instructions: 100000000
Number of CPUs: 1
Small page size: 4096
Large page size: 2097152

CPU 0 Bimodal branch predictor
Basic BTB sets: 1024 ways: 8 indirect buffer size: 4096 RAS size: 64
Instruction page size distrubution: 0
Loading instruction page size distribution from /home/bsc/bsc018186/scratch/itp_asplos25_AE/dump/smt_srv12_ap_srv582_ap_1024i.pdst
Data page size distrubution: 0
Loading data page size distribution from /home/bsc/bsc018186/scratch/itp_asplos25_AE/dump/smt_srv12_ap_srv582_ap_1024i.pdst
cpu0_L2C IP-based stride prefetcher
cpu0_L1D next line prefetcher
cpu0_L1I next line prefetcher
Off-chip DRAM Size: 4 GiB Channels: 1 Width: 64-bit Data Rate: 3200 MT/s
Heartbeat CPU 0 instructions: 10000003 cycles: 2500367 heartbeat IPC: 3.99942 cumulative IPC: 3.99942 (Simulation time: 0 hr 0 min 46 sec) 
Heartbeat CPU 0 instructions: 20000002 cycles: 5000622 heartbeat IPC: 3.9996 cumulative IPC: 3.99951 (Simulation time: 0 hr 1 min 33 sec) 
Heartbeat CPU 0 instructions: 30000000 cycles: 7501573 heartbeat IPC: 3.99848 cumulative IPC: 3.99917 (Simulation time: 0 hr 2 min 19 sec) 
Heartbeat CPU 0 instructions: 40000002 cycles: 10001866 heartbeat IPC: 3.99954 cumulative IPC: 3.99926 (Simulation time: 0 hr 3 min 7 sec) 
Heartbeat CPU 0 instructions: 50000002 cycles: 12502059 heartbeat IPC: 3.9997 cumulative IPC: 3.99935 (Simulation time: 0 hr 3 min 55 sec) 
Warmup finished CPU 0 instructions: 50000002 cycles: 12502060 cumulative IPC: 3.99935 (Simulation time: 0 hr 3 min 55 sec) 

Warmup complete CPU 0 instructions: 50000002 cycles: 12502060 (Simulation time: 0 hr 3 min 55 sec) 

Heartbeat CPU 0 instructions: 60000002 cycles: 44442456 heartbeat IPC: 0.313084 cumulative IPC: 0.313084 (Simulation time: 0 hr 5 min 39 sec) 
Heartbeat CPU 0 instructions: 70000000 cycles: 76124982 heartbeat IPC: 0.315632 cumulative IPC: 0.314353 (Simulation time: 0 hr 7 min 19 sec) 
Heartbeat CPU 0 instructions: 80000001 cycles: 107131705 heartbeat IPC: 0.322511 cumulative IPC: 0.317026 (Simulation time: 0 hr 9 min 1 sec) 
Heartbeat CPU 0 instructions: 90000001 cycles: 135147906 heartbeat IPC: 0.356937 cumulative IPC: 0.326143 (Simulation time: 0 hr 10 min 36 sec) 
Heartbeat CPU 0 instructions: 100000000 cycles: 166623752 heartbeat IPC: 0.317704 cumulative IPC: 0.324419 (Simulation time: 0 hr 12 min 17 sec) 
Heartbeat CPU 0 instructions: 110000004 cycles: 197076223 heartbeat IPC: 0.328381 cumulative IPC: 0.325073 (Simulation time: 0 hr 13 min 57 sec) 
Heartbeat CPU 0 instructions: 120000002 cycles: 227818064 heartbeat IPC: 0.32529 cumulative IPC: 0.325104 (Simulation time: 0 hr 15 min 29 sec) 
Heartbeat CPU 0 instructions: 130000000 cycles: 259249255 heartbeat IPC: 0.318156 cumulative IPC: 0.324219 (Simulation time: 0 hr 17 min 7 sec) 
Heartbeat CPU 0 instructions: 140000000 cycles: 290581345 heartbeat IPC: 0.319162 cumulative IPC: 0.323649 (Simulation time: 0 hr 18 min 42 sec) 
Heartbeat CPU 0 instructions: 150000002 cycles: 321214929 heartbeat IPC: 0.32644 cumulative IPC: 0.323926 (Simulation time: 0 hr 20 min 12 sec) 
Simulation finished CPU 0 instructions: 100000000 cycles: 308712870 cumulative IPC: 0.323926 (Simulation time: 0 hr 20 min 12 sec) 

Simulation complete CPU 0 instructions: 100000000 cycles: 308712870 (Simulation time: 0 hr 20 min 12 sec) 


ChampSim completed all CPUs

Saving instructions large page distribution to /home/bsc/bsc018186/scratch/itp_asplos25_AE/dump/smt_srv12_ap_srv582_ap_1024i.pdst...
Saving data large page distribution to /home/bsc/bsc018186/scratch/itp_asplos25_AE/dump/smt_srv12_ap_srv582_ap_1024i.pdst...
=== Simulation ===
CPU 0 runs /gpfs/projects/bsc18/MN4/bsc18/romol/ChampSim/traces/qualcomm_srv/smt_srv12_ap_srv582_ap_1024i.champsimtrace.xz

Region of Interest Statistics

CPU 0 cumulative IPC: 0.323926 instructions: 100000000 cycles: 308712870
CPU 0 Branch Prediction Accuracy: 74.5831% MPKI: 46.0686 Average ROB Occupancy at Mispredict: 10.4885
Branch type MPKI
BRANCH_DIRECT_JUMP: 1.46674
BRANCH_INDIRECT: 23.5042
BRANCH_CONDITIONAL: 13.5505
BRANCH_DIRECT_CALL: 2.81826
BRANCH_INDIRECT_CALL: 1.14928
BRANCH_RETURN: 3.57979

Instructions large pages: 0
Instructions small pages: 11403
Large page distribution for instructions: 0%

Data large pages: 0
Data small pages: 9565
Large page distribution for data: 0%

cpu0_L1I TOTAL       ACCESS:   39377618  HIT:   30663702  MISS:    8713916  iACCESS:   39377618  iHIT:   30663702  iMISS:    8713916  dACCESS:          0  dHIT:          0  dMISS:          0  itACCESS:          0  itHIT:          0  itMISS:          0  dtACCESS:          0  dtHIT:          0  dtMISS:          0
cpu0_L1I LOAD         ACCESS:   11728413  HIT:    9364105  MISS:    2364308  iACCESS:   11728413  iHIT:    9364105  iMISS:    2364308  dACCESS:          0  dHIT:          0  dMISS:          0  itACCESS:          0  itHIT:          0  itMISS:          0  dtACCESS:          0  dtHIT:          0  dtMISS:          0
cpu0_L1I RFO          ACCESS:          0  HIT:          0  MISS:          0  iACCESS:          0  iHIT:          0  iMISS:          0  dACCESS:          0  dHIT:          0  dMISS:          0  itACCESS:          0  itHIT:          0  itMISS:          0  dtACCESS:          0  dtHIT:          0  dtMISS:          0
cpu0_L1I PREFETCH     ACCESS:   27649205  HIT:   21299597  MISS:    6349608  iACCESS:   27649205  iHIT:   21299597  iMISS:    6349608  dACCESS:          0  dHIT:          0  dMISS:          0  itACCESS:          0  itHIT:          0  itMISS:          0  dtACCESS:          0  dtHIT:          0  dtMISS:          0
cpu0_L1I WRITE        ACCESS:          0  HIT:          0  MISS:          0  iACCESS:          0  iHIT:          0  iMISS:          0  dACCESS:          0  dHIT:          0  dMISS:          0  itACCESS:          0  itHIT:          0  itMISS:          0  dtACCESS:          0  dtHIT:          0  dtMISS:          0
cpu0_L1I TRANSLATION  ACCESS:          0  HIT:          0  MISS:          0  iACCESS:          0  iHIT:          0  iMISS:          0  dACCESS:          0  dHIT:          0  dMISS:          0  itACCESS:          0  itHIT:          0  itMISS:          0  dtACCESS:          0  dtHIT:          0  dtMISS:          0
cpu0_L1I PREFETCH  REQUESTED:   30428863  ISSUED:   30428827  CROSSED:          0  USEFUL:    2223963  USELESS:     779601
cpu0_L1I AVERAGE iMISS LATENCY: 25.183 cycles
cpu0_L1I AVERAGE dMISS LATENCY: 0 cycles
cpu0_L1I AVERAGE itMISS LATENCY: 0 cycles
cpu0_L1I AVERAGE dtMISS LATENCY: 0 cycles
cpu0_L1I PAGE CROSSINGS (TLB HIT):         0 
cpu0_L1I PAGE CROSSINGS (TLB MISS):         0 
cpu0_L1I AVERAGE MISS LATENCY: 25.183 cycles
cpu0_ITLB TOTAL       ACCESS:   33427226  HIT:   31167671  MISS:    2259555  iACCESS:   33427226  iHIT:   31167671  iMISS:    2259555  dACCESS:          0  dHIT:          0  dMISS:          0  itACCESS:          0  itHIT:          0  itMISS:          0  dtACCESS:          0  dtHIT:          0  dtMISS:          0
cpu0_ITLB LOAD         ACCESS:   33427226  HIT:   31167671  MISS:    2259555  iACCESS:   33427226  iHIT:   31167671  iMISS:    2259555  dACCESS:          0  dHIT:          0  dMISS:          0  itACCESS:          0  itHIT:          0  itMISS:          0  dtACCESS:          0  dtHIT:          0  dtMISS:          0
cpu0_ITLB RFO          ACCESS:          0  HIT:          0  MISS:          0  iACCESS:          0  iHIT:          0  iMISS:          0  dACCESS:          0  dHIT:          0  dMISS:          0  itACCESS:          0  itHIT:          0  itMISS:          0  dtACCESS:          0  dtHIT:          0  dtMISS:          0
cpu0_ITLB PREFETCH     ACCESS:          0  HIT:          0  MISS:          0  iACCESS:          0  iHIT:          0  iMISS:          0  dACCESS:          0  dHIT:          0  dMISS:          0  itACCESS:          0  itHIT:          0  itMISS:          0  dtACCESS:          0  dtHIT:          0  dtMISS:          0
cpu0_ITLB WRITE        ACCESS:          0  HIT:          0  MISS:          0  iACCESS:          0  iHIT:          0  iMISS:          0  dACCESS:          0  dHIT:          0  dMISS:          0  itACCESS:          0  itHIT:          0  itMISS:          0  dtACCESS:          0  dtHIT:          0  dtMISS:          0
cpu0_ITLB TRANSLATION  ACCESS:          0  HIT:          0  MISS:          0  iACCESS:          0  iHIT:          0  iMISS:          0  dACCESS:          0  dHIT:          0  dMISS:          0  itACCESS:          0  itHIT:          0  itMISS:          0  dtACCESS:          0  dtHIT:          0  dtMISS:          0
cpu0_ITLB PREFETCH  REQUESTED:          0  ISSUED:          0  CROSSED:          0  USEFUL:     398470  USELESS:      81811
cpu0_ITLB AVERAGE iMISS LATENCY: 10.9518 cycles
cpu0_ITLB AVERAGE dMISS LATENCY: 0 cycles
cpu0_ITLB AVERAGE itMISS LATENCY: 0 cycles
cpu0_ITLB AVERAGE dtMISS LATENCY: 0 cycles
cpu0_ITLB PAGE CROSSINGS (TLB HIT):         0 
cpu0_ITLB PAGE CROSSINGS (TLB MISS):         0 
cpu0_ITLB AVERAGE MISS LATENCY: 10.9518 cycles
cpu0_DTLB TOTAL       ACCESS:   28982643  HIT:   25478948  MISS:    3503695  iACCESS:          0  iHIT:          0  iMISS:          0  dACCESS:   28982643  dHIT:   25478948  dMISS:    3503695  itACCESS:          0  itHIT:          0  itMISS:          0  dtACCESS:          0  dtHIT:          0  dtMISS:          0
cpu0_DTLB LOAD         ACCESS:   28982643  HIT:   25478948  MISS:    3503695  iACCESS:          0  iHIT:          0  iMISS:          0  dACCESS:   28982643  dHIT:   25478948  dMISS:    3503695  itACCESS:          0  itHIT:          0  itMISS:          0  dtACCESS:          0  dtHIT:          0  dtMISS:          0
cpu0_DTLB RFO          ACCESS:          0  HIT:          0  MISS:          0  iACCESS:          0  iHIT:          0  iMISS:          0  dACCESS:          0  dHIT:          0  dMISS:          0  itACCESS:          0  itHIT:          0  itMISS:          0  dtACCESS:          0  dtHIT:          0  dtMISS:          0
cpu0_DTLB PREFETCH     ACCESS:          0  HIT:          0  MISS:          0  iACCESS:          0  iHIT:          0  iMISS:          0  dACCESS:          0  dHIT:          0  dMISS:          0  itACCESS:          0  itHIT:          0  itMISS:          0  dtACCESS:          0  dtHIT:          0  dtMISS:          0
cpu0_DTLB WRITE        ACCESS:          0  HIT:          0  MISS:          0  iACCESS:          0  iHIT:          0  iMISS:          0  dACCESS:          0  dHIT:          0  dMISS:          0  itACCESS:          0  itHIT:          0  itMISS:          0  dtACCESS:          0  dtHIT:          0  dtMISS:          0
cpu0_DTLB TRANSLATION  ACCESS:          0  HIT:          0  MISS:          0  iACCESS:          0  iHIT:          0  iMISS:          0  dACCESS:          0  dHIT:          0  dMISS:          0  itACCESS:          0  itHIT:          0  itMISS:          0  dtACCESS:          0  dtHIT:          0  dtMISS:          0
cpu0_DTLB PREFETCH  REQUESTED:          0  ISSUED:          0  CROSSED:          0  USEFUL:          0  USELESS:          0
cpu0_DTLB AVERAGE iMISS LATENCY: 0 cycles
cpu0_DTLB AVERAGE dMISS LATENCY: 25.8317 cycles
cpu0_DTLB AVERAGE itMISS LATENCY: 0 cycles
cpu0_DTLB AVERAGE dtMISS LATENCY: 0 cycles
cpu0_DTLB PAGE CROSSINGS (TLB HIT):         0 
cpu0_DTLB PAGE CROSSINGS (TLB MISS):         0 
cpu0_DTLB AVERAGE MISS LATENCY: 25.8317 cycles
cpu0_STLB TOTAL       ACCESS:    2542873  HIT:    2161640  MISS:     381233  iACCESS:     480285  iHIT:     358998  iMISS:     121287  dACCESS:    2062588  dHIT:    1802642  dMISS:     259946  itACCESS:          0  itHIT:          0  itMISS:          0  dtACCESS:          0  dtHIT:          0  dtMISS:          0
cpu0_STLB LOAD         ACCESS:    2542873  HIT:    2161640  MISS:     381233  iACCESS:     480285  iHIT:     358998  iMISS:     121287  dACCESS:    2062588  dHIT:    1802642  dMISS:     259946  itACCESS:          0  itHIT:          0  itMISS:          0  dtACCESS:          0  dtHIT:          0  dtMISS:          0
cpu0_STLB RFO          ACCESS:          0  HIT:          0  MISS:          0  iACCESS:          0  iHIT:          0  iMISS:          0  dACCESS:          0  dHIT:          0  dMISS:          0  itACCESS:          0  itHIT:          0  itMISS:          0  dtACCESS:          0  dtHIT:          0  dtMISS:          0
cpu0_STLB PREFETCH     ACCESS:          0  HIT:          0  MISS:          0  iACCESS:          0  iHIT:          0  iMISS:          0  dACCESS:          0  dHIT:          0  dMISS:          0  itACCESS:          0  itHIT:          0  itMISS:          0  dtACCESS:          0  dtHIT:          0  dtMISS:          0
cpu0_STLB WRITE        ACCESS:          0  HIT:          0  MISS:          0  iACCESS:          0  iHIT:          0  iMISS:          0  dACCESS:          0  dHIT:          0  dMISS:          0  itACCESS:          0  itHIT:          0  itMISS:          0  dtACCESS:          0  dtHIT:          0  dtMISS:          0
cpu0_STLB TRANSLATION  ACCESS:          0  HIT:          0  MISS:          0  iACCESS:          0  iHIT:          0  iMISS:          0  dACCESS:          0  dHIT:          0  dMISS:          0  itACCESS:          0  itHIT:          0  itMISS:          0  dtACCESS:          0  dtHIT:          0  dtMISS:          0
cpu0_STLB PREFETCH  REQUESTED:          0  ISSUED:          0  CROSSED:          0  USEFUL:          0  USELESS:          0
cpu0_STLB AVERAGE iMISS LATENCY: 54.8178 cycles
cpu0_STLB AVERAGE dMISS LATENCY: 193.842 cycles
cpu0_STLB AVERAGE itMISS LATENCY: 0 cycles
cpu0_STLB AVERAGE dtMISS LATENCY: 0 cycles
cpu0_STLB PAGE CROSSINGS (TLB HIT):         0 
cpu0_STLB PAGE CROSSINGS (TLB MISS):         0 
cpu0_STLB AVERAGE MISS LATENCY: 248.659 cycles
cpu0_L1D TOTAL       ACCESS:   45204469  HIT:   39358381  MISS:    5846088  iACCESS:          0  iHIT:          0  iMISS:          0  dACCESS:   44638673  dHIT:   39324713  dMISS:    5313960  itACCESS:     136134  itHIT:      15354  itMISS:     120780  dtACCESS:     429662  dtHIT:      18314  dtMISS:     411348
cpu0_L1D LOAD         ACCESS:   20401332  HIT:   18022854  MISS:    2378478  iACCESS:          0  iHIT:          0  iMISS:          0  dACCESS:   20401332  dHIT:   18022854  dMISS:    2378478  itACCESS:          0  itHIT:          0  itMISS:          0  dtACCESS:          0  dtHIT:          0  dtMISS:          0
cpu0_L1D RFO          ACCESS:          0  HIT:          0  MISS:          0  iACCESS:          0  iHIT:          0  iMISS:          0  dACCESS:          0  dHIT:          0  dMISS:          0  itACCESS:          0  itHIT:          0  itMISS:          0  dtACCESS:          0  dtHIT:          0  dtMISS:          0
cpu0_L1D PREFETCH     ACCESS:   14060461  HIT:   11700356  MISS:    2360105  iACCESS:          0  iHIT:          0  iMISS:          0  dACCESS:   14060461  dHIT:   11700356  dMISS:    2360105  itACCESS:          0  itHIT:          0  itMISS:          0  dtACCESS:          0  dtHIT:          0  dtMISS:          0
cpu0_L1D WRITE        ACCESS:   10176880  HIT:    9601503  MISS:     575377  iACCESS:          0  iHIT:          0  iMISS:          0  dACCESS:   10176880  dHIT:    9601503  dMISS:     575377  itACCESS:          0  itHIT:          0  itMISS:          0  dtACCESS:          0  dtHIT:          0  dtMISS:          0
cpu0_L1D TRANSLATION  ACCESS:     565796  HIT:      33668  MISS:     532128  iACCESS:          0  iHIT:          0  iMISS:          0  dACCESS:          0  dHIT:          0  dMISS:          0  itACCESS:     136134  itHIT:      15354  itMISS:     120780  dtACCESS:     429662  dtHIT:      18314  dtMISS:     411348
cpu0_L1D PREFETCH  REQUESTED:   20401332  ISSUED:   18565714  CROSSED:          0  USEFUL:     361293  USELESS:     931419
cpu0_L1D AVERAGE iMISS LATENCY: 0 cycles
cpu0_L1D AVERAGE dMISS LATENCY: 49.6686 cycles
cpu0_L1D AVERAGE itMISS LATENCY: 3.36713 cycles
cpu0_L1D AVERAGE dtMISS LATENCY: 11.8239 cycles
cpu0_L1D PAGE CROSSINGS (TLB HIT):         0 
cpu0_L1D PAGE CROSSINGS (TLB MISS):         0 
cpu0_L1D AVERAGE MISS LATENCY: 64.8595 cycles
cpu0_L2C TOTAL       ACCESS:    8672481  HIT:    4172227  MISS:    4500254  iACCESS:    3816621  iHIT:    2290195  iMISS:    1526426  dACCESS:    4365516  dHIT:    1824178  dMISS:    2541338  itACCESS:     119686  itHIT:      20396  itMISS:      99290  dtACCESS:     370658  dtHIT:      37458  dtMISS:     333200
cpu0_L2C LOAD         ACCESS:    2056386  HIT:    1001027  MISS:    1055359  iACCESS:     850293  iHIT:     534407  iMISS:     315886  dACCESS:    1206093  dHIT:     466620  dMISS:     739473  itACCESS:          0  itHIT:          0  itMISS:          0  dtACCESS:          0  dtHIT:          0  dtMISS:          0
cpu0_L2C RFO          ACCESS:     215240  HIT:      79522  MISS:     135718  iACCESS:          0  iHIT:          0  iMISS:          0  dACCESS:     215240  dHIT:      79522  dMISS:     135718  itACCESS:          0  itHIT:          0  itMISS:          0  dtACCESS:          0  dtHIT:          0  dtMISS:          0
cpu0_L2C PREFETCH     ACCESS:    5570669  HIT:    2697474  MISS:    2873195  iACCESS:    2966328  iHIT:    1755788  iMISS:    1210540  dACCESS:    2604341  dHIT:     941686  dMISS:    1662655  itACCESS:          0  itHIT:          0  itMISS:          0  dtACCESS:          0  dtHIT:          0  dtMISS:          0
cpu0_L2C WRITE        ACCESS:     339842  HIT:     336350  MISS:       3492  iACCESS:          0  iHIT:          0  iMISS:          0  dACCESS:     339842  dHIT:     336350  dMISS:       3492  itACCESS:          0  itHIT:          0  itMISS:          0  dtACCESS:          0  dtHIT:          0  dtMISS:          0
cpu0_L2C TRANSLATION  ACCESS:     490344  HIT:      57854  MISS:     432490  iACCESS:          0  iHIT:          0  iMISS:          0  dACCESS:          0  dHIT:          0  dMISS:          0  itACCESS:     119686  itHIT:      20396  itMISS:      99290  dtACCESS:     370658  dtHIT:      37458  dtMISS:     333200
cpu0_L2C PREFETCH  REQUESTED:    1549057  ISSUED:    1549052  CROSSED:          0  USEFUL:     363649  USELESS:     333591
cpu0_L2C AVERAGE iMISS LATENCY: 41.6787 cycles
cpu0_L2C AVERAGE dMISS LATENCY: 80.7676 cycles
cpu0_L2C AVERAGE itMISS LATENCY: 4.11193 cycles
cpu0_L2C AVERAGE dtMISS LATENCY: 14.54 cycles
cpu0_L2C PAGE CROSSINGS (TLB HIT):         0 
cpu0_L2C PAGE CROSSINGS (TLB MISS):         0 
cpu0_L2C AVERAGE MISS LATENCY: 141.099 cycles
LLC TOTAL       ACCESS:    4482734  HIT:    1275048  MISS:    3207686  iACCESS:    1434217  iHIT:     418874  iMISS:    1015343  dACCESS:    2616027  dHIT:     818902  dMISS:    1797125  itACCESS:      99290  itHIT:       6888  itMISS:      92402  dtACCESS:     333200  dtHIT:      30384  dtMISS:     302816
LLC LOAD         ACCESS:    1048531  HIT:     314895  MISS:     733636  iACCESS:     314722  iHIT:      97706  iMISS:     217016  dACCESS:     733809  dHIT:     217189  dMISS:     516620  itACCESS:          0  itHIT:          0  itMISS:          0  dtACCESS:          0  dtHIT:          0  dtMISS:          0
LLC RFO          ACCESS:     135709  HIT:      39532  MISS:      96177  iACCESS:          0  iHIT:          0  iMISS:          0  dACCESS:     135709  dHIT:      39532  dMISS:      96177  itACCESS:          0  itHIT:          0  itMISS:          0  dtACCESS:          0  dtHIT:          0  dtMISS:          0
LLC PREFETCH     ACCESS:    2656449  HIT:     684331  MISS:    1972118  iACCESS:    1119495  iHIT:     321168  iMISS:     798327  dACCESS:    1536954  dHIT:     363163  dMISS:    1173791  itACCESS:          0  itHIT:          0  itMISS:          0  dtACCESS:          0  dtHIT:          0  dtMISS:          0
LLC WRITE        ACCESS:     209555  HIT:     199018  MISS:      10537  iACCESS:          0  iHIT:          0  iMISS:          0  dACCESS:     209555  dHIT:     199018  dMISS:      10537  itACCESS:          0  itHIT:          0  itMISS:          0  dtACCESS:          0  dtHIT:          0  dtMISS:          0
LLC TRANSLATION  ACCESS:     432490  HIT:      37272  MISS:     395218  iACCESS:          0  iHIT:          0  iMISS:          0  dACCESS:          0  dHIT:          0  dMISS:          0  itACCESS:      99290  itHIT:       6888  itMISS:      92402  dtACCESS:     333200  dtHIT:      30384  dtMISS:     302816
LLC PREFETCH  REQUESTED:          0  ISSUED:          0  CROSSED:          0  USEFUL:          0  USELESS:          0
LLC AVERAGE iMISS LATENCY: 49.6604 cycles
LLC AVERAGE dMISS LATENCY: 99.4406 cycles
LLC AVERAGE itMISS LATENCY: 5.15482 cycles
LLC AVERAGE dtMISS LATENCY: 18.3446 cycles
LLC PAGE CROSSINGS (TLB HIT):         0 
LLC PAGE CROSSINGS (TLB MISS):         0 
LLC AVERAGE MISS LATENCY: 172.601 cycles

PageTableWalker TOTAL       ACCESS:     187580  
PageTableWalker AVERAGE LATENCY: 6.50961 cycles
PageTableWalker TOTAL LATENCY: 1221071 cycles

DRAM Statistics
Channel 0
 RQ ROW_BUFFER_HIT:     685863
  ROW_BUFFER_MISS:    2491569
 AVG DBUS CONGESTED CYCLE:    3.65017
 WQ ROW_BUFFER_HIT:      67359
  ROW_BUFFER_MISS:      56201  FULL:          0

