last_page:0x200000000000000
VMEM_RES_CAP:0x100000
PAGE_SIZE:4096
LOG2_PAGE_SIZE:12
LOG2_PAGE_TABLE_SIZE:9
page_table_levels:5
WARNING: physical memory size is smaller than virtual memory size
FDiP enabled with aggresivity 16

*** ChampSim Multicore Out-of-Order Simulator ***

Warmup Instructions: 50000000
Simulation Instructions: 100000000
Number of CPUs: 1
Small page size: 4096
Large page size: 2097152

CPU 0 Bimodal branch predictor
Basic BTB sets: 1024 ways: 8 indirect buffer size: 4096 RAS size: 64
Instruction page size distrubution: 0
Loading instruction page size distribution from /home/bsc/bsc018186/scratch/itp_asplos25_AE/dump/smt_srv540_ap_srv551_ap_1024i.pdst
Data page size distrubution: 0
Loading data page size distribution from /home/bsc/bsc018186/scratch/itp_asplos25_AE/dump/smt_srv540_ap_srv551_ap_1024i.pdst
cpu0_L2C IP-based stride prefetcher
cpu0_L1D next line prefetcher
cpu0_STLB using iTP with max lru@8
cpu0_STLB using iTP with instr@0 and data@2
Init sat counter with 3 bits (max:50).
cpu0_L1I next line prefetcher
Off-chip DRAM Size: 4 GiB Channels: 1 Width: 64-bit Data Rate: 3200 MT/s
Heartbeat CPU 0 instructions: 10000000 cycles: 2500373 heartbeat IPC: 3.99941 cumulative IPC: 3.99941 (Simulation time: 0 hr 0 min 39 sec) 
Heartbeat CPU 0 instructions: 20000003 cycles: 5000494 heartbeat IPC: 3.99981 cumulative IPC: 3.99961 (Simulation time: 0 hr 1 min 20 sec) 
Heartbeat CPU 0 instructions: 30000001 cycles: 7500587 heartbeat IPC: 3.99986 cumulative IPC: 3.99969 (Simulation time: 0 hr 2 min 2 sec) 
Heartbeat CPU 0 instructions: 40000000 cycles: 10000698 heartbeat IPC: 3.99983 cumulative IPC: 3.99973 (Simulation time: 0 hr 2 min 43 sec) 
Heartbeat CPU 0 instructions: 50000003 cycles: 12500761 heartbeat IPC: 3.99991 cumulative IPC: 3.99976 (Simulation time: 0 hr 3 min 26 sec) 
Warmup finished CPU 0 instructions: 50000003 cycles: 12500762 cumulative IPC: 3.99976 (Simulation time: 0 hr 3 min 26 sec) 

Warmup complete CPU 0 instructions: 50000003 cycles: 12500762 (Simulation time: 0 hr 3 min 26 sec) 

Heartbeat CPU 0 instructions: 60000000 cycles: 42603647 heartbeat IPC: 0.332194 cumulative IPC: 0.332194 (Simulation time: 0 hr 4 min 52 sec) 
Heartbeat CPU 0 instructions: 70000000 cycles: 73272917 heartbeat IPC: 0.32606 cumulative IPC: 0.329099 (Simulation time: 0 hr 6 min 18 sec) 
Heartbeat CPU 0 instructions: 80000002 cycles: 103620534 heartbeat IPC: 0.329516 cumulative IPC: 0.329237 (Simulation time: 0 hr 7 min 45 sec) 
Heartbeat CPU 0 instructions: 90000000 cycles: 133701186 heartbeat IPC: 0.33244 cumulative IPC: 0.330032 (Simulation time: 0 hr 9 min 11 sec) 
Heartbeat CPU 0 instructions: 100000003 cycles: 164876413 heartbeat IPC: 0.320768 cumulative IPC: 0.328137 (Simulation time: 0 hr 10 min 39 sec) 
Heartbeat CPU 0 instructions: 110000000 cycles: 193847822 heartbeat IPC: 0.345168 cumulative IPC: 0.330858 (Simulation time: 0 hr 12 min 4 sec) 
Heartbeat CPU 0 instructions: 120000002 cycles: 219929153 heartbeat IPC: 0.383417 cumulative IPC: 0.337466 (Simulation time: 0 hr 13 min 26 sec) 
Heartbeat CPU 0 instructions: 130000000 cycles: 236458075 heartbeat IPC: 0.605001 cumulative IPC: 0.357211 (Simulation time: 0 hr 14 min 35 sec) 
Heartbeat CPU 0 instructions: 140000002 cycles: 253806703 heartbeat IPC: 0.576415 cumulative IPC: 0.372971 (Simulation time: 0 hr 15 min 43 sec) 
Heartbeat CPU 0 instructions: 150000001 cycles: 284605364 heartbeat IPC: 0.32469 cumulative IPC: 0.367506 (Simulation time: 0 hr 17 min 8 sec) 
Simulation finished CPU 0 instructions: 100000003 cycles: 272104604 cumulative IPC: 0.367506 (Simulation time: 0 hr 17 min 8 sec) 

Simulation complete CPU 0 instructions: 100000003 cycles: 272104604 (Simulation time: 0 hr 17 min 8 sec) 


ChampSim completed all CPUs

Saving instructions large page distribution to /home/bsc/bsc018186/scratch/itp_asplos25_AE/dump/smt_srv540_ap_srv551_ap_1024i.pdst...
Saving data large page distribution to /home/bsc/bsc018186/scratch/itp_asplos25_AE/dump/smt_srv540_ap_srv551_ap_1024i.pdst...
=== Simulation ===
CPU 0 runs /gpfs/projects/bsc18/MN4/bsc18/romol/ChampSim/traces/qualcomm_srv/smt_srv540_ap_srv551_ap_1024i.champsimtrace.xz

Region of Interest Statistics

CPU 0 cumulative IPC: 0.367506 instructions: 100000003 cycles: 272104604
CPU 0 Branch Prediction Accuracy: 77.9969% MPKI: 42.4508 Average ROB Occupancy at Mispredict: 11.3888
Branch type MPKI
BRANCH_DIRECT_JUMP: 1.23399
BRANCH_INDIRECT: 22.826
BRANCH_CONDITIONAL: 11.6402
BRANCH_DIRECT_CALL: 2.36679
BRANCH_INDIRECT_CALL: 1.07038
BRANCH_RETURN: 3.31346

Instructions large pages: 0
Instructions small pages: 10131
Large page distribution for instructions: 0%

Data large pages: 0
Data small pages: 8688
Large page distribution for data: 0%

cpu0_L1I TOTAL       ACCESS:   39684388  HIT:   32014207  MISS:    7670181  iACCESS:   39684388  iHIT:   32014207  iMISS:    7670181  dACCESS:          0  dHIT:          0  dMISS:          0  itACCESS:          0  itHIT:          0  itMISS:          0  dtACCESS:          0  dtHIT:          0  dtMISS:          0
cpu0_L1I LOAD         ACCESS:   11328632  HIT:    9242095  MISS:    2086537  iACCESS:   11328632  iHIT:    9242095  iMISS:    2086537  dACCESS:          0  dHIT:          0  dMISS:          0  itACCESS:          0  itHIT:          0  itMISS:          0  dtACCESS:          0  dtHIT:          0  dtMISS:          0
cpu0_L1I RFO          ACCESS:          0  HIT:          0  MISS:          0  iACCESS:          0  iHIT:          0  iMISS:          0  dACCESS:          0  dHIT:          0  dMISS:          0  itACCESS:          0  itHIT:          0  itMISS:          0  dtACCESS:          0  dtHIT:          0  dtMISS:          0
cpu0_L1I PREFETCH     ACCESS:   28355756  HIT:   22772112  MISS:    5583644  iACCESS:   28355756  iHIT:   22772112  iMISS:    5583644  dACCESS:          0  dHIT:          0  dMISS:          0  itACCESS:          0  itHIT:          0  itMISS:          0  dtACCESS:          0  dtHIT:          0  dtMISS:          0
cpu0_L1I WRITE        ACCESS:          0  HIT:          0  MISS:          0  iACCESS:          0  iHIT:          0  iMISS:          0  dACCESS:          0  dHIT:          0  dMISS:          0  itACCESS:          0  itHIT:          0  itMISS:          0  dtACCESS:          0  dtHIT:          0  dtMISS:          0
cpu0_L1I TRANSLATION  ACCESS:          0  HIT:          0  MISS:          0  iACCESS:          0  iHIT:          0  iMISS:          0  dACCESS:          0  dHIT:          0  dMISS:          0  itACCESS:          0  itHIT:          0  itMISS:          0  dtACCESS:          0  dtHIT:          0  dtMISS:          0
cpu0_L1I PREFETCH  REQUESTED:   31038891  ISSUED:   31038727  CROSSED:          0  USEFUL:    1958765  USELESS:     678872
cpu0_L1I AVERAGE iMISS LATENCY: 24.4708 cycles
cpu0_L1I AVERAGE dMISS LATENCY: 0 cycles
cpu0_L1I AVERAGE itMISS LATENCY: 0 cycles
cpu0_L1I AVERAGE dtMISS LATENCY: 0 cycles
cpu0_L1I PAGE CROSSINGS (TLB HIT):         0 
cpu0_L1I PAGE CROSSINGS (TLB MISS):         0 
cpu0_L1I AVERAGE MISS LATENCY: 24.4708 cycles
cpu0_ITLB TOTAL       ACCESS:   33395550  HIT:   31423909  MISS:    1971641  iACCESS:   33395550  iHIT:   31423909  iMISS:    1971641  dACCESS:          0  dHIT:          0  dMISS:          0  itACCESS:          0  itHIT:          0  itMISS:          0  dtACCESS:          0  dtHIT:          0  dtMISS:          0
cpu0_ITLB LOAD         ACCESS:   33395550  HIT:   31423909  MISS:    1971641  iACCESS:   33395550  iHIT:   31423909  iMISS:    1971641  dACCESS:          0  dHIT:          0  dMISS:          0  itACCESS:          0  itHIT:          0  itMISS:          0  dtACCESS:          0  dtHIT:          0  dtMISS:          0
cpu0_ITLB RFO          ACCESS:          0  HIT:          0  MISS:          0  iACCESS:          0  iHIT:          0  iMISS:          0  dACCESS:          0  dHIT:          0  dMISS:          0  itACCESS:          0  itHIT:          0  itMISS:          0  dtACCESS:          0  dtHIT:          0  dtMISS:          0
cpu0_ITLB PREFETCH     ACCESS:          0  HIT:          0  MISS:          0  iACCESS:          0  iHIT:          0  iMISS:          0  dACCESS:          0  dHIT:          0  dMISS:          0  itACCESS:          0  itHIT:          0  itMISS:          0  dtACCESS:          0  dtHIT:          0  dtMISS:          0
cpu0_ITLB WRITE        ACCESS:          0  HIT:          0  MISS:          0  iACCESS:          0  iHIT:          0  iMISS:          0  dACCESS:          0  dHIT:          0  dMISS:          0  itACCESS:          0  itHIT:          0  itMISS:          0  dtACCESS:          0  dtHIT:          0  dtMISS:          0
cpu0_ITLB TRANSLATION  ACCESS:          0  HIT:          0  MISS:          0  iACCESS:          0  iHIT:          0  iMISS:          0  dACCESS:          0  dHIT:          0  dMISS:          0  itACCESS:          0  itHIT:          0  itMISS:          0  dtACCESS:          0  dtHIT:          0  dtMISS:          0
cpu0_ITLB PREFETCH  REQUESTED:          0  ISSUED:          0  CROSSED:          0  USEFUL:     345213  USELESS:      70962
cpu0_ITLB AVERAGE iMISS LATENCY: 6.70213 cycles
cpu0_ITLB AVERAGE dMISS LATENCY: 0 cycles
cpu0_ITLB AVERAGE itMISS LATENCY: 0 cycles
cpu0_ITLB AVERAGE dtMISS LATENCY: 0 cycles
cpu0_ITLB PAGE CROSSINGS (TLB HIT):         0 
cpu0_ITLB PAGE CROSSINGS (TLB MISS):         0 
cpu0_ITLB AVERAGE MISS LATENCY: 6.70213 cycles
cpu0_DTLB TOTAL       ACCESS:   30721248  HIT:   24553067  MISS:    6168181  iACCESS:          0  iHIT:          0  iMISS:          0  dACCESS:   30721248  dHIT:   24553067  dMISS:    6168181  itACCESS:          0  itHIT:          0  itMISS:          0  dtACCESS:          0  dtHIT:          0  dtMISS:          0
cpu0_DTLB LOAD         ACCESS:   30721248  HIT:   24553067  MISS:    6168181  iACCESS:          0  iHIT:          0  iMISS:          0  dACCESS:   30721248  dHIT:   24553067  dMISS:    6168181  itACCESS:          0  itHIT:          0  itMISS:          0  dtACCESS:          0  dtHIT:          0  dtMISS:          0
cpu0_DTLB RFO          ACCESS:          0  HIT:          0  MISS:          0  iACCESS:          0  iHIT:          0  iMISS:          0  dACCESS:          0  dHIT:          0  dMISS:          0  itACCESS:          0  itHIT:          0  itMISS:          0  dtACCESS:          0  dtHIT:          0  dtMISS:          0
cpu0_DTLB PREFETCH     ACCESS:          0  HIT:          0  MISS:          0  iACCESS:          0  iHIT:          0  iMISS:          0  dACCESS:          0  dHIT:          0  dMISS:          0  itACCESS:          0  itHIT:          0  itMISS:          0  dtACCESS:          0  dtHIT:          0  dtMISS:          0
cpu0_DTLB WRITE        ACCESS:          0  HIT:          0  MISS:          0  iACCESS:          0  iHIT:          0  iMISS:          0  dACCESS:          0  dHIT:          0  dMISS:          0  itACCESS:          0  itHIT:          0  itMISS:          0  dtACCESS:          0  dtHIT:          0  dtMISS:          0
cpu0_DTLB TRANSLATION  ACCESS:          0  HIT:          0  MISS:          0  iACCESS:          0  iHIT:          0  iMISS:          0  dACCESS:          0  dHIT:          0  dMISS:          0  itACCESS:          0  itHIT:          0  itMISS:          0  dtACCESS:          0  dtHIT:          0  dtMISS:          0
cpu0_DTLB PREFETCH  REQUESTED:          0  ISSUED:          0  CROSSED:          0  USEFUL:          0  USELESS:          0
cpu0_DTLB AVERAGE iMISS LATENCY: 0 cycles
cpu0_DTLB AVERAGE dMISS LATENCY: 15.7395 cycles
cpu0_DTLB AVERAGE itMISS LATENCY: 0 cycles
cpu0_DTLB AVERAGE dtMISS LATENCY: 0 cycles
cpu0_DTLB PAGE CROSSINGS (TLB HIT):         0 
cpu0_DTLB PAGE CROSSINGS (TLB MISS):         0 
cpu0_DTLB AVERAGE MISS LATENCY: 15.7395 cycles
cpu0_STLB TOTAL       ACCESS:    3670997  HIT:    3349735  MISS:     321262  iACCESS:     416179  iHIT:     364042  iMISS:      52137  dACCESS:    3254818  dHIT:    2985693  dMISS:     269125  itACCESS:          0  itHIT:          0  itMISS:          0  dtACCESS:          0  dtHIT:          0  dtMISS:          0
cpu0_STLB LOAD         ACCESS:    3670997  HIT:    3349735  MISS:     321262  iACCESS:     416179  iHIT:     364042  iMISS:      52137  dACCESS:    3254818  dHIT:    2985693  dMISS:     269125  itACCESS:          0  itHIT:          0  itMISS:          0  dtACCESS:          0  dtHIT:          0  dtMISS:          0
cpu0_STLB RFO          ACCESS:          0  HIT:          0  MISS:          0  iACCESS:          0  iHIT:          0  iMISS:          0  dACCESS:          0  dHIT:          0  dMISS:          0  itACCESS:          0  itHIT:          0  itMISS:          0  dtACCESS:          0  dtHIT:          0  dtMISS:          0
cpu0_STLB PREFETCH     ACCESS:          0  HIT:          0  MISS:          0  iACCESS:          0  iHIT:          0  iMISS:          0  dACCESS:          0  dHIT:          0  dMISS:          0  itACCESS:          0  itHIT:          0  itMISS:          0  dtACCESS:          0  dtHIT:          0  dtMISS:          0
cpu0_STLB WRITE        ACCESS:          0  HIT:          0  MISS:          0  iACCESS:          0  iHIT:          0  iMISS:          0  dACCESS:          0  dHIT:          0  dMISS:          0  itACCESS:          0  itHIT:          0  itMISS:          0  dtACCESS:          0  dtHIT:          0  dtMISS:          0
cpu0_STLB TRANSLATION  ACCESS:          0  HIT:          0  MISS:          0  iACCESS:          0  iHIT:          0  iMISS:          0  dACCESS:          0  dHIT:          0  dMISS:          0  itACCESS:          0  itHIT:          0  itMISS:          0  dtACCESS:          0  dtHIT:          0  dtMISS:          0
cpu0_STLB PREFETCH  REQUESTED:          0  ISSUED:          0  CROSSED:          0  USEFUL:          0  USELESS:          0
cpu0_STLB AVERAGE iMISS LATENCY: 30.938 cycles
cpu0_STLB AVERAGE dMISS LATENCY: 220.111 cycles
cpu0_STLB AVERAGE itMISS LATENCY: 0 cycles
cpu0_STLB AVERAGE dtMISS LATENCY: 0 cycles
cpu0_STLB PAGE CROSSINGS (TLB HIT):         0 
cpu0_STLB PAGE CROSSINGS (TLB MISS):         0 
cpu0_STLB AVERAGE MISS LATENCY: 251.049 cycles
cpu0_L1D TOTAL       ACCESS:   47683801  HIT:   39401865  MISS:    8281936  iACCESS:          0  iHIT:          0  iMISS:          0  dACCESS:   47198451  dHIT:   39377318  dMISS:    7821133  itACCESS:      60843  itHIT:       4488  itMISS:      56355  dtACCESS:     424507  dtHIT:      20059  dtMISS:     404448
cpu0_L1D LOAD         ACCESS:   22695141  HIT:   18290211  MISS:    4404930  iACCESS:          0  iHIT:          0  iMISS:          0  dACCESS:   22695141  dHIT:   18290211  dMISS:    4404930  itACCESS:          0  itHIT:          0  itMISS:          0  dtACCESS:          0  dtHIT:          0  dtMISS:          0
cpu0_L1D RFO          ACCESS:          0  HIT:          0  MISS:          0  iACCESS:          0  iHIT:          0  iMISS:          0  dACCESS:          0  dHIT:          0  dMISS:          0  itACCESS:          0  itHIT:          0  itMISS:          0  dtACCESS:          0  dtHIT:          0  dtMISS:          0
cpu0_L1D PREFETCH     ACCESS:   14729626  HIT:   11876087  MISS:    2853539  iACCESS:          0  iHIT:          0  iMISS:          0  dACCESS:   14729626  dHIT:   11876087  dMISS:    2853539  itACCESS:          0  itHIT:          0  itMISS:          0  dtACCESS:          0  dtHIT:          0  dtMISS:          0
cpu0_L1D WRITE        ACCESS:    9773684  HIT:    9211020  MISS:     562664  iACCESS:          0  iHIT:          0  iMISS:          0  dACCESS:    9773684  dHIT:    9211020  dMISS:     562664  itACCESS:          0  itHIT:          0  itMISS:          0  dtACCESS:          0  dtHIT:          0  dtMISS:          0
cpu0_L1D TRANSLATION  ACCESS:     485350  HIT:      24547  MISS:     460803  iACCESS:          0  iHIT:          0  iMISS:          0  dACCESS:          0  dHIT:          0  dMISS:          0  itACCESS:      60843  itHIT:       4488  itMISS:      56355  dtACCESS:     424507  dtHIT:      20059  dtMISS:     404448
cpu0_L1D PREFETCH  REQUESTED:   22695141  ISSUED:   18846577  CROSSED:          0  USEFUL:     326954  USELESS:    1177161
cpu0_L1D AVERAGE iMISS LATENCY: 0 cycles
cpu0_L1D AVERAGE dMISS LATENCY: 33.2731 cycles
cpu0_L1D AVERAGE itMISS LATENCY: 1.13386 cycles
cpu0_L1D AVERAGE dtMISS LATENCY: 7.98151 cycles
cpu0_L1D PAGE CROSSINGS (TLB HIT):         0 
cpu0_L1D PAGE CROSSINGS (TLB MISS):         0 
cpu0_L1D AVERAGE MISS LATENCY: 42.3884 cycles
cpu0_L2C TOTAL       ACCESS:    9956495  HIT:    6069202  MISS:    3887293  iACCESS:    3347615  iHIT:    2039615  iMISS:    1308000  dACCESS:    6170989  dHIT:    3971304  dMISS:    2199685  itACCESS:      56349  itHIT:       8817  itMISS:      47532  dtACCESS:     381542  dtHIT:      49466  dtMISS:     332076
cpu0_L2C LOAD         ACCESS:    3672197  HIT:    2759920  MISS:     912277  iACCESS:     743278  iHIT:     471479  iMISS:     271799  dACCESS:    2928919  dHIT:    2288441  dMISS:     640478  itACCESS:          0  itHIT:          0  itMISS:          0  dtACCESS:          0  dtHIT:          0  dtMISS:          0
cpu0_L2C RFO          ACCESS:     227626  HIT:     111298  MISS:     116328  iACCESS:          0  iHIT:          0  iMISS:          0  dACCESS:     227626  dHIT:     111298  dMISS:     116328  itACCESS:          0  itHIT:          0  itMISS:          0  dtACCESS:          0  dtHIT:          0  dtMISS:          0
cpu0_L2C PREFETCH     ACCESS:    5292735  HIT:    2816469  MISS:    2476266  iACCESS:    2604337  iHIT:    1568136  iMISS:    1036201  dACCESS:    2688398  dHIT:    1248333  dMISS:    1440065  itACCESS:          0  itHIT:          0  itMISS:          0  dtACCESS:          0  dtHIT:          0  dtMISS:          0
cpu0_L2C WRITE        ACCESS:     326046  HIT:     323232  MISS:       2814  iACCESS:          0  iHIT:          0  iMISS:          0  dACCESS:     326046  dHIT:     323232  dMISS:       2814  itACCESS:          0  itHIT:          0  itMISS:          0  dtACCESS:          0  dtHIT:          0  dtMISS:          0
cpu0_L2C TRANSLATION  ACCESS:     437891  HIT:      58283  MISS:     379608  iACCESS:          0  iHIT:          0  iMISS:          0  dACCESS:          0  dHIT:          0  dMISS:          0  itACCESS:      56349  itHIT:       8817  itMISS:      47532  dtACCESS:     381542  dtHIT:      49466  dtMISS:     332076
cpu0_L2C PREFETCH  REQUESTED:    1395346  ISSUED:    1395235  CROSSED:          0  USEFUL:     317360  USELESS:     285837
cpu0_L2C AVERAGE iMISS LATENCY: 41.1741 cycles
cpu0_L2C AVERAGE dMISS LATENCY: 79.1191 cycles
cpu0_L2C AVERAGE itMISS LATENCY: 2.27257 cycles
cpu0_L2C AVERAGE dtMISS LATENCY: 16.0302 cycles
cpu0_L2C PAGE CROSSINGS (TLB HIT):         0 
cpu0_L2C PAGE CROSSINGS (TLB MISS):         0 
cpu0_L2C AVERAGE MISS LATENCY: 138.596 cycles
LLC TOTAL       ACCESS:    3873183  HIT:    1159786  MISS:    2713397  iACCESS:    1228304  iHIT:     374530  iMISS:     853774  dACCESS:    2265271  dHIT:     738660  dMISS:    1526611  itACCESS:      47532  itHIT:       3352  itMISS:      44180  dtACCESS:     332076  dtHIT:      43244  dtMISS:     288832
LLC LOAD         ACCESS:     905692  HIT:     283823  MISS:     621869  iACCESS:     270722  iHIT:      88223  iMISS:     182499  dACCESS:     634970  dHIT:     195600  dMISS:     439370  itACCESS:          0  itHIT:          0  itMISS:          0  dtACCESS:          0  dtHIT:          0  dtMISS:          0
LLC RFO          ACCESS:     116322  HIT:      34608  MISS:      81714  iACCESS:          0  iHIT:          0  iMISS:          0  dACCESS:     116322  dHIT:      34608  dMISS:      81714  itACCESS:          0  itHIT:          0  itMISS:          0  dtACCESS:          0  dtHIT:          0  dtMISS:          0
LLC PREFETCH     ACCESS:    2289490  HIT:     622137  MISS:    1667353  iACCESS:     957582  iHIT:     286307  iMISS:     671275  dACCESS:    1331908  dHIT:     335830  dMISS:     996078  itACCESS:          0  itHIT:          0  itMISS:          0  dtACCESS:          0  dtHIT:          0  dtMISS:          0
LLC WRITE        ACCESS:     182071  HIT:     172622  MISS:       9449  iACCESS:          0  iHIT:          0  iMISS:          0  dACCESS:     182071  dHIT:     172622  dMISS:       9449  itACCESS:          0  itHIT:          0  itMISS:          0  dtACCESS:          0  dtHIT:          0  dtMISS:          0
LLC TRANSLATION  ACCESS:     379608  HIT:      46596  MISS:     333012  iACCESS:          0  iHIT:          0  iMISS:          0  dACCESS:          0  dHIT:          0  dMISS:          0  itACCESS:      47532  itHIT:       3352  itMISS:      44180  dtACCESS:     332076  dtHIT:      43244  dtMISS:     288832
LLC PREFETCH  REQUESTED:          0  ISSUED:          0  CROSSED:          0  USEFUL:          0  USELESS:          0
LLC AVERAGE iMISS LATENCY: 50.0709 cycles
LLC AVERAGE dMISS LATENCY: 99.2805 cycles
LLC AVERAGE itMISS LATENCY: 2.90822 cycles
LLC AVERAGE dtMISS LATENCY: 20.5474 cycles
LLC PAGE CROSSINGS (TLB HIT):         0 
LLC PAGE CROSSINGS (TLB MISS):         0 
LLC AVERAGE MISS LATENCY: 172.807 cycles

PageTableWalker TOTAL       ACCESS:     187422  
PageTableWalker AVERAGE LATENCY: 6.7468 cycles
PageTableWalker TOTAL LATENCY: 1264498 cycles

DRAM Statistics
Channel 0
 RQ ROW_BUFFER_HIT:     575729
  ROW_BUFFER_MISS:    2109527
 AVG DBUS CONGESTED CYCLE:    3.65042
 WQ ROW_BUFFER_HIT:      56978
  ROW_BUFFER_MISS:      48657  FULL:          0

