last_page:0x200000000000000
VMEM_RES_CAP:0x100000
PAGE_SIZE:4096
LOG2_PAGE_SIZE:12
LOG2_PAGE_TABLE_SIZE:9
page_table_levels:5
WARNING: physical memory size is smaller than virtual memory size
FDiP enabled with aggresivity 16

*** ChampSim Multicore Out-of-Order Simulator ***

Warmup Instructions: 50000000
Simulation Instructions: 100000000
Number of CPUs: 1
Small page size: 4096
Large page size: 2097152

CPU 0 Bimodal branch predictor
Basic BTB sets: 1024 ways: 8 indirect buffer size: 4096 RAS size: 64
Instruction page size distrubution: 0
Loading instruction page size distribution from /home/bsc/bsc018186/scratch/itp_asplos25_AE/dump/smt_srv85_ap_srv582_ap_1024i.pdst
Data page size distrubution: 0
Loading data page size distribution from /home/bsc/bsc018186/scratch/itp_asplos25_AE/dump/smt_srv85_ap_srv582_ap_1024i.pdst
cpu0_L2C IP-based stride prefetcher
cpu0_L1D next line prefetcher
cpu0_STLB using iTP with max lru@8
cpu0_STLB using iTP with instr@0 and data@2
Init sat counter with 3 bits (max:50).
cpu0_L1I next line prefetcher
Off-chip DRAM Size: 4 GiB Channels: 1 Width: 64-bit Data Rate: 3200 MT/s
Heartbeat CPU 0 instructions: 10000003 cycles: 2500378 heartbeat IPC: 3.9994 cumulative IPC: 3.9994 (Simulation time: 0 hr 0 min 35 sec) 
Heartbeat CPU 0 instructions: 20000000 cycles: 5000489 heartbeat IPC: 3.99983 cumulative IPC: 3.99961 (Simulation time: 0 hr 1 min 13 sec) 
Heartbeat CPU 0 instructions: 30000002 cycles: 7500696 heartbeat IPC: 3.99967 cumulative IPC: 3.99963 (Simulation time: 0 hr 1 min 51 sec) 
Heartbeat CPU 0 instructions: 40000000 cycles: 10001147 heartbeat IPC: 3.99928 cumulative IPC: 3.99955 (Simulation time: 0 hr 2 min 29 sec) 
Heartbeat CPU 0 instructions: 50000000 cycles: 12501355 heartbeat IPC: 3.99967 cumulative IPC: 3.99957 (Simulation time: 0 hr 3 min 7 sec) 
Warmup finished CPU 0 instructions: 50000000 cycles: 12501356 cumulative IPC: 3.99957 (Simulation time: 0 hr 3 min 7 sec) 

Warmup complete CPU 0 instructions: 50000000 cycles: 12501356 (Simulation time: 0 hr 3 min 7 sec) 

Heartbeat CPU 0 instructions: 60000002 cycles: 42755529 heartbeat IPC: 0.330533 cumulative IPC: 0.330533 (Simulation time: 0 hr 4 min 28 sec) 
Heartbeat CPU 0 instructions: 70000000 cycles: 74009592 heartbeat IPC: 0.319959 cumulative IPC: 0.32516 (Simulation time: 0 hr 5 min 50 sec) 
Heartbeat CPU 0 instructions: 80000001 cycles: 104199245 heartbeat IPC: 0.33124 cumulative IPC: 0.327162 (Simulation time: 0 hr 7 min 11 sec) 
Heartbeat CPU 0 instructions: 90000002 cycles: 134808257 heartbeat IPC: 0.326702 cumulative IPC: 0.327047 (Simulation time: 0 hr 8 min 32 sec) 
Heartbeat CPU 0 instructions: 100000000 cycles: 165894363 heartbeat IPC: 0.321688 cumulative IPC: 0.325961 (Simulation time: 0 hr 9 min 54 sec) 
Heartbeat CPU 0 instructions: 110000004 cycles: 196738543 heartbeat IPC: 0.324211 cumulative IPC: 0.325668 (Simulation time: 0 hr 11 min 16 sec) 
Heartbeat CPU 0 instructions: 120000004 cycles: 227407303 heartbeat IPC: 0.326065 cumulative IPC: 0.325724 (Simulation time: 0 hr 12 min 38 sec) 
Heartbeat CPU 0 instructions: 130000000 cycles: 258361188 heartbeat IPC: 0.323062 cumulative IPC: 0.325389 (Simulation time: 0 hr 14 min 0 sec) 
Heartbeat CPU 0 instructions: 140000004 cycles: 288977631 heartbeat IPC: 0.326623 cumulative IPC: 0.325526 (Simulation time: 0 hr 15 min 22 sec) 
Heartbeat CPU 0 instructions: 150000002 cycles: 319490562 heartbeat IPC: 0.32773 cumulative IPC: 0.325745 (Simulation time: 0 hr 16 min 44 sec) 
Simulation finished CPU 0 instructions: 100000002 cycles: 306989207 cumulative IPC: 0.325745 (Simulation time: 0 hr 16 min 44 sec) 

Simulation complete CPU 0 instructions: 100000002 cycles: 306989207 (Simulation time: 0 hr 16 min 44 sec) 


ChampSim completed all CPUs

Saving instructions large page distribution to /home/bsc/bsc018186/scratch/itp_asplos25_AE/dump/smt_srv85_ap_srv582_ap_1024i.pdst...
Saving data large page distribution to /home/bsc/bsc018186/scratch/itp_asplos25_AE/dump/smt_srv85_ap_srv582_ap_1024i.pdst...
=== Simulation ===
CPU 0 runs /gpfs/projects/bsc18/MN4/bsc18/romol/ChampSim/traces/qualcomm_srv/smt_srv85_ap_srv582_ap_1024i.champsimtrace.xz

Region of Interest Statistics

CPU 0 cumulative IPC: 0.325745 instructions: 100000002 cycles: 306989207
CPU 0 Branch Prediction Accuracy: 75.0525% MPKI: 44.971 Average ROB Occupancy at Mispredict: 10.935
Branch type MPKI
BRANCH_DIRECT_JUMP: 1.39299
BRANCH_INDIRECT: 23.3201
BRANCH_CONDITIONAL: 13.0416
BRANCH_DIRECT_CALL: 2.67026
BRANCH_INDIRECT_CALL: 1.01656
BRANCH_RETURN: 3.52954

Instructions large pages: 0
Instructions small pages: 9946
Large page distribution for instructions: 0%

Data large pages: 0
Data small pages: 8571
Large page distribution for data: 0%

cpu0_L1I TOTAL       ACCESS:   39244977  HIT:   30486815  MISS:    8758162  iACCESS:   39244977  iHIT:   30486815  iMISS:    8758162  dACCESS:          0  dHIT:          0  dMISS:          0  itACCESS:          0  itHIT:          0  itMISS:          0  dtACCESS:          0  dtHIT:          0  dtMISS:          0
cpu0_L1I LOAD         ACCESS:   11734213  HIT:    9350201  MISS:    2384012  iACCESS:   11734213  iHIT:    9350201  iMISS:    2384012  dACCESS:          0  dHIT:          0  dMISS:          0  itACCESS:          0  itHIT:          0  itMISS:          0  dtACCESS:          0  dtHIT:          0  dtMISS:          0
cpu0_L1I RFO          ACCESS:          0  HIT:          0  MISS:          0  iACCESS:          0  iHIT:          0  iMISS:          0  dACCESS:          0  dHIT:          0  dMISS:          0  itACCESS:          0  itHIT:          0  itMISS:          0  dtACCESS:          0  dtHIT:          0  dtMISS:          0
cpu0_L1I PREFETCH     ACCESS:   27510764  HIT:   21136614  MISS:    6374150  iACCESS:   27510764  iHIT:   21136614  iMISS:    6374150  dACCESS:          0  dHIT:          0  dMISS:          0  itACCESS:          0  itHIT:          0  itMISS:          0  dtACCESS:          0  dtHIT:          0  dtMISS:          0
cpu0_L1I WRITE        ACCESS:          0  HIT:          0  MISS:          0  iACCESS:          0  iHIT:          0  iMISS:          0  dACCESS:          0  dHIT:          0  dMISS:          0  itACCESS:          0  itHIT:          0  itMISS:          0  dtACCESS:          0  dtHIT:          0  dtMISS:          0
cpu0_L1I TRANSLATION  ACCESS:          0  HIT:          0  MISS:          0  iACCESS:          0  iHIT:          0  iMISS:          0  dACCESS:          0  dHIT:          0  dMISS:          0  itACCESS:          0  itHIT:          0  itMISS:          0  dtACCESS:          0  dtHIT:          0  dtMISS:          0
cpu0_L1I PREFETCH  REQUESTED:   30310643  ISSUED:   30310578  CROSSED:          0  USEFUL:    2218510  USELESS:     775102
cpu0_L1I AVERAGE iMISS LATENCY: 25.0208 cycles
cpu0_L1I AVERAGE dMISS LATENCY: 0 cycles
cpu0_L1I AVERAGE itMISS LATENCY: 0 cycles
cpu0_L1I AVERAGE dtMISS LATENCY: 0 cycles
cpu0_L1I PAGE CROSSINGS (TLB HIT):         0 
cpu0_L1I PAGE CROSSINGS (TLB MISS):         0 
cpu0_L1I AVERAGE MISS LATENCY: 25.0208 cycles
cpu0_ITLB TOTAL       ACCESS:   33244044  HIT:   30984454  MISS:    2259590  iACCESS:   33244044  iHIT:   30984454  iMISS:    2259590  dACCESS:          0  dHIT:          0  dMISS:          0  itACCESS:          0  itHIT:          0  itMISS:          0  dtACCESS:          0  dtHIT:          0  dtMISS:          0
cpu0_ITLB LOAD         ACCESS:   33244044  HIT:   30984454  MISS:    2259590  iACCESS:   33244044  iHIT:   30984454  iMISS:    2259590  dACCESS:          0  dHIT:          0  dMISS:          0  itACCESS:          0  itHIT:          0  itMISS:          0  dtACCESS:          0  dtHIT:          0  dtMISS:          0
cpu0_ITLB RFO          ACCESS:          0  HIT:          0  MISS:          0  iACCESS:          0  iHIT:          0  iMISS:          0  dACCESS:          0  dHIT:          0  dMISS:          0  itACCESS:          0  itHIT:          0  itMISS:          0  dtACCESS:          0  dtHIT:          0  dtMISS:          0
cpu0_ITLB PREFETCH     ACCESS:          0  HIT:          0  MISS:          0  iACCESS:          0  iHIT:          0  iMISS:          0  dACCESS:          0  dHIT:          0  dMISS:          0  itACCESS:          0  itHIT:          0  itMISS:          0  dtACCESS:          0  dtHIT:          0  dtMISS:          0
cpu0_ITLB WRITE        ACCESS:          0  HIT:          0  MISS:          0  iACCESS:          0  iHIT:          0  iMISS:          0  dACCESS:          0  dHIT:          0  dMISS:          0  itACCESS:          0  itHIT:          0  itMISS:          0  dtACCESS:          0  dtHIT:          0  dtMISS:          0
cpu0_ITLB TRANSLATION  ACCESS:          0  HIT:          0  MISS:          0  iACCESS:          0  iHIT:          0  iMISS:          0  dACCESS:          0  dHIT:          0  dMISS:          0  itACCESS:          0  itHIT:          0  itMISS:          0  dtACCESS:          0  dtHIT:          0  dtMISS:          0
cpu0_ITLB PREFETCH  REQUESTED:          0  ISSUED:          0  CROSSED:          0  USEFUL:     393774  USELESS:      81076
cpu0_ITLB AVERAGE iMISS LATENCY: 6.84237 cycles
cpu0_ITLB AVERAGE dMISS LATENCY: 0 cycles
cpu0_ITLB AVERAGE itMISS LATENCY: 0 cycles
cpu0_ITLB AVERAGE dtMISS LATENCY: 0 cycles
cpu0_ITLB PAGE CROSSINGS (TLB HIT):         0 
cpu0_ITLB PAGE CROSSINGS (TLB MISS):         0 
cpu0_ITLB AVERAGE MISS LATENCY: 6.84237 cycles
cpu0_DTLB TOTAL       ACCESS:   28865858  HIT:   25223625  MISS:    3642233  iACCESS:          0  iHIT:          0  iMISS:          0  dACCESS:   28865858  dHIT:   25223625  dMISS:    3642233  itACCESS:          0  itHIT:          0  itMISS:          0  dtACCESS:          0  dtHIT:          0  dtMISS:          0
cpu0_DTLB LOAD         ACCESS:   28865858  HIT:   25223625  MISS:    3642233  iACCESS:          0  iHIT:          0  iMISS:          0  dACCESS:   28865858  dHIT:   25223625  dMISS:    3642233  itACCESS:          0  itHIT:          0  itMISS:          0  dtACCESS:          0  dtHIT:          0  dtMISS:          0
cpu0_DTLB RFO          ACCESS:          0  HIT:          0  MISS:          0  iACCESS:          0  iHIT:          0  iMISS:          0  dACCESS:          0  dHIT:          0  dMISS:          0  itACCESS:          0  itHIT:          0  itMISS:          0  dtACCESS:          0  dtHIT:          0  dtMISS:          0
cpu0_DTLB PREFETCH     ACCESS:          0  HIT:          0  MISS:          0  iACCESS:          0  iHIT:          0  iMISS:          0  dACCESS:          0  dHIT:          0  dMISS:          0  itACCESS:          0  itHIT:          0  itMISS:          0  dtACCESS:          0  dtHIT:          0  dtMISS:          0
cpu0_DTLB WRITE        ACCESS:          0  HIT:          0  MISS:          0  iACCESS:          0  iHIT:          0  iMISS:          0  dACCESS:          0  dHIT:          0  dMISS:          0  itACCESS:          0  itHIT:          0  itMISS:          0  dtACCESS:          0  dtHIT:          0  dtMISS:          0
cpu0_DTLB TRANSLATION  ACCESS:          0  HIT:          0  MISS:          0  iACCESS:          0  iHIT:          0  iMISS:          0  dACCESS:          0  dHIT:          0  dMISS:          0  itACCESS:          0  itHIT:          0  itMISS:          0  dtACCESS:          0  dtHIT:          0  dtMISS:          0
cpu0_DTLB PREFETCH  REQUESTED:          0  ISSUED:          0  CROSSED:          0  USEFUL:          0  USELESS:          0
cpu0_DTLB AVERAGE iMISS LATENCY: 0 cycles
cpu0_DTLB AVERAGE dMISS LATENCY: 28.6584 cycles
cpu0_DTLB AVERAGE itMISS LATENCY: 0 cycles
cpu0_DTLB AVERAGE dtMISS LATENCY: 0 cycles
cpu0_DTLB PAGE CROSSINGS (TLB HIT):         0 
cpu0_DTLB PAGE CROSSINGS (TLB MISS):         0 
cpu0_DTLB AVERAGE MISS LATENCY: 28.6584 cycles
cpu0_STLB TOTAL       ACCESS:    2599711  HIT:    2215010  MISS:     384701  iACCESS:     474854  iHIT:     414794  iMISS:      60060  dACCESS:    2124857  dHIT:    1800216  dMISS:     324641  itACCESS:          0  itHIT:          0  itMISS:          0  dtACCESS:          0  dtHIT:          0  dtMISS:          0
cpu0_STLB LOAD         ACCESS:    2599711  HIT:    2215010  MISS:     384701  iACCESS:     474854  iHIT:     414794  iMISS:      60060  dACCESS:    2124857  dHIT:    1800216  dMISS:     324641  itACCESS:          0  itHIT:          0  itMISS:          0  dtACCESS:          0  dtHIT:          0  dtMISS:          0
cpu0_STLB RFO          ACCESS:          0  HIT:          0  MISS:          0  iACCESS:          0  iHIT:          0  iMISS:          0  dACCESS:          0  dHIT:          0  dMISS:          0  itACCESS:          0  itHIT:          0  itMISS:          0  dtACCESS:          0  dtHIT:          0  dtMISS:          0
cpu0_STLB PREFETCH     ACCESS:          0  HIT:          0  MISS:          0  iACCESS:          0  iHIT:          0  iMISS:          0  dACCESS:          0  dHIT:          0  dMISS:          0  itACCESS:          0  itHIT:          0  itMISS:          0  dtACCESS:          0  dtHIT:          0  dtMISS:          0
cpu0_STLB WRITE        ACCESS:          0  HIT:          0  MISS:          0  iACCESS:          0  iHIT:          0  iMISS:          0  dACCESS:          0  dHIT:          0  dMISS:          0  itACCESS:          0  itHIT:          0  itMISS:          0  dtACCESS:          0  dtHIT:          0  dtMISS:          0
cpu0_STLB TRANSLATION  ACCESS:          0  HIT:          0  MISS:          0  iACCESS:          0  iHIT:          0  iMISS:          0  dACCESS:          0  dHIT:          0  dMISS:          0  itACCESS:          0  itHIT:          0  itMISS:          0  dtACCESS:          0  dtHIT:          0  dtMISS:          0
cpu0_STLB PREFETCH  REQUESTED:          0  ISSUED:          0  CROSSED:          0  USEFUL:          0  USELESS:          0
cpu0_STLB AVERAGE iMISS LATENCY: 30.4726 cycles
cpu0_STLB AVERAGE dMISS LATENCY: 226.707 cycles
cpu0_STLB AVERAGE itMISS LATENCY: 0 cycles
cpu0_STLB AVERAGE dtMISS LATENCY: 0 cycles
cpu0_STLB PAGE CROSSINGS (TLB HIT):         0 
cpu0_STLB PAGE CROSSINGS (TLB MISS):         0 
cpu0_STLB AVERAGE MISS LATENCY: 257.18 cycles
cpu0_L1D TOTAL       ACCESS:   45038859  HIT:   39193820  MISS:    5845039  iACCESS:          0  iHIT:          0  iMISS:          0  dACCESS:   44450789  dHIT:   39165214  dMISS:    5285575  itACCESS:      70903  itHIT:       5196  itMISS:      65707  dtACCESS:     517167  dtHIT:      23410  dtMISS:     493757
cpu0_L1D LOAD         ACCESS:   20274413  HIT:   17893291  MISS:    2381122  iACCESS:          0  iHIT:          0  iMISS:          0  dACCESS:   20274413  dHIT:   17893291  dMISS:    2381122  itACCESS:          0  itHIT:          0  itMISS:          0  dtACCESS:          0  dtHIT:          0  dtMISS:          0
cpu0_L1D RFO          ACCESS:          0  HIT:          0  MISS:          0  iACCESS:          0  iHIT:          0  iMISS:          0  dACCESS:          0  dHIT:          0  dMISS:          0  itACCESS:          0  itHIT:          0  itMISS:          0  dtACCESS:          0  dtHIT:          0  dtMISS:          0
cpu0_L1D PREFETCH     ACCESS:   14020179  HIT:   11700875  MISS:    2319304  iACCESS:          0  iHIT:          0  iMISS:          0  dACCESS:   14020179  dHIT:   11700875  dMISS:    2319304  itACCESS:          0  itHIT:          0  itMISS:          0  dtACCESS:          0  dtHIT:          0  dtMISS:          0
cpu0_L1D WRITE        ACCESS:   10156197  HIT:    9571048  MISS:     585149  iACCESS:          0  iHIT:          0  iMISS:          0  dACCESS:   10156197  dHIT:    9571048  dMISS:     585149  itACCESS:          0  itHIT:          0  itMISS:          0  dtACCESS:          0  dtHIT:          0  dtMISS:          0
cpu0_L1D TRANSLATION  ACCESS:     588070  HIT:      28606  MISS:     559464  iACCESS:          0  iHIT:          0  iMISS:          0  dACCESS:          0  dHIT:          0  dMISS:          0  itACCESS:      70903  itHIT:       5196  itMISS:      65707  dtACCESS:     517167  dtHIT:      23410  dtMISS:     493757
cpu0_L1D PREFETCH  REQUESTED:   20274413  ISSUED:   18484200  CROSSED:          0  USEFUL:     359499  USELESS:     943602
cpu0_L1D AVERAGE iMISS LATENCY: 0 cycles
cpu0_L1D AVERAGE dMISS LATENCY: 50.2408 cycles
cpu0_L1D AVERAGE itMISS LATENCY: 1.90071 cycles
cpu0_L1D AVERAGE dtMISS LATENCY: 14.0025 cycles
cpu0_L1D PAGE CROSSINGS (TLB HIT):         0 
cpu0_L1D PAGE CROSSINGS (TLB MISS):         0 
cpu0_L1D AVERAGE MISS LATENCY: 66.1439 cycles
cpu0_L2C TOTAL       ACCESS:    8730445  HIT:    4204278  MISS:    4526167  iACCESS:    3810336  iHIT:    2304039  iMISS:    1506297  dACCESS:    4390265  dHIT:    1832211  dMISS:    2558054  itACCESS:      65420  itHIT:       9792  itMISS:      55628  dtACCESS:     464424  dtHIT:      58236  dtMISS:     406188
cpu0_L2C LOAD         ACCESS:    2082227  HIT:    1015978  MISS:    1066249  iACCESS:     854212  iHIT:     541577  iMISS:     312635  dACCESS:    1228015  dHIT:     474401  dMISS:     753614  itACCESS:          0  itHIT:          0  itMISS:          0  dtACCESS:          0  dtHIT:          0  dtMISS:          0
cpu0_L2C RFO          ACCESS:     217573  HIT:      82599  MISS:     134974  iACCESS:          0  iHIT:          0  iMISS:          0  dACCESS:     217573  dHIT:      82599  dMISS:     134974  itACCESS:          0  itHIT:          0  itMISS:          0  dtACCESS:          0  dtHIT:          0  dtMISS:          0
cpu0_L2C PREFETCH     ACCESS:    5554210  HIT:    2695373  MISS:    2858837  iACCESS:    2956124  iHIT:    1762462  iMISS:    1193662  dACCESS:    2598086  dHIT:     932911  dMISS:    1665175  itACCESS:          0  itHIT:          0  itMISS:          0  dtACCESS:          0  dtHIT:          0  dtMISS:          0
cpu0_L2C WRITE        ACCESS:     346591  HIT:     342300  MISS:       4291  iACCESS:          0  iHIT:          0  iMISS:          0  dACCESS:     346591  dHIT:     342300  dMISS:       4291  itACCESS:          0  itHIT:          0  itMISS:          0  dtACCESS:          0  dtHIT:          0  dtMISS:          0
cpu0_L2C TRANSLATION  ACCESS:     529844  HIT:      68028  MISS:     461816  iACCESS:          0  iHIT:          0  iMISS:          0  dACCESS:          0  dHIT:          0  dMISS:          0  itACCESS:      65420  itHIT:       9792  itMISS:      55628  dtACCESS:     464424  dtHIT:      58236  dtMISS:     406188
cpu0_L2C PREFETCH  REQUESTED:    1536933  ISSUED:    1536930  CROSSED:          0  USEFUL:     359518  USELESS:     329503
cpu0_L2C AVERAGE iMISS LATENCY: 41.4764 cycles
cpu0_L2C AVERAGE dMISS LATENCY: 80.6783 cycles
cpu0_L2C AVERAGE itMISS LATENCY: 2.31172 cycles
cpu0_L2C AVERAGE dtMISS LATENCY: 17.0633 cycles
cpu0_L2C PAGE CROSSINGS (TLB HIT):         0 
cpu0_L2C PAGE CROSSINGS (TLB MISS):         0 
cpu0_L2C AVERAGE MISS LATENCY: 141.53 cycles
LLC TOTAL       ACCESS:    4513456  HIT:    1297905  MISS:    3215551  iACCESS:    1414770  iHIT:     415308  iMISS:     999462  dACCESS:    2636870  dHIT:     829641  dMISS:    1807229  itACCESS:      55628  itHIT:       3343  itMISS:      52285  dtACCESS:     406188  dtHIT:      49613  dtMISS:     356575
LLC LOAD         ACCESS:    1058253  HIT:     316969  MISS:     741284  iACCESS:     311383  iHIT:      97911  iMISS:     213472  dACCESS:     746870  dHIT:     219058  dMISS:     527812  itACCESS:          0  itHIT:          0  itMISS:          0  dtACCESS:          0  dtHIT:          0  dtMISS:          0
LLC RFO          ACCESS:     134963  HIT:      39206  MISS:      95757  iACCESS:          0  iHIT:          0  iMISS:          0  dACCESS:     134963  dHIT:      39206  dMISS:      95757  itACCESS:          0  itHIT:          0  itMISS:          0  dtACCESS:          0  dtHIT:          0  dtMISS:          0
LLC PREFETCH     ACCESS:    2642926  HIT:     684013  MISS:    1958913  iACCESS:    1103387  iHIT:     317397  iMISS:     785990  dACCESS:    1539539  dHIT:     366616  dMISS:    1172923  itACCESS:          0  itHIT:          0  itMISS:          0  dtACCESS:          0  dtHIT:          0  dtMISS:          0
LLC WRITE        ACCESS:     215498  HIT:     204761  MISS:      10737  iACCESS:          0  iHIT:          0  iMISS:          0  dACCESS:     215498  dHIT:     204761  dMISS:      10737  itACCESS:          0  itHIT:          0  itMISS:          0  dtACCESS:          0  dtHIT:          0  dtMISS:          0
LLC TRANSLATION  ACCESS:     461816  HIT:      52956  MISS:     408860  iACCESS:          0  iHIT:          0  iMISS:          0  dACCESS:          0  dHIT:          0  dMISS:          0  itACCESS:      55628  itHIT:       3343  itMISS:      52285  dtACCESS:     406188  dtHIT:      49613  dtMISS:     356575
LLC PREFETCH  REQUESTED:          0  ISSUED:          0  CROSSED:          0  USEFUL:          0  USELESS:          0
LLC AVERAGE iMISS LATENCY: 49.7106 cycles
LLC AVERAGE dMISS LATENCY: 99.6827 cycles
LLC AVERAGE itMISS LATENCY: 2.91062 cycles
LLC AVERAGE dtMISS LATENCY: 21.5216 cycles
LLC PAGE CROSSINGS (TLB HIT):         0 
LLC PAGE CROSSINGS (TLB MISS):         0 
LLC AVERAGE MISS LATENCY: 173.826 cycles

PageTableWalker TOTAL       ACCESS:     192858  
PageTableWalker AVERAGE LATENCY: 6.85828 cycles
PageTableWalker TOTAL LATENCY: 1322673 cycles

DRAM Statistics
Channel 0
 RQ ROW_BUFFER_HIT:     667613
  ROW_BUFFER_MISS:    2517152
 AVG DBUS CONGESTED CYCLE:    3.65378
 WQ ROW_BUFFER_HIT:      69220
  ROW_BUFFER_MISS:      59448  FULL:          0

