last_page:0x200000000000000
VMEM_RES_CAP:0x100000
PAGE_SIZE:4096
LOG2_PAGE_SIZE:12
LOG2_PAGE_TABLE_SIZE:9
page_table_levels:5
WARNING: physical memory size is smaller than virtual memory size
FDiP enabled with aggresivity 16

*** ChampSim Multicore Out-of-Order Simulator ***

Warmup Instructions: 50000000
Simulation Instructions: 100000000
Number of CPUs: 1
Small page size: 4096
Large page size: 2097152

CPU 0 Bimodal branch predictor
Basic BTB sets: 1024 ways: 8 indirect buffer size: 4096 RAS size: 64
Instruction page size distrubution: 0
Loading instruction page size distribution from /home/bsc/bsc018186/scratch/itp_asplos25_AE/dump/smt_srv540_ap_srv298_ap_1024i.pdst
Data page size distrubution: 0
Loading data page size distribution from /home/bsc/bsc018186/scratch/itp_asplos25_AE/dump/smt_srv540_ap_srv298_ap_1024i.pdst
cpu0_L2C IP-based stride prefetcher
cpu0_L2C is using PTP replacement policy:
	TLB_STRESS_THRESHOLD:0
	PTE_EVICTION_RATIO:0
cpu0_L1D next line prefetcher
cpu0_L1I next line prefetcher
Off-chip DRAM Size: 4 GiB Channels: 1 Width: 64-bit Data Rate: 3200 MT/s
Heartbeat CPU 0 instructions: 10000002 cycles: 2500433 heartbeat IPC: 3.99931 cumulative IPC: 3.99931 (Simulation time: 0 hr 0 min 45 sec) 
Heartbeat CPU 0 instructions: 20000001 cycles: 5000710 heartbeat IPC: 3.99956 cumulative IPC: 3.99944 (Simulation time: 0 hr 1 min 31 sec) 
Heartbeat CPU 0 instructions: 30000003 cycles: 7501013 heartbeat IPC: 3.99952 cumulative IPC: 3.99947 (Simulation time: 0 hr 2 min 18 sec) 
Heartbeat CPU 0 instructions: 40000001 cycles: 10001259 heartbeat IPC: 3.99961 cumulative IPC: 3.9995 (Simulation time: 0 hr 3 min 3 sec) 
Heartbeat CPU 0 instructions: 50000000 cycles: 12501443 heartbeat IPC: 3.99971 cumulative IPC: 3.99954 (Simulation time: 0 hr 3 min 51 sec) 
Warmup finished CPU 0 instructions: 50000000 cycles: 12501444 cumulative IPC: 3.99954 (Simulation time: 0 hr 3 min 51 sec) 

Warmup complete CPU 0 instructions: 50000000 cycles: 12501444 (Simulation time: 0 hr 3 min 51 sec) 

Heartbeat CPU 0 instructions: 60000000 cycles: 40629998 heartbeat IPC: 0.355511 cumulative IPC: 0.355511 (Simulation time: 0 hr 5 min 27 sec) 
Heartbeat CPU 0 instructions: 70000001 cycles: 67790955 heartbeat IPC: 0.368176 cumulative IPC: 0.361733 (Simulation time: 0 hr 6 min 59 sec) 
Heartbeat CPU 0 instructions: 80000002 cycles: 95642880 heartbeat IPC: 0.359042 cumulative IPC: 0.360831 (Simulation time: 0 hr 8 min 25 sec) 
Heartbeat CPU 0 instructions: 90000000 cycles: 124445952 heartbeat IPC: 0.347186 cumulative IPC: 0.35732 (Simulation time: 0 hr 9 min 49 sec) 
Heartbeat CPU 0 instructions: 100000001 cycles: 153385552 heartbeat IPC: 0.345548 cumulative IPC: 0.354902 (Simulation time: 0 hr 11 min 14 sec) 
Heartbeat CPU 0 instructions: 110000003 cycles: 181651139 heartbeat IPC: 0.353788 cumulative IPC: 0.354716 (Simulation time: 0 hr 12 min 37 sec) 
Heartbeat CPU 0 instructions: 120000000 cycles: 209470126 heartbeat IPC: 0.359467 cumulative IPC: 0.355387 (Simulation time: 0 hr 14 min 0 sec) 
Heartbeat CPU 0 instructions: 130000000 cycles: 239062218 heartbeat IPC: 0.337929 cumulative IPC: 0.353107 (Simulation time: 0 hr 15 min 30 sec) 
Heartbeat CPU 0 instructions: 140000002 cycles: 268149031 heartbeat IPC: 0.343799 cumulative IPC: 0.352048 (Simulation time: 0 hr 16 min 58 sec) 
Heartbeat CPU 0 instructions: 150000001 cycles: 296119704 heartbeat IPC: 0.357518 cumulative IPC: 0.352587 (Simulation time: 0 hr 18 min 19 sec) 
Simulation finished CPU 0 instructions: 100000001 cycles: 283618261 cumulative IPC: 0.352587 (Simulation time: 0 hr 18 min 19 sec) 

Simulation complete CPU 0 instructions: 100000001 cycles: 283618261 (Simulation time: 0 hr 18 min 19 sec) 


ChampSim completed all CPUs

Saving instructions large page distribution to /home/bsc/bsc018186/scratch/itp_asplos25_AE/dump/smt_srv540_ap_srv298_ap_1024i.pdst...
Saving data large page distribution to /home/bsc/bsc018186/scratch/itp_asplos25_AE/dump/smt_srv540_ap_srv298_ap_1024i.pdst...
=== Simulation ===
CPU 0 runs /gpfs/projects/bsc18/MN4/bsc18/romol/ChampSim/traces/qualcomm_srv/smt_srv540_ap_srv298_ap_1024i.champsimtrace.xz

Region of Interest Statistics

CPU 0 cumulative IPC: 0.352587 instructions: 100000001 cycles: 283618261
CPU 0 Branch Prediction Accuracy: 76.1315% MPKI: 42.9715 Average ROB Occupancy at Mispredict: 11.4651
Branch type MPKI
BRANCH_DIRECT_JUMP: 1.27463
BRANCH_INDIRECT: 22.4613
BRANCH_CONDITIONAL: 12.4163
BRANCH_DIRECT_CALL: 2.44886
BRANCH_INDIRECT_CALL: 0.93756
BRANCH_RETURN: 3.43288

Instructions large pages: 0
Instructions small pages: 13216
Large page distribution for instructions: 0%

Data large pages: 0
Data small pages: 11943
Large page distribution for data: 0%

cpu0_L1I TOTAL       ACCESS:   39076857  HIT:   30424796  MISS:    8652061  iACCESS:   39076857  iHIT:   30424796  iMISS:    8652061  dACCESS:          0  dHIT:          0  dMISS:          0  itACCESS:          0  itHIT:          0  itMISS:          0  dtACCESS:          0  dtHIT:          0  dtMISS:          0
cpu0_L1I LOAD         ACCESS:   11758828  HIT:    9390508  MISS:    2368320  iACCESS:   11758828  iHIT:    9390508  iMISS:    2368320  dACCESS:          0  dHIT:          0  dMISS:          0  itACCESS:          0  itHIT:          0  itMISS:          0  dtACCESS:          0  dtHIT:          0  dtMISS:          0
cpu0_L1I RFO          ACCESS:          0  HIT:          0  MISS:          0  iACCESS:          0  iHIT:          0  iMISS:          0  dACCESS:          0  dHIT:          0  dMISS:          0  itACCESS:          0  itHIT:          0  itMISS:          0  dtACCESS:          0  dtHIT:          0  dtMISS:          0
cpu0_L1I PREFETCH     ACCESS:   27318029  HIT:   21034288  MISS:    6283741  iACCESS:   27318029  iHIT:   21034288  iMISS:    6283741  dACCESS:          0  dHIT:          0  dMISS:          0  itACCESS:          0  itHIT:          0  itMISS:          0  dtACCESS:          0  dtHIT:          0  dtMISS:          0
cpu0_L1I WRITE        ACCESS:          0  HIT:          0  MISS:          0  iACCESS:          0  iHIT:          0  iMISS:          0  dACCESS:          0  dHIT:          0  dMISS:          0  itACCESS:          0  itHIT:          0  itMISS:          0  dtACCESS:          0  dtHIT:          0  dtMISS:          0
cpu0_L1I TRANSLATION  ACCESS:          0  HIT:          0  MISS:          0  iACCESS:          0  iHIT:          0  iMISS:          0  dACCESS:          0  dHIT:          0  dMISS:          0  itACCESS:          0  itHIT:          0  itMISS:          0  dtACCESS:          0  dtHIT:          0  dtMISS:          0
cpu0_L1I PREFETCH  REQUESTED:   30202773  ISSUED:   30202717  CROSSED:          0  USEFUL:    2182044  USELESS:     751667
cpu0_L1I AVERAGE iMISS LATENCY: 22.8575 cycles
cpu0_L1I AVERAGE dMISS LATENCY: 0 cycles
cpu0_L1I AVERAGE itMISS LATENCY: 0 cycles
cpu0_L1I AVERAGE dtMISS LATENCY: 0 cycles
cpu0_L1I PAGE CROSSINGS (TLB HIT):         0 
cpu0_L1I PAGE CROSSINGS (TLB MISS):         0 
cpu0_L1I AVERAGE MISS LATENCY: 22.8575 cycles
cpu0_ITLB TOTAL       ACCESS:   32957273  HIT:   30757765  MISS:    2199508  iACCESS:   32957273  iHIT:   30757765  iMISS:    2199508  dACCESS:          0  dHIT:          0  dMISS:          0  itACCESS:          0  itHIT:          0  itMISS:          0  dtACCESS:          0  dtHIT:          0  dtMISS:          0
cpu0_ITLB LOAD         ACCESS:   32957273  HIT:   30757765  MISS:    2199508  iACCESS:   32957273  iHIT:   30757765  iMISS:    2199508  dACCESS:          0  dHIT:          0  dMISS:          0  itACCESS:          0  itHIT:          0  itMISS:          0  dtACCESS:          0  dtHIT:          0  dtMISS:          0
cpu0_ITLB RFO          ACCESS:          0  HIT:          0  MISS:          0  iACCESS:          0  iHIT:          0  iMISS:          0  dACCESS:          0  dHIT:          0  dMISS:          0  itACCESS:          0  itHIT:          0  itMISS:          0  dtACCESS:          0  dtHIT:          0  dtMISS:          0
cpu0_ITLB PREFETCH     ACCESS:          0  HIT:          0  MISS:          0  iACCESS:          0  iHIT:          0  iMISS:          0  dACCESS:          0  dHIT:          0  dMISS:          0  itACCESS:          0  itHIT:          0  itMISS:          0  dtACCESS:          0  dtHIT:          0  dtMISS:          0
cpu0_ITLB WRITE        ACCESS:          0  HIT:          0  MISS:          0  iACCESS:          0  iHIT:          0  iMISS:          0  dACCESS:          0  dHIT:          0  dMISS:          0  itACCESS:          0  itHIT:          0  itMISS:          0  dtACCESS:          0  dtHIT:          0  dtMISS:          0
cpu0_ITLB TRANSLATION  ACCESS:          0  HIT:          0  MISS:          0  iACCESS:          0  iHIT:          0  iMISS:          0  dACCESS:          0  dHIT:          0  dMISS:          0  itACCESS:          0  itHIT:          0  itMISS:          0  dtACCESS:          0  dtHIT:          0  dtMISS:          0
cpu0_ITLB PREFETCH  REQUESTED:          0  ISSUED:          0  CROSSED:          0  USEFUL:     381234  USELESS:      77290
cpu0_ITLB AVERAGE iMISS LATENCY: 9.58371 cycles
cpu0_ITLB AVERAGE dMISS LATENCY: 0 cycles
cpu0_ITLB AVERAGE itMISS LATENCY: 0 cycles
cpu0_ITLB AVERAGE dtMISS LATENCY: 0 cycles
cpu0_ITLB PAGE CROSSINGS (TLB HIT):         0 
cpu0_ITLB PAGE CROSSINGS (TLB MISS):         0 
cpu0_ITLB AVERAGE MISS LATENCY: 9.58371 cycles
cpu0_DTLB TOTAL       ACCESS:   28753433  HIT:   25041259  MISS:    3712174  iACCESS:          0  iHIT:          0  iMISS:          0  dACCESS:   28753433  dHIT:   25041259  dMISS:    3712174  itACCESS:          0  itHIT:          0  itMISS:          0  dtACCESS:          0  dtHIT:          0  dtMISS:          0
cpu0_DTLB LOAD         ACCESS:   28753433  HIT:   25041259  MISS:    3712174  iACCESS:          0  iHIT:          0  iMISS:          0  dACCESS:   28753433  dHIT:   25041259  dMISS:    3712174  itACCESS:          0  itHIT:          0  itMISS:          0  dtACCESS:          0  dtHIT:          0  dtMISS:          0
cpu0_DTLB RFO          ACCESS:          0  HIT:          0  MISS:          0  iACCESS:          0  iHIT:          0  iMISS:          0  dACCESS:          0  dHIT:          0  dMISS:          0  itACCESS:          0  itHIT:          0  itMISS:          0  dtACCESS:          0  dtHIT:          0  dtMISS:          0
cpu0_DTLB PREFETCH     ACCESS:          0  HIT:          0  MISS:          0  iACCESS:          0  iHIT:          0  iMISS:          0  dACCESS:          0  dHIT:          0  dMISS:          0  itACCESS:          0  itHIT:          0  itMISS:          0  dtACCESS:          0  dtHIT:          0  dtMISS:          0
cpu0_DTLB WRITE        ACCESS:          0  HIT:          0  MISS:          0  iACCESS:          0  iHIT:          0  iMISS:          0  dACCESS:          0  dHIT:          0  dMISS:          0  itACCESS:          0  itHIT:          0  itMISS:          0  dtACCESS:          0  dtHIT:          0  dtMISS:          0
cpu0_DTLB TRANSLATION  ACCESS:          0  HIT:          0  MISS:          0  iACCESS:          0  iHIT:          0  iMISS:          0  dACCESS:          0  dHIT:          0  dMISS:          0  itACCESS:          0  itHIT:          0  itMISS:          0  dtACCESS:          0  dtHIT:          0  dtMISS:          0
cpu0_DTLB PREFETCH  REQUESTED:          0  ISSUED:          0  CROSSED:          0  USEFUL:          0  USELESS:          0
cpu0_DTLB AVERAGE iMISS LATENCY: 0 cycles
cpu0_DTLB AVERAGE dMISS LATENCY: 23.0747 cycles
cpu0_DTLB AVERAGE itMISS LATENCY: 0 cycles
cpu0_DTLB AVERAGE dtMISS LATENCY: 0 cycles
cpu0_DTLB PAGE CROSSINGS (TLB HIT):         0 
cpu0_DTLB PAGE CROSSINGS (TLB MISS):         0 
cpu0_DTLB AVERAGE MISS LATENCY: 23.0747 cycles
cpu0_STLB TOTAL       ACCESS:    2590105  HIT:    2235589  MISS:     354516  iACCESS:     458528  iHIT:     353178  iMISS:     105350  dACCESS:    2131577  dHIT:    1882411  dMISS:     249166  itACCESS:          0  itHIT:          0  itMISS:          0  dtACCESS:          0  dtHIT:          0  dtMISS:          0
cpu0_STLB LOAD         ACCESS:    2590105  HIT:    2235589  MISS:     354516  iACCESS:     458528  iHIT:     353178  iMISS:     105350  dACCESS:    2131577  dHIT:    1882411  dMISS:     249166  itACCESS:          0  itHIT:          0  itMISS:          0  dtACCESS:          0  dtHIT:          0  dtMISS:          0
cpu0_STLB RFO          ACCESS:          0  HIT:          0  MISS:          0  iACCESS:          0  iHIT:          0  iMISS:          0  dACCESS:          0  dHIT:          0  dMISS:          0  itACCESS:          0  itHIT:          0  itMISS:          0  dtACCESS:          0  dtHIT:          0  dtMISS:          0
cpu0_STLB PREFETCH     ACCESS:          0  HIT:          0  MISS:          0  iACCESS:          0  iHIT:          0  iMISS:          0  dACCESS:          0  dHIT:          0  dMISS:          0  itACCESS:          0  itHIT:          0  itMISS:          0  dtACCESS:          0  dtHIT:          0  dtMISS:          0
cpu0_STLB WRITE        ACCESS:          0  HIT:          0  MISS:          0  iACCESS:          0  iHIT:          0  iMISS:          0  dACCESS:          0  dHIT:          0  dMISS:          0  itACCESS:          0  itHIT:          0  itMISS:          0  dtACCESS:          0  dtHIT:          0  dtMISS:          0
cpu0_STLB TRANSLATION  ACCESS:          0  HIT:          0  MISS:          0  iACCESS:          0  iHIT:          0  iMISS:          0  dACCESS:          0  dHIT:          0  dMISS:          0  itACCESS:          0  itHIT:          0  itMISS:          0  dtACCESS:          0  dtHIT:          0  dtMISS:          0
cpu0_STLB PREFETCH  REQUESTED:          0  ISSUED:          0  CROSSED:          0  USEFUL:          0  USELESS:          0
cpu0_STLB AVERAGE iMISS LATENCY: 49.1351 cycles
cpu0_STLB AVERAGE dMISS LATENCY: 193.248 cycles
cpu0_STLB AVERAGE itMISS LATENCY: 0 cycles
cpu0_STLB AVERAGE dtMISS LATENCY: 0 cycles
cpu0_STLB PAGE CROSSINGS (TLB HIT):         0 
cpu0_STLB PAGE CROSSINGS (TLB MISS):         0 
cpu0_STLB AVERAGE MISS LATENCY: 242.383 cycles
cpu0_L1D TOTAL       ACCESS:   44362594  HIT:   38944639  MISS:    5417955  iACCESS:          0  iHIT:          0  iMISS:          0  dACCESS:   43839790  dHIT:   38910571  dMISS:    4929219  itACCESS:     118600  itHIT:      13927  itMISS:     104673  dtACCESS:     404204  dtHIT:      20141  dtMISS:     384063
cpu0_L1D LOAD         ACCESS:   20011450  HIT:   17812519  MISS:    2198931  iACCESS:          0  iHIT:          0  iMISS:          0  dACCESS:   20011450  dHIT:   17812519  dMISS:    2198931  itACCESS:          0  itHIT:          0  itMISS:          0  dtACCESS:          0  dtHIT:          0  dtMISS:          0
cpu0_L1D RFO          ACCESS:          0  HIT:          0  MISS:          0  iACCESS:          0  iHIT:          0  iMISS:          0  dACCESS:          0  dHIT:          0  dMISS:          0  itACCESS:          0  itHIT:          0  itMISS:          0  dtACCESS:          0  dtHIT:          0  dtMISS:          0
cpu0_L1D PREFETCH     ACCESS:   13670559  HIT:   11487342  MISS:    2183217  iACCESS:          0  iHIT:          0  iMISS:          0  dACCESS:   13670559  dHIT:   11487342  dMISS:    2183217  itACCESS:          0  itHIT:          0  itMISS:          0  dtACCESS:          0  dtHIT:          0  dtMISS:          0
cpu0_L1D WRITE        ACCESS:   10157781  HIT:    9610710  MISS:     547071  iACCESS:          0  iHIT:          0  iMISS:          0  dACCESS:   10157781  dHIT:    9610710  dMISS:     547071  itACCESS:          0  itHIT:          0  itMISS:          0  dtACCESS:          0  dtHIT:          0  dtMISS:          0
cpu0_L1D TRANSLATION  ACCESS:     522804  HIT:      34068  MISS:     488736  iACCESS:          0  iHIT:          0  iMISS:          0  dACCESS:          0  dHIT:          0  dMISS:          0  itACCESS:     118600  itHIT:      13927  itMISS:     104673  dtACCESS:     404204  dtHIT:      20141  dtMISS:     384063
cpu0_L1D PREFETCH  REQUESTED:   20011450  ISSUED:   18278563  CROSSED:          0  USEFUL:     356251  USELESS:     920465
cpu0_L1D AVERAGE iMISS LATENCY: 0 cycles
cpu0_L1D AVERAGE dMISS LATENCY: 49.2457 cycles
cpu0_L1D AVERAGE itMISS LATENCY: 3.03453 cycles
cpu0_L1D AVERAGE dtMISS LATENCY: 11.691 cycles
cpu0_L1D PAGE CROSSINGS (TLB HIT):         0 
cpu0_L1D PAGE CROSSINGS (TLB MISS):         0 
cpu0_L1D AVERAGE MISS LATENCY: 63.9711 cycles
cpu0_L2C TOTAL       ACCESS:    8483671  HIT:    4151060  MISS:    4332611  iACCESS:    3740409  iHIT:    2283640  iMISS:    1456769  dACCESS:    4283377  dHIT:    1805763  dMISS:    2477614  itACCESS:     103931  itHIT:      19352  itMISS:      84579  dtACCESS:     355954  dtHIT:      42305  dtMISS:     313649
cpu0_L2C LOAD         ACCESS:    2032281  HIT:     999523  MISS:    1032758  iACCESS:     845407  iHIT:     539090  iMISS:     306317  dACCESS:    1186874  dHIT:     460433  dMISS:     726441  itACCESS:          0  itHIT:          0  itMISS:          0  dtACCESS:          0  dtHIT:          0  dtMISS:          0
cpu0_L2C RFO          ACCESS:     212663  HIT:      83306  MISS:     129357  iACCESS:          0  iHIT:          0  iMISS:          0  dACCESS:     212663  dHIT:      83306  dMISS:     129357  itACCESS:          0  itHIT:          0  itMISS:          0  dtACCESS:          0  dtHIT:          0  dtMISS:          0
cpu0_L2C PREFETCH     ACCESS:    5428784  HIT:    2673109  MISS:    2755675  iACCESS:    2895002  iHIT:    1744550  iMISS:    1150452  dACCESS:    2533782  dHIT:     928559  dMISS:    1605223  itACCESS:          0  itHIT:          0  itMISS:          0  dtACCESS:          0  dtHIT:          0  dtMISS:          0
cpu0_L2C WRITE        ACCESS:     350058  HIT:     333465  MISS:      16593  iACCESS:          0  iHIT:          0  iMISS:          0  dACCESS:     350058  dHIT:     333465  dMISS:      16593  itACCESS:          0  itHIT:          0  itMISS:          0  dtACCESS:          0  dtHIT:          0  dtMISS:          0
cpu0_L2C TRANSLATION  ACCESS:     459885  HIT:      61657  MISS:     398228  iACCESS:          0  iHIT:          0  iMISS:          0  dACCESS:          0  dHIT:          0  dMISS:          0  itACCESS:     103931  itHIT:      19352  itMISS:      84579  dtACCESS:     355954  dtHIT:      42305  dtMISS:     313649
cpu0_L2C PREFETCH  REQUESTED:    1503764  ISSUED:    1503764  CROSSED:          0  USEFUL:     351175  USELESS:     317498
cpu0_L2C AVERAGE iMISS LATENCY: 38.295 cycles
cpu0_L2C AVERAGE dMISS LATENCY: 76.2921 cycles
cpu0_L2C AVERAGE itMISS LATENCY: 3.55861 cycles
cpu0_L2C AVERAGE dtMISS LATENCY: 13.8031 cycles
cpu0_L2C PAGE CROSSINGS (TLB HIT):         0 
cpu0_L2C PAGE CROSSINGS (TLB MISS):         0 
cpu0_L2C AVERAGE MISS LATENCY: 131.949 cycles
LLC TOTAL       ACCESS:    4322006  HIT:    1465808  MISS:    2856198  iACCESS:    1366713  iHIT:     485823  iMISS:     880890  dACCESS:    2557065  dHIT:     937308  dMISS:    1619757  itACCESS:      84579  itHIT:       7799  itMISS:      76780  dtACCESS:     313649  dtHIT:      34878  dtMISS:     278771
LLC LOAD         ACCESS:    1027721  HIT:     372975  MISS:     654746  iACCESS:     305182  iHIT:     116151  iMISS:     189031  dACCESS:     722539  dHIT:     256824  dMISS:     465715  itACCESS:          0  itHIT:          0  itMISS:          0  dtACCESS:          0  dtHIT:          0  dtMISS:          0
LLC RFO          ACCESS:     129354  HIT:      44119  MISS:      85235  iACCESS:          0  iHIT:          0  iMISS:          0  dACCESS:     129354  dHIT:      44119  dMISS:      85235  itACCESS:          0  itHIT:          0  itMISS:          0  dtACCESS:          0  dtHIT:          0  dtMISS:          0
LLC PREFETCH     ACCESS:    2554011  HIT:     803190  MISS:    1750821  iACCESS:    1061531  iHIT:     369672  iMISS:     691859  dACCESS:    1492480  dHIT:     433518  dMISS:    1058962  itACCESS:          0  itHIT:          0  itMISS:          0  dtACCESS:          0  dtHIT:          0  dtMISS:          0
LLC WRITE        ACCESS:     212692  HIT:     202847  MISS:       9845  iACCESS:          0  iHIT:          0  iMISS:          0  dACCESS:     212692  dHIT:     202847  dMISS:       9845  itACCESS:          0  itHIT:          0  itMISS:          0  dtACCESS:          0  dtHIT:          0  dtMISS:          0
LLC TRANSLATION  ACCESS:     398228  HIT:      42677  MISS:     355551  iACCESS:          0  iHIT:          0  iMISS:          0  dACCESS:          0  dHIT:          0  dMISS:          0  itACCESS:      84579  itHIT:       7799  itMISS:      76780  dtACCESS:     313649  dtHIT:      34878  dtMISS:     278771
LLC PREFETCH  REQUESTED:          0  ISSUED:          0  CROSSED:          0  USEFUL:          0  USELESS:          0
LLC AVERAGE iMISS LATENCY: 48.6817 cycles
LLC AVERAGE dMISS LATENCY: 100.47 cycles
LLC AVERAGE itMISS LATENCY: 4.8112 cycles
LLC AVERAGE dtMISS LATENCY: 18.7677 cycles
LLC PAGE CROSSINGS (TLB HIT):         0 
LLC PAGE CROSSINGS (TLB MISS):         0 
LLC AVERAGE MISS LATENCY: 172.731 cycles

PageTableWalker TOTAL       ACCESS:     181441  
PageTableWalker AVERAGE LATENCY: 6.35064 cycles
PageTableWalker TOTAL LATENCY: 1152265 cycles

DRAM Statistics
Channel 0
 RQ ROW_BUFFER_HIT:     604057
  ROW_BUFFER_MISS:    2229769
 AVG DBUS CONGESTED CYCLE:     3.6458
 WQ ROW_BUFFER_HIT:      61735
  ROW_BUFFER_MISS:      53016  FULL:          0

