last_page:0x200000000000000
VMEM_RES_CAP:0x100000
PAGE_SIZE:4096
LOG2_PAGE_SIZE:12
LOG2_PAGE_TABLE_SIZE:9
page_table_levels:5
WARNING: physical memory size is smaller than virtual memory size
FDiP enabled with aggresivity 16

*** ChampSim Multicore Out-of-Order Simulator ***

Warmup Instructions: 50000000
Simulation Instructions: 100000000
Number of CPUs: 1
Small page size: 4096
Large page size: 2097152

CPU 0 Bimodal branch predictor
Basic BTB sets: 1024 ways: 8 indirect buffer size: 4096 RAS size: 64
Instruction page size distrubution: 0
Loading instruction page size distribution from /home/bsc/bsc018186/scratch/itp_asplos25_AE/dump/smt_srv207_ap_srv495_ap_1024i.pdst
Data page size distrubution: 0
Loading data page size distribution from /home/bsc/bsc018186/scratch/itp_asplos25_AE/dump/smt_srv207_ap_srv495_ap_1024i.pdst
cpu0_L2C IP-based stride prefetcher
cpu0_L1D next line prefetcher
cpu0_STLB using iTP with max lru@8
cpu0_STLB using iTP with instr@0 and data@2
Init sat counter with 3 bits (max:50).
cpu0_L1I next line prefetcher
Off-chip DRAM Size: 4 GiB Channels: 1 Width: 64-bit Data Rate: 3200 MT/s
Heartbeat CPU 0 instructions: 10000003 cycles: 2500611 heartbeat IPC: 3.99903 cumulative IPC: 3.99903 (Simulation time: 0 hr 0 min 38 sec) 
Heartbeat CPU 0 instructions: 20000000 cycles: 5000901 heartbeat IPC: 3.99954 cumulative IPC: 3.99928 (Simulation time: 0 hr 1 min 17 sec) 
Heartbeat CPU 0 instructions: 30000003 cycles: 7501001 heartbeat IPC: 3.99985 cumulative IPC: 3.99947 (Simulation time: 0 hr 1 min 57 sec) 
Heartbeat CPU 0 instructions: 40000002 cycles: 10001119 heartbeat IPC: 3.99982 cumulative IPC: 3.99956 (Simulation time: 0 hr 2 min 37 sec) 
Heartbeat CPU 0 instructions: 50000000 cycles: 12501219 heartbeat IPC: 3.99984 cumulative IPC: 3.99961 (Simulation time: 0 hr 3 min 18 sec) 
Warmup finished CPU 0 instructions: 50000000 cycles: 12501220 cumulative IPC: 3.99961 (Simulation time: 0 hr 3 min 18 sec) 

Warmup complete CPU 0 instructions: 50000000 cycles: 12501220 (Simulation time: 0 hr 3 min 18 sec) 

Heartbeat CPU 0 instructions: 60000001 cycles: 43439381 heartbeat IPC: 0.323226 cumulative IPC: 0.323226 (Simulation time: 0 hr 4 min 43 sec) 
Heartbeat CPU 0 instructions: 70000003 cycles: 74677413 heartbeat IPC: 0.320123 cumulative IPC: 0.321667 (Simulation time: 0 hr 6 min 8 sec) 
Heartbeat CPU 0 instructions: 80000000 cycles: 107349076 heartbeat IPC: 0.306076 cumulative IPC: 0.316297 (Simulation time: 0 hr 7 min 36 sec) 
Heartbeat CPU 0 instructions: 90000000 cycles: 139467736 heartbeat IPC: 0.311346 cumulative IPC: 0.315044 (Simulation time: 0 hr 9 min 3 sec) 
Heartbeat CPU 0 instructions: 100000003 cycles: 169851732 heartbeat IPC: 0.329121 cumulative IPC: 0.317762 (Simulation time: 0 hr 10 min 27 sec) 
Heartbeat CPU 0 instructions: 110000000 cycles: 201601947 heartbeat IPC: 0.314959 cumulative IPC: 0.317292 (Simulation time: 0 hr 11 min 54 sec) 
Heartbeat CPU 0 instructions: 120000004 cycles: 232757971 heartbeat IPC: 0.320966 cumulative IPC: 0.317811 (Simulation time: 0 hr 13 min 19 sec) 
Heartbeat CPU 0 instructions: 130000003 cycles: 263190368 heartbeat IPC: 0.328598 cumulative IPC: 0.319121 (Simulation time: 0 hr 14 min 44 sec) 
Heartbeat CPU 0 instructions: 140000002 cycles: 295020100 heartbeat IPC: 0.314172 cumulative IPC: 0.318563 (Simulation time: 0 hr 16 min 10 sec) 
Heartbeat CPU 0 instructions: 150000000 cycles: 325940259 heartbeat IPC: 0.323414 cumulative IPC: 0.319042 (Simulation time: 0 hr 17 min 35 sec) 
Simulation finished CPU 0 instructions: 100000000 cycles: 313439040 cumulative IPC: 0.319042 (Simulation time: 0 hr 17 min 35 sec) 

Simulation complete CPU 0 instructions: 100000000 cycles: 313439040 (Simulation time: 0 hr 17 min 35 sec) 


ChampSim completed all CPUs

Saving instructions large page distribution to /home/bsc/bsc018186/scratch/itp_asplos25_AE/dump/smt_srv207_ap_srv495_ap_1024i.pdst...
Saving data large page distribution to /home/bsc/bsc018186/scratch/itp_asplos25_AE/dump/smt_srv207_ap_srv495_ap_1024i.pdst...
=== Simulation ===
CPU 0 runs /gpfs/projects/bsc18/MN4/bsc18/romol/ChampSim/traces/qualcomm_srv/smt_srv207_ap_srv495_ap_1024i.champsimtrace.xz

Region of Interest Statistics

CPU 0 cumulative IPC: 0.319042 instructions: 100000000 cycles: 313439040
CPU 0 Branch Prediction Accuracy: 74.477% MPKI: 45.9621 Average ROB Occupancy at Mispredict: 10.9477
Branch type MPKI
BRANCH_DIRECT_JUMP: 1.44248
BRANCH_INDIRECT: 24.0666
BRANCH_CONDITIONAL: 13.0858
BRANCH_DIRECT_CALL: 2.7496
BRANCH_INDIRECT_CALL: 1.0247
BRANCH_RETURN: 3.59304

Instructions large pages: 0
Instructions small pages: 11428
Large page distribution for instructions: 0%

Data large pages: 0
Data small pages: 9945
Large page distribution for data: 0%

cpu0_L1I TOTAL       ACCESS:   39074585  HIT:   30320291  MISS:    8754294  iACCESS:   39074585  iHIT:   30320291  iMISS:    8754294  dACCESS:          0  dHIT:          0  dMISS:          0  itACCESS:          0  itHIT:          0  itMISS:          0  dtACCESS:          0  dtHIT:          0  dtMISS:          0
cpu0_L1I LOAD         ACCESS:   11555138  HIT:    9169711  MISS:    2385427  iACCESS:   11555138  iHIT:    9169711  iMISS:    2385427  dACCESS:          0  dHIT:          0  dMISS:          0  itACCESS:          0  itHIT:          0  itMISS:          0  dtACCESS:          0  dtHIT:          0  dtMISS:          0
cpu0_L1I RFO          ACCESS:          0  HIT:          0  MISS:          0  iACCESS:          0  iHIT:          0  iMISS:          0  dACCESS:          0  dHIT:          0  dMISS:          0  itACCESS:          0  itHIT:          0  itMISS:          0  dtACCESS:          0  dtHIT:          0  dtMISS:          0
cpu0_L1I PREFETCH     ACCESS:   27519447  HIT:   21150580  MISS:    6368867  iACCESS:   27519447  iHIT:   21150580  iMISS:    6368867  dACCESS:          0  dHIT:          0  dMISS:          0  itACCESS:          0  itHIT:          0  itMISS:          0  dtACCESS:          0  dtHIT:          0  dtMISS:          0
cpu0_L1I WRITE        ACCESS:          0  HIT:          0  MISS:          0  iACCESS:          0  iHIT:          0  iMISS:          0  dACCESS:          0  dHIT:          0  dMISS:          0  itACCESS:          0  itHIT:          0  itMISS:          0  dtACCESS:          0  dtHIT:          0  dtMISS:          0
cpu0_L1I TRANSLATION  ACCESS:          0  HIT:          0  MISS:          0  iACCESS:          0  iHIT:          0  iMISS:          0  dACCESS:          0  dHIT:          0  dMISS:          0  itACCESS:          0  itHIT:          0  itMISS:          0  dtACCESS:          0  dtHIT:          0  dtMISS:          0
cpu0_L1I PREFETCH  REQUESTED:   30211770  ISSUED:   30211411  CROSSED:          0  USEFUL:    2215832  USELESS:     795708
cpu0_L1I AVERAGE iMISS LATENCY: 25.5244 cycles
cpu0_L1I AVERAGE dMISS LATENCY: 0 cycles
cpu0_L1I AVERAGE itMISS LATENCY: 0 cycles
cpu0_L1I AVERAGE dtMISS LATENCY: 0 cycles
cpu0_L1I PAGE CROSSINGS (TLB HIT):         0 
cpu0_L1I PAGE CROSSINGS (TLB MISS):         0 
cpu0_L1I AVERAGE MISS LATENCY: 25.5244 cycles
cpu0_ITLB TOTAL       ACCESS:   33207185  HIT:   30929528  MISS:    2277657  iACCESS:   33207185  iHIT:   30929528  iMISS:    2277657  dACCESS:          0  dHIT:          0  dMISS:          0  itACCESS:          0  itHIT:          0  itMISS:          0  dtACCESS:          0  dtHIT:          0  dtMISS:          0
cpu0_ITLB LOAD         ACCESS:   33207185  HIT:   30929528  MISS:    2277657  iACCESS:   33207185  iHIT:   30929528  iMISS:    2277657  dACCESS:          0  dHIT:          0  dMISS:          0  itACCESS:          0  itHIT:          0  itMISS:          0  dtACCESS:          0  dtHIT:          0  dtMISS:          0
cpu0_ITLB RFO          ACCESS:          0  HIT:          0  MISS:          0  iACCESS:          0  iHIT:          0  iMISS:          0  dACCESS:          0  dHIT:          0  dMISS:          0  itACCESS:          0  itHIT:          0  itMISS:          0  dtACCESS:          0  dtHIT:          0  dtMISS:          0
cpu0_ITLB PREFETCH     ACCESS:          0  HIT:          0  MISS:          0  iACCESS:          0  iHIT:          0  iMISS:          0  dACCESS:          0  dHIT:          0  dMISS:          0  itACCESS:          0  itHIT:          0  itMISS:          0  dtACCESS:          0  dtHIT:          0  dtMISS:          0
cpu0_ITLB WRITE        ACCESS:          0  HIT:          0  MISS:          0  iACCESS:          0  iHIT:          0  iMISS:          0  dACCESS:          0  dHIT:          0  dMISS:          0  itACCESS:          0  itHIT:          0  itMISS:          0  dtACCESS:          0  dtHIT:          0  dtMISS:          0
cpu0_ITLB TRANSLATION  ACCESS:          0  HIT:          0  MISS:          0  iACCESS:          0  iHIT:          0  iMISS:          0  dACCESS:          0  dHIT:          0  dMISS:          0  itACCESS:          0  itHIT:          0  itMISS:          0  dtACCESS:          0  dtHIT:          0  dtMISS:          0
cpu0_ITLB PREFETCH  REQUESTED:          0  ISSUED:          0  CROSSED:          0  USEFUL:     400546  USELESS:      82820
cpu0_ITLB AVERAGE iMISS LATENCY: 7.11222 cycles
cpu0_ITLB AVERAGE dMISS LATENCY: 0 cycles
cpu0_ITLB AVERAGE itMISS LATENCY: 0 cycles
cpu0_ITLB AVERAGE dtMISS LATENCY: 0 cycles
cpu0_ITLB PAGE CROSSINGS (TLB HIT):         0 
cpu0_ITLB PAGE CROSSINGS (TLB MISS):         0 
cpu0_ITLB AVERAGE MISS LATENCY: 7.11222 cycles
cpu0_DTLB TOTAL       ACCESS:   29207790  HIT:   25626024  MISS:    3581766  iACCESS:          0  iHIT:          0  iMISS:          0  dACCESS:   29207790  dHIT:   25626024  dMISS:    3581766  itACCESS:          0  itHIT:          0  itMISS:          0  dtACCESS:          0  dtHIT:          0  dtMISS:          0
cpu0_DTLB LOAD         ACCESS:   29207790  HIT:   25626024  MISS:    3581766  iACCESS:          0  iHIT:          0  iMISS:          0  dACCESS:   29207790  dHIT:   25626024  dMISS:    3581766  itACCESS:          0  itHIT:          0  itMISS:          0  dtACCESS:          0  dtHIT:          0  dtMISS:          0
cpu0_DTLB RFO          ACCESS:          0  HIT:          0  MISS:          0  iACCESS:          0  iHIT:          0  iMISS:          0  dACCESS:          0  dHIT:          0  dMISS:          0  itACCESS:          0  itHIT:          0  itMISS:          0  dtACCESS:          0  dtHIT:          0  dtMISS:          0
cpu0_DTLB PREFETCH     ACCESS:          0  HIT:          0  MISS:          0  iACCESS:          0  iHIT:          0  iMISS:          0  dACCESS:          0  dHIT:          0  dMISS:          0  itACCESS:          0  itHIT:          0  itMISS:          0  dtACCESS:          0  dtHIT:          0  dtMISS:          0
cpu0_DTLB WRITE        ACCESS:          0  HIT:          0  MISS:          0  iACCESS:          0  iHIT:          0  iMISS:          0  dACCESS:          0  dHIT:          0  dMISS:          0  itACCESS:          0  itHIT:          0  itMISS:          0  dtACCESS:          0  dtHIT:          0  dtMISS:          0
cpu0_DTLB TRANSLATION  ACCESS:          0  HIT:          0  MISS:          0  iACCESS:          0  iHIT:          0  iMISS:          0  dACCESS:          0  dHIT:          0  dMISS:          0  itACCESS:          0  itHIT:          0  itMISS:          0  dtACCESS:          0  dtHIT:          0  dtMISS:          0
cpu0_DTLB PREFETCH  REQUESTED:          0  ISSUED:          0  CROSSED:          0  USEFUL:          0  USELESS:          0
cpu0_DTLB AVERAGE iMISS LATENCY: 0 cycles
cpu0_DTLB AVERAGE dMISS LATENCY: 29.2225 cycles
cpu0_DTLB AVERAGE itMISS LATENCY: 0 cycles
cpu0_DTLB AVERAGE dtMISS LATENCY: 0 cycles
cpu0_DTLB PAGE CROSSINGS (TLB HIT):         0 
cpu0_DTLB PAGE CROSSINGS (TLB MISS):         0 
cpu0_DTLB AVERAGE MISS LATENCY: 29.2225 cycles
cpu0_STLB TOTAL       ACCESS:    2583481  HIT:    2191941  MISS:     391540  iACCESS:     483368  iHIT:     419234  iMISS:      64134  dACCESS:    2100113  dHIT:    1772707  dMISS:     327406  itACCESS:          0  itHIT:          0  itMISS:          0  dtACCESS:          0  dtHIT:          0  dtMISS:          0
cpu0_STLB LOAD         ACCESS:    2583481  HIT:    2191941  MISS:     391540  iACCESS:     483368  iHIT:     419234  iMISS:      64134  dACCESS:    2100113  dHIT:    1772707  dMISS:     327406  itACCESS:          0  itHIT:          0  itMISS:          0  dtACCESS:          0  dtHIT:          0  dtMISS:          0
cpu0_STLB RFO          ACCESS:          0  HIT:          0  MISS:          0  iACCESS:          0  iHIT:          0  iMISS:          0  dACCESS:          0  dHIT:          0  dMISS:          0  itACCESS:          0  itHIT:          0  itMISS:          0  dtACCESS:          0  dtHIT:          0  dtMISS:          0
cpu0_STLB PREFETCH     ACCESS:          0  HIT:          0  MISS:          0  iACCESS:          0  iHIT:          0  iMISS:          0  dACCESS:          0  dHIT:          0  dMISS:          0  itACCESS:          0  itHIT:          0  itMISS:          0  dtACCESS:          0  dtHIT:          0  dtMISS:          0
cpu0_STLB WRITE        ACCESS:          0  HIT:          0  MISS:          0  iACCESS:          0  iHIT:          0  iMISS:          0  dACCESS:          0  dHIT:          0  dMISS:          0  itACCESS:          0  itHIT:          0  itMISS:          0  dtACCESS:          0  dtHIT:          0  dtMISS:          0
cpu0_STLB TRANSLATION  ACCESS:          0  HIT:          0  MISS:          0  iACCESS:          0  iHIT:          0  iMISS:          0  dACCESS:          0  dHIT:          0  dMISS:          0  itACCESS:          0  itHIT:          0  itMISS:          0  dtACCESS:          0  dtHIT:          0  dtMISS:          0
cpu0_STLB PREFETCH  REQUESTED:          0  ISSUED:          0  CROSSED:          0  USEFUL:          0  USELESS:          0
cpu0_STLB AVERAGE iMISS LATENCY: 31.648 cycles
cpu0_STLB AVERAGE dMISS LATENCY: 223.989 cycles
cpu0_STLB AVERAGE itMISS LATENCY: 0 cycles
cpu0_STLB AVERAGE dtMISS LATENCY: 0 cycles
cpu0_STLB PAGE CROSSINGS (TLB HIT):         0 
cpu0_STLB PAGE CROSSINGS (TLB MISS):         0 
cpu0_STLB AVERAGE MISS LATENCY: 255.637 cycles
cpu0_L1D TOTAL       ACCESS:   45669433  HIT:   39650611  MISS:    6018822  iACCESS:          0  iHIT:          0  iMISS:          0  dACCESS:   45068857  dHIT:   39621047  dMISS:    5447810  itACCESS:      74982  itHIT:       5628  itMISS:      69354  dtACCESS:     525594  dtHIT:      23936  dtMISS:     501658
cpu0_L1D LOAD         ACCESS:   20635744  HIT:   18175715  MISS:    2460029  iACCESS:          0  iHIT:          0  iMISS:          0  dACCESS:   20635744  dHIT:   18175715  dMISS:    2460029  itACCESS:          0  itHIT:          0  itMISS:          0  dtACCESS:          0  dtHIT:          0  dtMISS:          0
cpu0_L1D RFO          ACCESS:          0  HIT:          0  MISS:          0  iACCESS:          0  iHIT:          0  iMISS:          0  dACCESS:          0  dHIT:          0  dMISS:          0  itACCESS:          0  itHIT:          0  itMISS:          0  dtACCESS:          0  dtHIT:          0  dtMISS:          0
cpu0_L1D PREFETCH     ACCESS:   14314008  HIT:   11921090  MISS:    2392918  iACCESS:          0  iHIT:          0  iMISS:          0  dACCESS:   14314008  dHIT:   11921090  dMISS:    2392918  itACCESS:          0  itHIT:          0  itMISS:          0  dtACCESS:          0  dtHIT:          0  dtMISS:          0
cpu0_L1D WRITE        ACCESS:   10119105  HIT:    9524242  MISS:     594863  iACCESS:          0  iHIT:          0  iMISS:          0  dACCESS:   10119105  dHIT:    9524242  dMISS:     594863  itACCESS:          0  itHIT:          0  itMISS:          0  dtACCESS:          0  dtHIT:          0  dtMISS:          0
cpu0_L1D TRANSLATION  ACCESS:     600576  HIT:      29564  MISS:     571012  iACCESS:          0  iHIT:          0  iMISS:          0  dACCESS:          0  dHIT:          0  dMISS:          0  itACCESS:      74982  itHIT:       5628  itMISS:      69354  dtACCESS:     525594  dtHIT:      23936  dtMISS:     501658
cpu0_L1D PREFETCH  REQUESTED:   20635744  ISSUED:   18873304  CROSSED:          0  USEFUL:     380332  USELESS:     962440
cpu0_L1D AVERAGE iMISS LATENCY: 0 cycles
cpu0_L1D AVERAGE dMISS LATENCY: 50.4705 cycles
cpu0_L1D AVERAGE itMISS LATENCY: 1.95035 cycles
cpu0_L1D AVERAGE dtMISS LATENCY: 13.685 cycles
cpu0_L1D PAGE CROSSINGS (TLB HIT):         0 
cpu0_L1D PAGE CROSSINGS (TLB MISS):         0 
cpu0_L1D AVERAGE MISS LATENCY: 66.1058 cycles
cpu0_L2C TOTAL       ACCESS:    8844959  HIT:    4248117  MISS:    4596842  iACCESS:    3834164  iHIT:    2305710  iMISS:    1528454  dACCESS:    4475508  dHIT:    1873388  dMISS:    2602120  itACCESS:      69344  itHIT:      10705  itMISS:      58639  dtACCESS:     465943  dtHIT:      58314  dtMISS:     407629
cpu0_L2C LOAD         ACCESS:    2117840  HIT:    1023646  MISS:    1094194  iACCESS:     856858  iHIT:     538994  iMISS:     317864  dACCESS:    1260982  dHIT:     484652  dMISS:     776330  itACCESS:          0  itHIT:          0  itMISS:          0  dtACCESS:          0  dtHIT:          0  dtMISS:          0
cpu0_L2C RFO          ACCESS:     226003  HIT:      90369  MISS:     135634  iACCESS:          0  iHIT:          0  iMISS:          0  dACCESS:     226003  dHIT:      90369  dMISS:     135634  itACCESS:          0  itHIT:          0  itMISS:          0  dtACCESS:          0  dtHIT:          0  dtMISS:          0
cpu0_L2C PREFETCH     ACCESS:    5614907  HIT:    2717869  MISS:    2897038  iACCESS:    2977306  iHIT:    1766716  iMISS:    1210590  dACCESS:    2637601  dHIT:     951153  dMISS:    1686448  itACCESS:          0  itHIT:          0  itMISS:          0  dtACCESS:          0  dtHIT:          0  dtMISS:          0
cpu0_L2C WRITE        ACCESS:     350922  HIT:     347214  MISS:       3708  iACCESS:          0  iHIT:          0  iMISS:          0  dACCESS:     350922  dHIT:     347214  dMISS:       3708  itACCESS:          0  itHIT:          0  itMISS:          0  dtACCESS:          0  dtHIT:          0  dtMISS:          0
cpu0_L2C TRANSLATION  ACCESS:     535287  HIT:      69019  MISS:     466268  iACCESS:          0  iHIT:          0  iMISS:          0  dACCESS:          0  dHIT:          0  dMISS:          0  itACCESS:      69344  itHIT:      10705  itMISS:      58639  dtACCESS:     465943  dtHIT:      58314  dtMISS:     407629
cpu0_L2C PREFETCH  REQUESTED:    1533249  ISSUED:    1533247  CROSSED:          0  USEFUL:     354218  USELESS:     333642
cpu0_L2C AVERAGE iMISS LATENCY: 41.7062 cycles
cpu0_L2C AVERAGE dMISS LATENCY: 81.804 cycles
cpu0_L2C AVERAGE itMISS LATENCY: 2.40466 cycles
cpu0_L2C AVERAGE dtMISS LATENCY: 16.9112 cycles
cpu0_L2C PAGE CROSSINGS (TLB HIT):         0 
cpu0_L2C PAGE CROSSINGS (TLB MISS):         0 
cpu0_L2C AVERAGE MISS LATENCY: 142.826 cycles
LLC TOTAL       ACCESS:    4587164  HIT:    1300244  MISS:    3286920  iACCESS:    1439430  iHIT:     420055  iMISS:    1019375  dACCESS:    2681466  dHIT:     827774  dMISS:    1853692  itACCESS:      58639  itHIT:       3366  itMISS:      55273  dtACCESS:     407629  dtHIT:      49049  dtMISS:     358580
LLC LOAD         ACCESS:    1085988  HIT:     321125  MISS:     764863  iACCESS:     316671  iHIT:     100138  iMISS:     216533  dACCESS:     769317  dHIT:     220987  dMISS:     548330  itACCESS:          0  itHIT:          0  itMISS:          0  dtACCESS:          0  dtHIT:          0  dtMISS:          0
LLC RFO          ACCESS:     135624  HIT:      39320  MISS:      96304  iACCESS:          0  iHIT:          0  iMISS:          0  dACCESS:     135624  dHIT:      39320  dMISS:      96304  itACCESS:          0  itHIT:          0  itMISS:          0  dtACCESS:          0  dtHIT:          0  dtMISS:          0
LLC PREFETCH     ACCESS:    2685656  HIT:     684261  MISS:    2001395  iACCESS:    1122759  iHIT:     319917  iMISS:     802842  dACCESS:    1562897  dHIT:     364344  dMISS:    1198553  itACCESS:          0  itHIT:          0  itMISS:          0  dtACCESS:          0  dtHIT:          0  dtMISS:          0
LLC WRITE        ACCESS:     213628  HIT:     203123  MISS:      10505  iACCESS:          0  iHIT:          0  iMISS:          0  dACCESS:     213628  dHIT:     203123  dMISS:      10505  itACCESS:          0  itHIT:          0  itMISS:          0  dtACCESS:          0  dtHIT:          0  dtMISS:          0
LLC TRANSLATION  ACCESS:     466268  HIT:      52415  MISS:     413853  iACCESS:          0  iHIT:          0  iMISS:          0  dACCESS:          0  dHIT:          0  dMISS:          0  itACCESS:      58639  itHIT:       3366  itMISS:      55273  dtACCESS:     407629  dtHIT:      49049  dtMISS:     358580
LLC PREFETCH  REQUESTED:          0  ISSUED:          0  CROSSED:          0  USEFUL:          0  USELESS:          0
LLC AVERAGE iMISS LATENCY: 49.6955 cycles
LLC AVERAGE dMISS LATENCY: 100.482 cycles
LLC AVERAGE itMISS LATENCY: 3.00887 cycles
LLC AVERAGE dtMISS LATENCY: 21.1996 cycles
LLC PAGE CROSSINGS (TLB HIT):         0 
LLC PAGE CROSSINGS (TLB MISS):         0 
LLC AVERAGE MISS LATENCY: 174.385 cycles

PageTableWalker TOTAL       ACCESS:     189377  
PageTableWalker AVERAGE LATENCY: 6.77941 cycles
PageTableWalker TOTAL LATENCY: 1283863 cycles

DRAM Statistics
Channel 0
 RQ ROW_BUFFER_HIT:     676856
  ROW_BUFFER_MISS:    2580766
 AVG DBUS CONGESTED CYCLE:    3.65197
 WQ ROW_BUFFER_HIT:      68929
  ROW_BUFFER_MISS:      59250  FULL:          0

