last_page:0x200000000000000
VMEM_RES_CAP:0x100000
PAGE_SIZE:4096
LOG2_PAGE_SIZE:12
LOG2_PAGE_TABLE_SIZE:9
page_table_levels:5
WARNING: physical memory size is smaller than virtual memory size
FDiP enabled with aggresivity 16

*** ChampSim Multicore Out-of-Order Simulator ***

Warmup Instructions: 50000000
Simulation Instructions: 100000000
Number of CPUs: 1
Small page size: 4096
Large page size: 2097152

CPU 0 Bimodal branch predictor
Basic BTB sets: 1024 ways: 8 indirect buffer size: 4096 RAS size: 64
Instruction page size distrubution: 0
Loading instruction page size distribution from /home/bsc/bsc018186/scratch/itp_asplos25_AE/dump/smt_srv85_ap_srv551_ap_1024i.pdst
Data page size distrubution: 0
Loading data page size distribution from /home/bsc/bsc018186/scratch/itp_asplos25_AE/dump/smt_srv85_ap_srv551_ap_1024i.pdst
cpu0_L2C IP-based stride prefetcher
cpu0_L1D next line prefetcher
cpu0_STLB using iTP with max lru@8
cpu0_STLB using iTP with instr@0 and data@2
Init sat counter with 3 bits (max:50).
cpu0_L1I next line prefetcher
Off-chip DRAM Size: 4 GiB Channels: 1 Width: 64-bit Data Rate: 3200 MT/s
Heartbeat CPU 0 instructions: 10000000 cycles: 2500333 heartbeat IPC: 3.99947 cumulative IPC: 3.99947 (Simulation time: 0 hr 0 min 43 sec) 
Heartbeat CPU 0 instructions: 20000001 cycles: 5000520 heartbeat IPC: 3.99971 cumulative IPC: 3.99959 (Simulation time: 0 hr 1 min 28 sec) 
Heartbeat CPU 0 instructions: 30000000 cycles: 7500728 heartbeat IPC: 3.99967 cumulative IPC: 3.99962 (Simulation time: 0 hr 2 min 12 sec) 
Heartbeat CPU 0 instructions: 40000000 cycles: 10000875 heartbeat IPC: 3.99977 cumulative IPC: 3.99966 (Simulation time: 0 hr 2 min 56 sec) 
Heartbeat CPU 0 instructions: 50000003 cycles: 12501114 heartbeat IPC: 3.99962 cumulative IPC: 3.99965 (Simulation time: 0 hr 3 min 42 sec) 
Warmup finished CPU 0 instructions: 50000003 cycles: 12501115 cumulative IPC: 3.99965 (Simulation time: 0 hr 3 min 42 sec) 

Warmup complete CPU 0 instructions: 50000003 cycles: 12501115 (Simulation time: 0 hr 3 min 42 sec) 

Heartbeat CPU 0 instructions: 60000000 cycles: 40661735 heartbeat IPC: 0.355106 cumulative IPC: 0.355106 (Simulation time: 0 hr 5 min 8 sec) 
Heartbeat CPU 0 instructions: 70000000 cycles: 69690655 heartbeat IPC: 0.344485 cumulative IPC: 0.349715 (Simulation time: 0 hr 6 min 34 sec) 
Heartbeat CPU 0 instructions: 80000003 cycles: 97775450 heartbeat IPC: 0.356065 cumulative IPC: 0.351806 (Simulation time: 0 hr 8 min 4 sec) 
Heartbeat CPU 0 instructions: 90000002 cycles: 126194283 heartbeat IPC: 0.35188 cumulative IPC: 0.351825 (Simulation time: 0 hr 9 min 35 sec) 
Heartbeat CPU 0 instructions: 100000000 cycles: 155023873 heartbeat IPC: 0.346866 cumulative IPC: 0.350822 (Simulation time: 0 hr 11 min 4 sec) 
Heartbeat CPU 0 instructions: 110000000 cycles: 182853970 heartbeat IPC: 0.359324 cumulative IPC: 0.352211 (Simulation time: 0 hr 12 min 34 sec) 
Heartbeat CPU 0 instructions: 120000000 cycles: 207136652 heartbeat IPC: 0.411817 cumulative IPC: 0.359647 (Simulation time: 0 hr 13 min 57 sec) 
Heartbeat CPU 0 instructions: 130000001 cycles: 224429593 heartbeat IPC: 0.578271 cumulative IPC: 0.377486 (Simulation time: 0 hr 15 min 11 sec) 
Heartbeat CPU 0 instructions: 140000003 cycles: 242308446 heartbeat IPC: 0.559321 cumulative IPC: 0.391633 (Simulation time: 0 hr 16 min 30 sec) 
Heartbeat CPU 0 instructions: 150000000 cycles: 272315662 heartbeat IPC: 0.333254 cumulative IPC: 0.38489 (Simulation time: 0 hr 18 min 3 sec) 
Simulation finished CPU 0 instructions: 100000002 cycles: 259814549 cumulative IPC: 0.38489 (Simulation time: 0 hr 18 min 3 sec) 

Simulation complete CPU 0 instructions: 100000002 cycles: 259814549 (Simulation time: 0 hr 18 min 3 sec) 


ChampSim completed all CPUs

Saving instructions large page distribution to /home/bsc/bsc018186/scratch/itp_asplos25_AE/dump/smt_srv85_ap_srv551_ap_1024i.pdst...
Saving data large page distribution to /home/bsc/bsc018186/scratch/itp_asplos25_AE/dump/smt_srv85_ap_srv551_ap_1024i.pdst...
=== Simulation ===
CPU 0 runs /gpfs/projects/bsc18/MN4/bsc18/romol/ChampSim/traces/qualcomm_srv/smt_srv85_ap_srv551_ap_1024i.champsimtrace.xz

Region of Interest Statistics

CPU 0 cumulative IPC: 0.38489 instructions: 100000002 cycles: 259814549
CPU 0 Branch Prediction Accuracy: 77.8805% MPKI: 42.6554 Average ROB Occupancy at Mispredict: 11.5753
Branch type MPKI
BRANCH_DIRECT_JUMP: 1.24167
BRANCH_INDIRECT: 23.0029
BRANCH_CONDITIONAL: 11.689
BRANCH_DIRECT_CALL: 2.35968
BRANCH_INDIRECT_CALL: 1.06193
BRANCH_RETURN: 3.30024

Instructions large pages: 0
Instructions small pages: 10447
Large page distribution for instructions: 0%

Data large pages: 0
Data small pages: 8982
Large page distribution for data: 0%

cpu0_L1I TOTAL       ACCESS:   40086046  HIT:   31892503  MISS:    8193543  iACCESS:   40086046  iHIT:   31892503  iMISS:    8193543  dACCESS:          0  dHIT:          0  dMISS:          0  itACCESS:          0  itHIT:          0  itMISS:          0  dtACCESS:          0  dtHIT:          0  dtMISS:          0
cpu0_L1I LOAD         ACCESS:   11441355  HIT:    9217033  MISS:    2224322  iACCESS:   11441355  iHIT:    9217033  iMISS:    2224322  dACCESS:          0  dHIT:          0  dMISS:          0  itACCESS:          0  itHIT:          0  itMISS:          0  dtACCESS:          0  dtHIT:          0  dtMISS:          0
cpu0_L1I RFO          ACCESS:          0  HIT:          0  MISS:          0  iACCESS:          0  iHIT:          0  iMISS:          0  dACCESS:          0  dHIT:          0  dMISS:          0  itACCESS:          0  itHIT:          0  itMISS:          0  dtACCESS:          0  dtHIT:          0  dtMISS:          0
cpu0_L1I PREFETCH     ACCESS:   28644691  HIT:   22675470  MISS:    5969221  iACCESS:   28644691  iHIT:   22675470  iMISS:    5969221  dACCESS:          0  dHIT:          0  dMISS:          0  itACCESS:          0  itHIT:          0  itMISS:          0  dtACCESS:          0  dtHIT:          0  dtMISS:          0
cpu0_L1I WRITE        ACCESS:          0  HIT:          0  MISS:          0  iACCESS:          0  iHIT:          0  iMISS:          0  dACCESS:          0  dHIT:          0  dMISS:          0  itACCESS:          0  itHIT:          0  itMISS:          0  dtACCESS:          0  dtHIT:          0  dtMISS:          0
cpu0_L1I TRANSLATION  ACCESS:          0  HIT:          0  MISS:          0  iACCESS:          0  iHIT:          0  iMISS:          0  dACCESS:          0  dHIT:          0  dMISS:          0  itACCESS:          0  itHIT:          0  itMISS:          0  dtACCESS:          0  dtHIT:          0  dtMISS:          0
cpu0_L1I PREFETCH  REQUESTED:   31162859  ISSUED:   31161599  CROSSED:          0  USEFUL:    1974095  USELESS:     683566
cpu0_L1I AVERAGE iMISS LATENCY: 24.3566 cycles
cpu0_L1I AVERAGE dMISS LATENCY: 0 cycles
cpu0_L1I AVERAGE itMISS LATENCY: 0 cycles
cpu0_L1I AVERAGE dtMISS LATENCY: 0 cycles
cpu0_L1I PAGE CROSSINGS (TLB HIT):         0 
cpu0_L1I PAGE CROSSINGS (TLB MISS):         0 
cpu0_L1I AVERAGE MISS LATENCY: 24.3566 cycles
cpu0_ITLB TOTAL       ACCESS:   33535942  HIT:   31557409  MISS:    1978533  iACCESS:   33535942  iHIT:   31557409  iMISS:    1978533  dACCESS:          0  dHIT:          0  dMISS:          0  itACCESS:          0  itHIT:          0  itMISS:          0  dtACCESS:          0  dtHIT:          0  dtMISS:          0
cpu0_ITLB LOAD         ACCESS:   33535942  HIT:   31557409  MISS:    1978533  iACCESS:   33535942  iHIT:   31557409  iMISS:    1978533  dACCESS:          0  dHIT:          0  dMISS:          0  itACCESS:          0  itHIT:          0  itMISS:          0  dtACCESS:          0  dtHIT:          0  dtMISS:          0
cpu0_ITLB RFO          ACCESS:          0  HIT:          0  MISS:          0  iACCESS:          0  iHIT:          0  iMISS:          0  dACCESS:          0  dHIT:          0  dMISS:          0  itACCESS:          0  itHIT:          0  itMISS:          0  dtACCESS:          0  dtHIT:          0  dtMISS:          0
cpu0_ITLB PREFETCH     ACCESS:          0  HIT:          0  MISS:          0  iACCESS:          0  iHIT:          0  iMISS:          0  dACCESS:          0  dHIT:          0  dMISS:          0  itACCESS:          0  itHIT:          0  itMISS:          0  dtACCESS:          0  dtHIT:          0  dtMISS:          0
cpu0_ITLB WRITE        ACCESS:          0  HIT:          0  MISS:          0  iACCESS:          0  iHIT:          0  iMISS:          0  dACCESS:          0  dHIT:          0  dMISS:          0  itACCESS:          0  itHIT:          0  itMISS:          0  dtACCESS:          0  dtHIT:          0  dtMISS:          0
cpu0_ITLB TRANSLATION  ACCESS:          0  HIT:          0  MISS:          0  iACCESS:          0  iHIT:          0  iMISS:          0  dACCESS:          0  dHIT:          0  dMISS:          0  itACCESS:          0  itHIT:          0  itMISS:          0  dtACCESS:          0  dtHIT:          0  dtMISS:          0
cpu0_ITLB PREFETCH  REQUESTED:          0  ISSUED:          0  CROSSED:          0  USEFUL:     347982  USELESS:      70855
cpu0_ITLB AVERAGE iMISS LATENCY: 5.9244 cycles
cpu0_ITLB AVERAGE dMISS LATENCY: 0 cycles
cpu0_ITLB AVERAGE itMISS LATENCY: 0 cycles
cpu0_ITLB AVERAGE dtMISS LATENCY: 0 cycles
cpu0_ITLB PAGE CROSSINGS (TLB HIT):         0 
cpu0_ITLB PAGE CROSSINGS (TLB MISS):         0 
cpu0_ITLB AVERAGE MISS LATENCY: 5.9244 cycles
cpu0_DTLB TOTAL       ACCESS:   30792989  HIT:   24703034  MISS:    6089955  iACCESS:          0  iHIT:          0  iMISS:          0  dACCESS:   30792989  dHIT:   24703034  dMISS:    6089955  itACCESS:          0  itHIT:          0  itMISS:          0  dtACCESS:          0  dtHIT:          0  dtMISS:          0
cpu0_DTLB LOAD         ACCESS:   30792989  HIT:   24703034  MISS:    6089955  iACCESS:          0  iHIT:          0  iMISS:          0  dACCESS:   30792989  dHIT:   24703034  dMISS:    6089955  itACCESS:          0  itHIT:          0  itMISS:          0  dtACCESS:          0  dtHIT:          0  dtMISS:          0
cpu0_DTLB RFO          ACCESS:          0  HIT:          0  MISS:          0  iACCESS:          0  iHIT:          0  iMISS:          0  dACCESS:          0  dHIT:          0  dMISS:          0  itACCESS:          0  itHIT:          0  itMISS:          0  dtACCESS:          0  dtHIT:          0  dtMISS:          0
cpu0_DTLB PREFETCH     ACCESS:          0  HIT:          0  MISS:          0  iACCESS:          0  iHIT:          0  iMISS:          0  dACCESS:          0  dHIT:          0  dMISS:          0  itACCESS:          0  itHIT:          0  itMISS:          0  dtACCESS:          0  dtHIT:          0  dtMISS:          0
cpu0_DTLB WRITE        ACCESS:          0  HIT:          0  MISS:          0  iACCESS:          0  iHIT:          0  iMISS:          0  dACCESS:          0  dHIT:          0  dMISS:          0  itACCESS:          0  itHIT:          0  itMISS:          0  dtACCESS:          0  dtHIT:          0  dtMISS:          0
cpu0_DTLB TRANSLATION  ACCESS:          0  HIT:          0  MISS:          0  iACCESS:          0  iHIT:          0  iMISS:          0  dACCESS:          0  dHIT:          0  dMISS:          0  itACCESS:          0  itHIT:          0  itMISS:          0  dtACCESS:          0  dtHIT:          0  dtMISS:          0
cpu0_DTLB PREFETCH  REQUESTED:          0  ISSUED:          0  CROSSED:          0  USEFUL:          0  USELESS:          0
cpu0_DTLB AVERAGE iMISS LATENCY: 0 cycles
cpu0_DTLB AVERAGE dMISS LATENCY: 11.6973 cycles
cpu0_DTLB AVERAGE itMISS LATENCY: 0 cycles
cpu0_DTLB AVERAGE dtMISS LATENCY: 0 cycles
cpu0_DTLB PAGE CROSSINGS (TLB HIT):         0 
cpu0_DTLB PAGE CROSSINGS (TLB MISS):         0 
cpu0_DTLB AVERAGE MISS LATENCY: 11.6973 cycles
cpu0_STLB TOTAL       ACCESS:    3691439  HIT:    3361526  MISS:     329913  iACCESS:     418851  iHIT:     364847  iMISS:      54004  dACCESS:    3272588  dHIT:    2996679  dMISS:     275909  itACCESS:          0  itHIT:          0  itMISS:          0  dtACCESS:          0  dtHIT:          0  dtMISS:          0
cpu0_STLB LOAD         ACCESS:    3691439  HIT:    3361526  MISS:     329913  iACCESS:     418851  iHIT:     364847  iMISS:      54004  dACCESS:    3272588  dHIT:    2996679  dMISS:     275909  itACCESS:          0  itHIT:          0  itMISS:          0  dtACCESS:          0  dtHIT:          0  dtMISS:          0
cpu0_STLB RFO          ACCESS:          0  HIT:          0  MISS:          0  iACCESS:          0  iHIT:          0  iMISS:          0  dACCESS:          0  dHIT:          0  dMISS:          0  itACCESS:          0  itHIT:          0  itMISS:          0  dtACCESS:          0  dtHIT:          0  dtMISS:          0
cpu0_STLB PREFETCH     ACCESS:          0  HIT:          0  MISS:          0  iACCESS:          0  iHIT:          0  iMISS:          0  dACCESS:          0  dHIT:          0  dMISS:          0  itACCESS:          0  itHIT:          0  itMISS:          0  dtACCESS:          0  dtHIT:          0  dtMISS:          0
cpu0_STLB WRITE        ACCESS:          0  HIT:          0  MISS:          0  iACCESS:          0  iHIT:          0  iMISS:          0  dACCESS:          0  dHIT:          0  dMISS:          0  itACCESS:          0  itHIT:          0  itMISS:          0  dtACCESS:          0  dtHIT:          0  dtMISS:          0
cpu0_STLB TRANSLATION  ACCESS:          0  HIT:          0  MISS:          0  iACCESS:          0  iHIT:          0  iMISS:          0  dACCESS:          0  dHIT:          0  dMISS:          0  itACCESS:          0  itHIT:          0  itMISS:          0  dtACCESS:          0  dtHIT:          0  dtMISS:          0
cpu0_STLB PREFETCH  REQUESTED:          0  ISSUED:          0  CROSSED:          0  USEFUL:          0  USELESS:          0
cpu0_STLB AVERAGE iMISS LATENCY: 25.5419 cycles
cpu0_STLB AVERAGE dMISS LATENCY: 135.62 cycles
cpu0_STLB AVERAGE itMISS LATENCY: 0 cycles
cpu0_STLB AVERAGE dtMISS LATENCY: 0 cycles
cpu0_STLB PAGE CROSSINGS (TLB HIT):         0 
cpu0_STLB PAGE CROSSINGS (TLB MISS):         0 
cpu0_STLB AVERAGE MISS LATENCY: 161.162 cycles
cpu0_L1D TOTAL       ACCESS:   49346468  HIT:   39675336  MISS:    9671132  iACCESS:          0  iHIT:          0  iMISS:          0  dACCESS:   48844575  dHIT:   39651134  dMISS:    9193441  itACCESS:      63274  itHIT:       4656  itMISS:      58618  dtACCESS:     438619  dtHIT:      19546  dtMISS:     419073
cpu0_L1D LOAD         ACCESS:   23516479  HIT:   18421136  MISS:    5095343  iACCESS:          0  iHIT:          0  iMISS:          0  dACCESS:   23516479  dHIT:   18421136  dMISS:    5095343  itACCESS:          0  itHIT:          0  itMISS:          0  dtACCESS:          0  dtHIT:          0  dtMISS:          0
cpu0_L1D RFO          ACCESS:          0  HIT:          0  MISS:          0  iACCESS:          0  iHIT:          0  iMISS:          0  dACCESS:          0  dHIT:          0  dMISS:          0  itACCESS:          0  itHIT:          0  itMISS:          0  dtACCESS:          0  dtHIT:          0  dtMISS:          0
cpu0_L1D PREFETCH     ACCESS:   15544904  HIT:   12036207  MISS:    3508697  iACCESS:          0  iHIT:          0  iMISS:          0  dACCESS:   15544904  dHIT:   12036207  dMISS:    3508697  itACCESS:          0  itHIT:          0  itMISS:          0  dtACCESS:          0  dtHIT:          0  dtMISS:          0
cpu0_L1D WRITE        ACCESS:    9783192  HIT:    9193791  MISS:     589401  iACCESS:          0  iHIT:          0  iMISS:          0  dACCESS:    9783192  dHIT:    9193791  dMISS:     589401  itACCESS:          0  itHIT:          0  itMISS:          0  dtACCESS:          0  dtHIT:          0  dtMISS:          0
cpu0_L1D TRANSLATION  ACCESS:     501893  HIT:      24202  MISS:     477691  iACCESS:          0  iHIT:          0  iMISS:          0  dACCESS:          0  dHIT:          0  dMISS:          0  itACCESS:      63274  itHIT:       4656  itMISS:      58618  dtACCESS:     438619  dtHIT:      19546  dtMISS:     419073
cpu0_L1D PREFETCH  REQUESTED:   23516479  ISSUED:   18932067  CROSSED:          0  USEFUL:     328082  USELESS:    1064883
cpu0_L1D AVERAGE iMISS LATENCY: 0 cycles
cpu0_L1D AVERAGE dMISS LATENCY: 31.3248 cycles
cpu0_L1D AVERAGE itMISS LATENCY: 0.81175 cycles
cpu0_L1D AVERAGE dtMISS LATENCY: 4.14674 cycles
cpu0_L1D PAGE CROSSINGS (TLB HIT):         0 
cpu0_L1D PAGE CROSSINGS (TLB MISS):         0 
cpu0_L1D AVERAGE MISS LATENCY: 36.2833 cycles
cpu0_L2C TOTAL       ACCESS:    9799786  HIT:    2158564  MISS:    7641222  iACCESS:    3369673  iHIT:     706411  iMISS:    2663262  dACCESS:    5980182  dHIT:    1276138  dMISS:    4704044  itACCESS:      58118  itHIT:      13390  itMISS:      44728  dtACCESS:     391813  dtHIT:     162625  dtMISS:     229188
cpu0_L2C LOAD         ACCESS:    3607254  HIT:     848502  MISS:    2758752  iACCESS:     743368  iHIT:     101427  iMISS:     641941  dACCESS:    2863886  dHIT:     747075  dMISS:    2116811  itACCESS:          0  itHIT:          0  itMISS:          0  dtACCESS:          0  dtHIT:          0  dtMISS:          0
cpu0_L2C RFO          ACCESS:     225833  HIT:      45766  MISS:     180067  iACCESS:          0  iHIT:          0  iMISS:          0  dACCESS:     225833  dHIT:      45766  dMISS:     180067  itACCESS:          0  itHIT:          0  itMISS:          0  dtACCESS:          0  dtHIT:          0  dtMISS:          0
cpu0_L2C PREFETCH     ACCESS:    5191756  HIT:     980646  MISS:    4211110  iACCESS:    2626305  iHIT:     604984  iMISS:    2021321  dACCESS:    2565451  dHIT:     375662  dMISS:    2189789  itACCESS:          0  itHIT:          0  itMISS:          0  dtACCESS:          0  dtHIT:          0  dtMISS:          0
cpu0_L2C WRITE        ACCESS:     325012  HIT:     107635  MISS:     217377  iACCESS:          0  iHIT:          0  iMISS:          0  dACCESS:     325012  dHIT:     107635  dMISS:     217377  itACCESS:          0  itHIT:          0  itMISS:          0  dtACCESS:          0  dtHIT:          0  dtMISS:          0
cpu0_L2C TRANSLATION  ACCESS:     449931  HIT:     176015  MISS:     273916  iACCESS:          0  iHIT:          0  iMISS:          0  dACCESS:          0  dHIT:          0  dMISS:          0  itACCESS:      58118  itHIT:      13390  itMISS:      44728  dtACCESS:     391813  dtHIT:     162625  dtMISS:     229188
cpu0_L2C PREFETCH  REQUESTED:    1386107  ISSUED:    1386092  CROSSED:          0  USEFUL:     365319  USELESS:     437441
cpu0_L2C AVERAGE iMISS LATENCY: 22.3763 cycles
cpu0_L2C AVERAGE dMISS LATENCY: 44.6663 cycles
cpu0_L2C AVERAGE itMISS LATENCY: 0.952855 cycles
cpu0_L2C AVERAGE dtMISS LATENCY: 4.75456 cycles
cpu0_L2C PAGE CROSSINGS (TLB HIT):         0 
cpu0_L2C PAGE CROSSINGS (TLB MISS):         0 
cpu0_L2C AVERAGE MISS LATENCY: 72.7499 cycles
LLC TOTAL       ACCESS:    7459392  HIT:    5020322  MISS:    2439070  iACCESS:    2582533  iHIT:    1813283  iMISS:     769250  dACCESS:    4602943  dHIT:    3137147  dMISS:    1465796  itACCESS:      44728  itHIT:       8745  itMISS:      35983  dtACCESS:     229188  dtHIT:      61147  dtMISS:     168041
LLC LOAD         ACCESS:    2750862  HIT:    2161412  MISS:     589450  iACCESS:     640714  iHIT:     478763  iMISS:     161951  dACCESS:    2110148  dHIT:    1682649  dMISS:     427499  itACCESS:          0  itHIT:          0  itMISS:          0  dtACCESS:          0  dtHIT:          0  dtMISS:          0
LLC RFO          ACCESS:     180035  HIT:     100162  MISS:      79873  iACCESS:          0  iHIT:          0  iMISS:          0  dACCESS:     180035  dHIT:     100162  dMISS:      79873  itACCESS:          0  itHIT:          0  itMISS:          0  dtACCESS:          0  dtHIT:          0  dtMISS:          0
LLC PREFETCH     ACCESS:    4006378  HIT:    2446908  MISS:    1559470  iACCESS:    1941819  iHIT:    1334520  iMISS:     607299  dACCESS:    2064559  dHIT:    1112388  dMISS:     952171  itACCESS:          0  itHIT:          0  itMISS:          0  dtACCESS:          0  dtHIT:          0  dtMISS:          0
LLC WRITE        ACCESS:     248201  HIT:     241948  MISS:       6253  iACCESS:          0  iHIT:          0  iMISS:          0  dACCESS:     248201  dHIT:     241948  dMISS:       6253  itACCESS:          0  itHIT:          0  itMISS:          0  dtACCESS:          0  dtHIT:          0  dtMISS:          0
LLC TRANSLATION  ACCESS:     273916  HIT:      69892  MISS:     204024  iACCESS:          0  iHIT:          0  iMISS:          0  dACCESS:          0  dHIT:          0  dMISS:          0  itACCESS:      44728  itHIT:       8745  itMISS:      35983  dtACCESS:     229188  dtHIT:      61147  dtMISS:     168041
LLC PREFETCH  REQUESTED:          0  ISSUED:          0  CROSSED:          0  USEFUL:          0  USELESS:          0
LLC AVERAGE iMISS LATENCY: 49.5397 cycles
LLC AVERAGE dMISS LATENCY: 106.071 cycles
LLC AVERAGE itMISS LATENCY: 2.62328 cycles
LLC AVERAGE dtMISS LATENCY: 13.0464 cycles
LLC PAGE CROSSINGS (TLB HIT):         0 
LLC PAGE CROSSINGS (TLB MISS):         0 
LLC AVERAGE MISS LATENCY: 171.28 cycles

PageTableWalker TOTAL       ACCESS:     191036  
PageTableWalker AVERAGE LATENCY: 6.16353 cycles
PageTableWalker TOTAL LATENCY: 1177456 cycles

DRAM Statistics
Channel 0
 RQ ROW_BUFFER_HIT:     553267
  ROW_BUFFER_MISS:    1862819
 AVG DBUS CONGESTED CYCLE:    3.65604
 WQ ROW_BUFFER_HIT:      58708
  ROW_BUFFER_MISS:      55141  FULL:          0

