last_page:0x200000000000000
VMEM_RES_CAP:0x100000
PAGE_SIZE:4096
LOG2_PAGE_SIZE:12
LOG2_PAGE_TABLE_SIZE:9
page_table_levels:5
WARNING: physical memory size is smaller than virtual memory size
FDiP enabled with aggresivity 16

*** ChampSim Multicore Out-of-Order Simulator ***

Warmup Instructions: 50000000
Simulation Instructions: 100000000
Number of CPUs: 1
Small page size: 4096
Large page size: 2097152

CPU 0 Bimodal branch predictor
Basic BTB sets: 1024 ways: 8 indirect buffer size: 4096 RAS size: 64
Instruction page size distrubution: 0
Loading instruction page size distribution from /home/bsc/bsc018186/scratch/itp_asplos25_AE/dump/smt_srv207_ap_srv727_ap_1024i.pdst
Data page size distrubution: 0
Loading data page size distribution from /home/bsc/bsc018186/scratch/itp_asplos25_AE/dump/smt_srv207_ap_srv727_ap_1024i.pdst
cpu0_L2C IP-based stride prefetcher
cpu0_L2C is using PTP replacement policy:
	TLB_STRESS_THRESHOLD:0
	PTE_EVICTION_RATIO:0
cpu0_L1D next line prefetcher
cpu0_STLB using iTP with max lru@8
cpu0_STLB using iTP with instr@0 and data@2
Init sat counter with 3 bits (max:50).
cpu0_L1I next line prefetcher
Off-chip DRAM Size: 4 GiB Channels: 1 Width: 64-bit Data Rate: 3200 MT/s
Heartbeat CPU 0 instructions: 10000003 cycles: 2500900 heartbeat IPC: 3.99857 cumulative IPC: 3.99857 (Simulation time: 0 hr 0 min 36 sec) 
Heartbeat CPU 0 instructions: 20000001 cycles: 5001064 heartbeat IPC: 3.99974 cumulative IPC: 3.99915 (Simulation time: 0 hr 1 min 15 sec) 
Heartbeat CPU 0 instructions: 30000001 cycles: 7501225 heartbeat IPC: 3.99975 cumulative IPC: 3.99935 (Simulation time: 0 hr 1 min 53 sec) 
Heartbeat CPU 0 instructions: 40000000 cycles: 10001511 heartbeat IPC: 3.99955 cumulative IPC: 3.9994 (Simulation time: 0 hr 2 min 32 sec) 
Heartbeat CPU 0 instructions: 50000003 cycles: 12501697 heartbeat IPC: 3.99971 cumulative IPC: 3.99946 (Simulation time: 0 hr 3 min 11 sec) 
Warmup finished CPU 0 instructions: 50000003 cycles: 12501698 cumulative IPC: 3.99946 (Simulation time: 0 hr 3 min 11 sec) 

Warmup complete CPU 0 instructions: 50000003 cycles: 12501698 (Simulation time: 0 hr 3 min 11 sec) 

Heartbeat CPU 0 instructions: 60000004 cycles: 42307005 heartbeat IPC: 0.335511 cumulative IPC: 0.335511 (Simulation time: 0 hr 4 min 32 sec) 
Heartbeat CPU 0 instructions: 70000004 cycles: 72956270 heartbeat IPC: 0.326273 cumulative IPC: 0.330827 (Simulation time: 0 hr 5 min 53 sec) 
Heartbeat CPU 0 instructions: 80000001 cycles: 104778096 heartbeat IPC: 0.31425 cumulative IPC: 0.325111 (Simulation time: 0 hr 7 min 17 sec) 
Heartbeat CPU 0 instructions: 90000000 cycles: 136109266 heartbeat IPC: 0.319171 cumulative IPC: 0.323605 (Simulation time: 0 hr 8 min 40 sec) 
Heartbeat CPU 0 instructions: 100000000 cycles: 166922749 heartbeat IPC: 0.324534 cumulative IPC: 0.323791 (Simulation time: 0 hr 10 min 2 sec) 
Heartbeat CPU 0 instructions: 110000000 cycles: 198655484 heartbeat IPC: 0.315132 cumulative IPC: 0.322315 (Simulation time: 0 hr 11 min 26 sec) 
Heartbeat CPU 0 instructions: 120000002 cycles: 229632140 heartbeat IPC: 0.322824 cumulative IPC: 0.322387 (Simulation time: 0 hr 12 min 49 sec) 
Heartbeat CPU 0 instructions: 130000000 cycles: 259688108 heartbeat IPC: 0.332713 cumulative IPC: 0.323643 (Simulation time: 0 hr 14 min 10 sec) 
Heartbeat CPU 0 instructions: 140000002 cycles: 291607140 heartbeat IPC: 0.313293 cumulative IPC: 0.322459 (Simulation time: 0 hr 15 min 34 sec) 
Heartbeat CPU 0 instructions: 150000003 cycles: 322422048 heartbeat IPC: 0.324519 cumulative IPC: 0.322664 (Simulation time: 0 hr 16 min 57 sec) 
Simulation finished CPU 0 instructions: 100000000 cycles: 309920351 cumulative IPC: 0.322664 (Simulation time: 0 hr 16 min 57 sec) 

Simulation complete CPU 0 instructions: 100000000 cycles: 309920351 (Simulation time: 0 hr 16 min 57 sec) 


ChampSim completed all CPUs

Saving instructions large page distribution to /home/bsc/bsc018186/scratch/itp_asplos25_AE/dump/smt_srv207_ap_srv727_ap_1024i.pdst...
Saving data large page distribution to /home/bsc/bsc018186/scratch/itp_asplos25_AE/dump/smt_srv207_ap_srv727_ap_1024i.pdst...
=== Simulation ===
CPU 0 runs /gpfs/projects/bsc18/MN4/bsc18/romol/ChampSim/traces/qualcomm_srv/smt_srv207_ap_srv727_ap_1024i.champsimtrace.xz

Region of Interest Statistics

CPU 0 cumulative IPC: 0.322664 instructions: 100000000 cycles: 309920351
CPU 0 Branch Prediction Accuracy: 74.5167% MPKI: 45.8478 Average ROB Occupancy at Mispredict: 10.9253
Branch type MPKI
BRANCH_DIRECT_JUMP: 1.43369
BRANCH_INDIRECT: 24.037
BRANCH_CONDITIONAL: 13.0153
BRANCH_DIRECT_CALL: 2.74011
BRANCH_INDIRECT_CALL: 1.02378
BRANCH_RETURN: 3.59799

Instructions large pages: 0
Instructions small pages: 11368
Large page distribution for instructions: 0%

Data large pages: 0
Data small pages: 9849
Large page distribution for data: 0%

cpu0_L1I TOTAL       ACCESS:   39024773  HIT:   30266710  MISS:    8758063  iACCESS:   39024773  iHIT:   30266710  iMISS:    8758063  dACCESS:          0  dHIT:          0  dMISS:          0  itACCESS:          0  itHIT:          0  itMISS:          0  dtACCESS:          0  dtHIT:          0  dtMISS:          0
cpu0_L1I LOAD         ACCESS:   11539294  HIT:    9154181  MISS:    2385113  iACCESS:   11539294  iHIT:    9154181  iMISS:    2385113  dACCESS:          0  dHIT:          0  dMISS:          0  itACCESS:          0  itHIT:          0  itMISS:          0  dtACCESS:          0  dtHIT:          0  dtMISS:          0
cpu0_L1I RFO          ACCESS:          0  HIT:          0  MISS:          0  iACCESS:          0  iHIT:          0  iMISS:          0  dACCESS:          0  dHIT:          0  dMISS:          0  itACCESS:          0  itHIT:          0  itMISS:          0  dtACCESS:          0  dtHIT:          0  dtMISS:          0
cpu0_L1I PREFETCH     ACCESS:   27485479  HIT:   21112529  MISS:    6372950  iACCESS:   27485479  iHIT:   21112529  iMISS:    6372950  dACCESS:          0  dHIT:          0  dMISS:          0  itACCESS:          0  itHIT:          0  itMISS:          0  dtACCESS:          0  dtHIT:          0  dtMISS:          0
cpu0_L1I WRITE        ACCESS:          0  HIT:          0  MISS:          0  iACCESS:          0  iHIT:          0  iMISS:          0  dACCESS:          0  dHIT:          0  dMISS:          0  itACCESS:          0  itHIT:          0  itMISS:          0  dtACCESS:          0  dtHIT:          0  dtMISS:          0
cpu0_L1I TRANSLATION  ACCESS:          0  HIT:          0  MISS:          0  iACCESS:          0  iHIT:          0  iMISS:          0  dACCESS:          0  dHIT:          0  dMISS:          0  itACCESS:          0  itHIT:          0  itMISS:          0  dtACCESS:          0  dtHIT:          0  dtMISS:          0
cpu0_L1I PREFETCH  REQUESTED:   30173714  ISSUED:   30173701  CROSSED:          0  USEFUL:    2208931  USELESS:     793659
cpu0_L1I AVERAGE iMISS LATENCY: 25.2853 cycles
cpu0_L1I AVERAGE dMISS LATENCY: 0 cycles
cpu0_L1I AVERAGE itMISS LATENCY: 0 cycles
cpu0_L1I AVERAGE dtMISS LATENCY: 0 cycles
cpu0_L1I PAGE CROSSINGS (TLB HIT):         0 
cpu0_L1I PAGE CROSSINGS (TLB MISS):         0 
cpu0_L1I AVERAGE MISS LATENCY: 25.2853 cycles
cpu0_ITLB TOTAL       ACCESS:   33155361  HIT:   30887958  MISS:    2267403  iACCESS:   33155361  iHIT:   30887958  iMISS:    2267403  dACCESS:          0  dHIT:          0  dMISS:          0  itACCESS:          0  itHIT:          0  itMISS:          0  dtACCESS:          0  dtHIT:          0  dtMISS:          0
cpu0_ITLB LOAD         ACCESS:   33155361  HIT:   30887958  MISS:    2267403  iACCESS:   33155361  iHIT:   30887958  iMISS:    2267403  dACCESS:          0  dHIT:          0  dMISS:          0  itACCESS:          0  itHIT:          0  itMISS:          0  dtACCESS:          0  dtHIT:          0  dtMISS:          0
cpu0_ITLB RFO          ACCESS:          0  HIT:          0  MISS:          0  iACCESS:          0  iHIT:          0  iMISS:          0  dACCESS:          0  dHIT:          0  dMISS:          0  itACCESS:          0  itHIT:          0  itMISS:          0  dtACCESS:          0  dtHIT:          0  dtMISS:          0
cpu0_ITLB PREFETCH     ACCESS:          0  HIT:          0  MISS:          0  iACCESS:          0  iHIT:          0  iMISS:          0  dACCESS:          0  dHIT:          0  dMISS:          0  itACCESS:          0  itHIT:          0  itMISS:          0  dtACCESS:          0  dtHIT:          0  dtMISS:          0
cpu0_ITLB WRITE        ACCESS:          0  HIT:          0  MISS:          0  iACCESS:          0  iHIT:          0  iMISS:          0  dACCESS:          0  dHIT:          0  dMISS:          0  itACCESS:          0  itHIT:          0  itMISS:          0  dtACCESS:          0  dtHIT:          0  dtMISS:          0
cpu0_ITLB TRANSLATION  ACCESS:          0  HIT:          0  MISS:          0  iACCESS:          0  iHIT:          0  iMISS:          0  dACCESS:          0  dHIT:          0  dMISS:          0  itACCESS:          0  itHIT:          0  itMISS:          0  dtACCESS:          0  dtHIT:          0  dtMISS:          0
cpu0_ITLB PREFETCH  REQUESTED:          0  ISSUED:          0  CROSSED:          0  USEFUL:     399026  USELESS:      82840
cpu0_ITLB AVERAGE iMISS LATENCY: 7.08634 cycles
cpu0_ITLB AVERAGE dMISS LATENCY: 0 cycles
cpu0_ITLB AVERAGE itMISS LATENCY: 0 cycles
cpu0_ITLB AVERAGE dtMISS LATENCY: 0 cycles
cpu0_ITLB PAGE CROSSINGS (TLB HIT):         0 
cpu0_ITLB PAGE CROSSINGS (TLB MISS):         0 
cpu0_ITLB AVERAGE MISS LATENCY: 7.08634 cycles
cpu0_DTLB TOTAL       ACCESS:   29218149  HIT:   25685041  MISS:    3533108  iACCESS:          0  iHIT:          0  iMISS:          0  dACCESS:   29218149  dHIT:   25685041  dMISS:    3533108  itACCESS:          0  itHIT:          0  itMISS:          0  dtACCESS:          0  dtHIT:          0  dtMISS:          0
cpu0_DTLB LOAD         ACCESS:   29218149  HIT:   25685041  MISS:    3533108  iACCESS:          0  iHIT:          0  iMISS:          0  dACCESS:   29218149  dHIT:   25685041  dMISS:    3533108  itACCESS:          0  itHIT:          0  itMISS:          0  dtACCESS:          0  dtHIT:          0  dtMISS:          0
cpu0_DTLB RFO          ACCESS:          0  HIT:          0  MISS:          0  iACCESS:          0  iHIT:          0  iMISS:          0  dACCESS:          0  dHIT:          0  dMISS:          0  itACCESS:          0  itHIT:          0  itMISS:          0  dtACCESS:          0  dtHIT:          0  dtMISS:          0
cpu0_DTLB PREFETCH     ACCESS:          0  HIT:          0  MISS:          0  iACCESS:          0  iHIT:          0  iMISS:          0  dACCESS:          0  dHIT:          0  dMISS:          0  itACCESS:          0  itHIT:          0  itMISS:          0  dtACCESS:          0  dtHIT:          0  dtMISS:          0
cpu0_DTLB WRITE        ACCESS:          0  HIT:          0  MISS:          0  iACCESS:          0  iHIT:          0  iMISS:          0  dACCESS:          0  dHIT:          0  dMISS:          0  itACCESS:          0  itHIT:          0  itMISS:          0  dtACCESS:          0  dtHIT:          0  dtMISS:          0
cpu0_DTLB TRANSLATION  ACCESS:          0  HIT:          0  MISS:          0  iACCESS:          0  iHIT:          0  iMISS:          0  dACCESS:          0  dHIT:          0  dMISS:          0  itACCESS:          0  itHIT:          0  itMISS:          0  dtACCESS:          0  dtHIT:          0  dtMISS:          0
cpu0_DTLB PREFETCH  REQUESTED:          0  ISSUED:          0  CROSSED:          0  USEFUL:          0  USELESS:          0
cpu0_DTLB AVERAGE iMISS LATENCY: 0 cycles
cpu0_DTLB AVERAGE dMISS LATENCY: 28.7263 cycles
cpu0_DTLB AVERAGE itMISS LATENCY: 0 cycles
cpu0_DTLB AVERAGE dtMISS LATENCY: 0 cycles
cpu0_DTLB PAGE CROSSINGS (TLB HIT):         0 
cpu0_DTLB PAGE CROSSINGS (TLB MISS):         0 
cpu0_DTLB AVERAGE MISS LATENCY: 28.7263 cycles
cpu0_STLB TOTAL       ACCESS:    2566941  HIT:    2176151  MISS:     390790  iACCESS:     481871  iHIT:     417407  iMISS:      64464  dACCESS:    2085070  dHIT:    1758744  dMISS:     326326  itACCESS:          0  itHIT:          0  itMISS:          0  dtACCESS:          0  dtHIT:          0  dtMISS:          0
cpu0_STLB LOAD         ACCESS:    2566941  HIT:    2176151  MISS:     390790  iACCESS:     481871  iHIT:     417407  iMISS:      64464  dACCESS:    2085070  dHIT:    1758744  dMISS:     326326  itACCESS:          0  itHIT:          0  itMISS:          0  dtACCESS:          0  dtHIT:          0  dtMISS:          0
cpu0_STLB RFO          ACCESS:          0  HIT:          0  MISS:          0  iACCESS:          0  iHIT:          0  iMISS:          0  dACCESS:          0  dHIT:          0  dMISS:          0  itACCESS:          0  itHIT:          0  itMISS:          0  dtACCESS:          0  dtHIT:          0  dtMISS:          0
cpu0_STLB PREFETCH     ACCESS:          0  HIT:          0  MISS:          0  iACCESS:          0  iHIT:          0  iMISS:          0  dACCESS:          0  dHIT:          0  dMISS:          0  itACCESS:          0  itHIT:          0  itMISS:          0  dtACCESS:          0  dtHIT:          0  dtMISS:          0
cpu0_STLB WRITE        ACCESS:          0  HIT:          0  MISS:          0  iACCESS:          0  iHIT:          0  iMISS:          0  dACCESS:          0  dHIT:          0  dMISS:          0  itACCESS:          0  itHIT:          0  itMISS:          0  dtACCESS:          0  dtHIT:          0  dtMISS:          0
cpu0_STLB TRANSLATION  ACCESS:          0  HIT:          0  MISS:          0  iACCESS:          0  iHIT:          0  iMISS:          0  dACCESS:          0  dHIT:          0  dMISS:          0  itACCESS:          0  itHIT:          0  itMISS:          0  dtACCESS:          0  dtHIT:          0  dtMISS:          0
cpu0_STLB PREFETCH  REQUESTED:          0  ISSUED:          0  CROSSED:          0  USEFUL:          0  USELESS:          0
cpu0_STLB AVERAGE iMISS LATENCY: 31.4035 cycles
cpu0_STLB AVERAGE dMISS LATENCY: 216.606 cycles
cpu0_STLB AVERAGE itMISS LATENCY: 0 cycles
cpu0_STLB AVERAGE dtMISS LATENCY: 0 cycles
cpu0_STLB PAGE CROSSINGS (TLB HIT):         0 
cpu0_STLB PAGE CROSSINGS (TLB MISS):         0 
cpu0_STLB AVERAGE MISS LATENCY: 248.01 cycles
cpu0_L1D TOTAL       ACCESS:   45623320  HIT:   39666447  MISS:    5956873  iACCESS:          0  iHIT:          0  iMISS:          0  dACCESS:   45025752  dHIT:   39636680  dMISS:    5389072  itACCESS:      75480  itHIT:       5897  itMISS:      69583  dtACCESS:     522088  dtHIT:      23870  dtMISS:     498218
cpu0_L1D LOAD         ACCESS:   20629681  HIT:   18205210  MISS:    2424471  iACCESS:          0  iHIT:          0  iMISS:          0  dACCESS:   20629681  dHIT:   18205210  dMISS:    2424471  itACCESS:          0  itHIT:          0  itMISS:          0  dtACCESS:          0  dtHIT:          0  dtMISS:          0
cpu0_L1D RFO          ACCESS:          0  HIT:          0  MISS:          0  iACCESS:          0  iHIT:          0  iMISS:          0  dACCESS:          0  dHIT:          0  dMISS:          0  itACCESS:          0  itHIT:          0  itMISS:          0  dtACCESS:          0  dtHIT:          0  dtMISS:          0
cpu0_L1D PREFETCH     ACCESS:   14277512  HIT:   11920734  MISS:    2356778  iACCESS:          0  iHIT:          0  iMISS:          0  dACCESS:   14277512  dHIT:   11920734  dMISS:    2356778  itACCESS:          0  itHIT:          0  itMISS:          0  dtACCESS:          0  dtHIT:          0  dtMISS:          0
cpu0_L1D WRITE        ACCESS:   10118559  HIT:    9510736  MISS:     607823  iACCESS:          0  iHIT:          0  iMISS:          0  dACCESS:   10118559  dHIT:    9510736  dMISS:     607823  itACCESS:          0  itHIT:          0  itMISS:          0  dtACCESS:          0  dtHIT:          0  dtMISS:          0
cpu0_L1D TRANSLATION  ACCESS:     597568  HIT:      29767  MISS:     567801  iACCESS:          0  iHIT:          0  iMISS:          0  dACCESS:          0  dHIT:          0  dMISS:          0  itACCESS:      75480  itHIT:       5897  itMISS:      69583  dtACCESS:     522088  dtHIT:      23870  dtMISS:     498218
cpu0_L1D PREFETCH  REQUESTED:   20629681  ISSUED:   18874673  CROSSED:          0  USEFUL:     381164  USELESS:     962193
cpu0_L1D AVERAGE iMISS LATENCY: 0 cycles
cpu0_L1D AVERAGE dMISS LATENCY: 50.428 cycles
cpu0_L1D AVERAGE itMISS LATENCY: 1.94999 cycles
cpu0_L1D AVERAGE dtMISS LATENCY: 13.3321 cycles
cpu0_L1D PAGE CROSSINGS (TLB HIT):         0 
cpu0_L1D PAGE CROSSINGS (TLB MISS):         0 
cpu0_L1D AVERAGE MISS LATENCY: 65.71 cycles
cpu0_L2C TOTAL       ACCESS:    8827787  HIT:    4008978  MISS:    4818809  iACCESS:    3821722  iHIT:    2181572  iMISS:    1640150  dACCESS:    4472317  dHIT:    1746871  dMISS:    2725446  itACCESS:      69336  itHIT:      10271  itMISS:      59065  dtACCESS:     464412  dtHIT:      70264  dtMISS:     394148
cpu0_L2C LOAD         ACCESS:    2114454  HIT:     959179  MISS:    1155275  iACCESS:     853815  iHIT:     501745  iMISS:     352070  dACCESS:    1260639  dHIT:     457434  dMISS:     803205  itACCESS:          0  itHIT:          0  itMISS:          0  dtACCESS:          0  dtHIT:          0  dtMISS:          0
cpu0_L2C RFO          ACCESS:     226592  HIT:      77543  MISS:     149049  iACCESS:          0  iHIT:          0  iMISS:          0  dACCESS:     226592  dHIT:      77543  dMISS:     149049  itACCESS:          0  itHIT:          0  itMISS:          0  dtACCESS:          0  dtHIT:          0  dtMISS:          0
cpu0_L2C PREFETCH     ACCESS:    5601514  HIT:    2577141  MISS:    3024373  iACCESS:    2967907  iHIT:    1679827  iMISS:    1288080  dACCESS:    2633607  dHIT:     897314  dMISS:    1736293  itACCESS:          0  itHIT:          0  itMISS:          0  dtACCESS:          0  dtHIT:          0  dtMISS:          0
cpu0_L2C WRITE        ACCESS:     351479  HIT:     314580  MISS:      36899  iACCESS:          0  iHIT:          0  iMISS:          0  dACCESS:     351479  dHIT:     314580  dMISS:      36899  itACCESS:          0  itHIT:          0  itMISS:          0  dtACCESS:          0  dtHIT:          0  dtMISS:          0
cpu0_L2C TRANSLATION  ACCESS:     533748  HIT:      80535  MISS:     453213  iACCESS:          0  iHIT:          0  iMISS:          0  dACCESS:          0  dHIT:          0  dMISS:          0  itACCESS:      69336  itHIT:      10271  itMISS:      59065  dtACCESS:     464412  dtHIT:      70264  dtMISS:     394148
cpu0_L2C PREFETCH  REQUESTED:    1529708  ISSUED:    1529701  CROSSED:          0  USEFUL:     355970  USELESS:     346192
cpu0_L2C AVERAGE iMISS LATENCY: 39.4383 cycles
cpu0_L2C AVERAGE dMISS LATENCY: 77.0431 cycles
cpu0_L2C AVERAGE itMISS LATENCY: 2.26829 cycles
cpu0_L2C AVERAGE dtMISS LATENCY: 15.5259 cycles
cpu0_L2C PAGE CROSSINGS (TLB HIT):         0 
cpu0_L2C PAGE CROSSINGS (TLB MISS):         0 
cpu0_L2C AVERAGE MISS LATENCY: 134.276 cycles
LLC TOTAL       ACCESS:    4789508  HIT:    1577340  MISS:    3212168  iACCESS:    1552872  iHIT:     561393  iMISS:     991479  dACCESS:    2783423  dHIT:     963047  dMISS:    1820376  itACCESS:      59065  itHIT:       4636  itMISS:      54429  dtACCESS:     394148  dtHIT:      48264  dtMISS:     345884
LLC LOAD         ACCESS:    1147301  HIT:     396276  MISS:     751025  iACCESS:     350899  iHIT:     138944  iMISS:     211955  dACCESS:     796402  dHIT:     257332  dMISS:     539070  itACCESS:          0  itHIT:          0  itMISS:          0  dtACCESS:          0  dtHIT:          0  dtMISS:          0
LLC RFO          ACCESS:     149045  HIT:      52318  MISS:      96727  iACCESS:          0  iHIT:          0  iMISS:          0  dACCESS:     149045  dHIT:      52318  dMISS:      96727  itACCESS:          0  itHIT:          0  itMISS:          0  dtACCESS:          0  dtHIT:          0  dtMISS:          0
LLC PREFETCH     ACCESS:    2816362  HIT:     861611  MISS:    1954751  iACCESS:    1201973  iHIT:     422449  iMISS:     779524  dACCESS:    1614389  dHIT:     439162  dMISS:    1175227  itACCESS:          0  itHIT:          0  itMISS:          0  dtACCESS:          0  dtHIT:          0  dtMISS:          0
LLC WRITE        ACCESS:     223587  HIT:     214235  MISS:       9352  iACCESS:          0  iHIT:          0  iMISS:          0  dACCESS:     223587  dHIT:     214235  dMISS:       9352  itACCESS:          0  itHIT:          0  itMISS:          0  dtACCESS:          0  dtHIT:          0  dtMISS:          0
LLC TRANSLATION  ACCESS:     453213  HIT:      52900  MISS:     400313  iACCESS:          0  iHIT:          0  iMISS:          0  dACCESS:          0  dHIT:          0  dMISS:          0  itACCESS:      59065  itHIT:       4636  itMISS:      54429  dtACCESS:     394148  dtHIT:      48264  dtMISS:     345884
LLC PREFETCH  REQUESTED:          0  ISSUED:          0  CROSSED:          0  USEFUL:          0  USELESS:          0
LLC AVERAGE iMISS LATENCY: 49.6627 cycles
LLC AVERAGE dMISS LATENCY: 100.729 cycles
LLC AVERAGE itMISS LATENCY: 3.03819 cycles
LLC AVERAGE dtMISS LATENCY: 20.8663 cycles
LLC PAGE CROSSINGS (TLB HIT):         0 
LLC PAGE CROSSINGS (TLB MISS):         0 
LLC AVERAGE MISS LATENCY: 174.296 cycles

PageTableWalker TOTAL       ACCESS:     190651  
PageTableWalker AVERAGE LATENCY: 6.64752 cycles
PageTableWalker TOTAL LATENCY: 1267356 cycles

DRAM Statistics
Channel 0
 RQ ROW_BUFFER_HIT:     655535
  ROW_BUFFER_MISS:    2528525
 AVG DBUS CONGESTED CYCLE:    3.65335
 WQ ROW_BUFFER_HIT:      69086
  ROW_BUFFER_MISS:      59631  FULL:          0

