last_page:0x200000000000000
VMEM_RES_CAP:0x100000
PAGE_SIZE:4096
LOG2_PAGE_SIZE:12
LOG2_PAGE_TABLE_SIZE:9
page_table_levels:5
WARNING: physical memory size is smaller than virtual memory size
FDiP enabled with aggresivity 16

*** ChampSim Multicore Out-of-Order Simulator ***

Warmup Instructions: 50000000
Simulation Instructions: 100000000
Number of CPUs: 1
Small page size: 4096
Large page size: 2097152

CPU 0 Bimodal branch predictor
Basic BTB sets: 1024 ways: 8 indirect buffer size: 4096 RAS size: 64
Instruction page size distrubution: 0
Loading instruction page size distribution from /home/bsc/bsc018186/scratch/itp_asplos25_AE/dump/smt_srv540_ap_srv526_ap_1024i.pdst
Data page size distrubution: 0
Loading data page size distribution from /home/bsc/bsc018186/scratch/itp_asplos25_AE/dump/smt_srv540_ap_srv526_ap_1024i.pdst
cpu0_L2C IP-based stride prefetcher
cpu0_L1D next line prefetcher
CHiRPing...
cpu0_L1I next line prefetcher
Off-chip DRAM Size: 4 GiB Channels: 1 Width: 64-bit Data Rate: 3200 MT/s
Heartbeat CPU 0 instructions: 10000003 cycles: 2500537 heartbeat IPC: 3.99915 cumulative IPC: 3.99915 (Simulation time: 0 hr 0 min 41 sec) 
Heartbeat CPU 0 instructions: 20000001 cycles: 5000796 heartbeat IPC: 3.99959 cumulative IPC: 3.99937 (Simulation time: 0 hr 1 min 23 sec) 
Heartbeat CPU 0 instructions: 30000001 cycles: 7583747 heartbeat IPC: 3.87155 cumulative IPC: 3.95583 (Simulation time: 0 hr 2 min 7 sec) 
Heartbeat CPU 0 instructions: 40000002 cycles: 10129342 heartbeat IPC: 3.92836 cumulative IPC: 3.94893 (Simulation time: 0 hr 2 min 52 sec) 
Heartbeat CPU 0 instructions: 50000003 cycles: 12655283 heartbeat IPC: 3.95893 cumulative IPC: 3.95092 (Simulation time: 0 hr 3 min 37 sec) 
Warmup finished CPU 0 instructions: 50000003 cycles: 12655284 cumulative IPC: 3.95092 (Simulation time: 0 hr 3 min 37 sec) 

Warmup complete CPU 0 instructions: 50000003 cycles: 12655284 (Simulation time: 0 hr 3 min 37 sec) 

Heartbeat CPU 0 instructions: 60000003 cycles: 39521133 heartbeat IPC: 0.37222 cumulative IPC: 0.37222 (Simulation time: 0 hr 5 min 1 sec) 
Heartbeat CPU 0 instructions: 70000004 cycles: 67520958 heartbeat IPC: 0.357146 cumulative IPC: 0.364527 (Simulation time: 0 hr 6 min 25 sec) 
Heartbeat CPU 0 instructions: 80000002 cycles: 95055699 heartbeat IPC: 0.363178 cumulative IPC: 0.364076 (Simulation time: 0 hr 7 min 50 sec) 
Heartbeat CPU 0 instructions: 90000000 cycles: 122063397 heartbeat IPC: 0.370265 cumulative IPC: 0.365604 (Simulation time: 0 hr 9 min 13 sec) 
Heartbeat CPU 0 instructions: 100000001 cycles: 150632018 heartbeat IPC: 0.350035 cumulative IPC: 0.36238 (Simulation time: 0 hr 10 min 39 sec) 
Heartbeat CPU 0 instructions: 110000000 cycles: 178277601 heartbeat IPC: 0.361722 cumulative IPC: 0.362271 (Simulation time: 0 hr 12 min 4 sec) 
Heartbeat CPU 0 instructions: 120000000 cycles: 205410279 heartbeat IPC: 0.36856 cumulative IPC: 0.363156 (Simulation time: 0 hr 13 min 28 sec) 
Heartbeat CPU 0 instructions: 130000002 cycles: 232767717 heartbeat IPC: 0.365532 cumulative IPC: 0.363451 (Simulation time: 0 hr 14 min 54 sec) 
Heartbeat CPU 0 instructions: 140000002 cycles: 260746453 heartbeat IPC: 0.357415 cumulative IPC: 0.36277 (Simulation time: 0 hr 16 min 21 sec) 
Heartbeat CPU 0 instructions: 150000001 cycles: 288308315 heartbeat IPC: 0.362821 cumulative IPC: 0.362775 (Simulation time: 0 hr 17 min 47 sec) 
Simulation finished CPU 0 instructions: 100000003 cycles: 275653033 cumulative IPC: 0.362775 (Simulation time: 0 hr 17 min 47 sec) 

Simulation complete CPU 0 instructions: 100000003 cycles: 275653033 (Simulation time: 0 hr 17 min 47 sec) 


ChampSim completed all CPUs

Saving instructions large page distribution to /home/bsc/bsc018186/scratch/itp_asplos25_AE/dump/smt_srv540_ap_srv526_ap_1024i.pdst...
Saving data large page distribution to /home/bsc/bsc018186/scratch/itp_asplos25_AE/dump/smt_srv540_ap_srv526_ap_1024i.pdst...
=== Simulation ===
CPU 0 runs /gpfs/projects/bsc18/MN4/bsc18/romol/ChampSim/traces/qualcomm_srv/smt_srv540_ap_srv526_ap_1024i.champsimtrace.xz

Region of Interest Statistics

CPU 0 cumulative IPC: 0.362775 instructions: 100000003 cycles: 275653033
CPU 0 Branch Prediction Accuracy: 75.4686% MPKI: 44.1966 Average ROB Occupancy at Mispredict: 10.6197
Branch type MPKI
BRANCH_DIRECT_JUMP: 1.45597
BRANCH_INDIRECT: 22.808
BRANCH_CONDITIONAL: 12.6845
BRANCH_DIRECT_CALL: 2.66873
BRANCH_INDIRECT_CALL: 1.00036
BRANCH_RETURN: 3.57917

Instructions large pages: 0
Instructions small pages: 13358
Large page distribution for instructions: 0%

Data large pages: 0
Data small pages: 11962
Large page distribution for data: 0%

cpu0_L1I TOTAL       ACCESS:   39406283  HIT:   30250113  MISS:    9156170  iACCESS:   39406283  iHIT:   30250113  iMISS:    9156170  dACCESS:          0  dHIT:          0  dMISS:          0  itACCESS:          0  itHIT:          0  itMISS:          0  dtACCESS:          0  dtHIT:          0  dtMISS:          0
cpu0_L1I LOAD         ACCESS:   11756435  HIT:    9262821  MISS:    2493614  iACCESS:   11756435  iHIT:    9262821  iMISS:    2493614  dACCESS:          0  dHIT:          0  dMISS:          0  itACCESS:          0  itHIT:          0  itMISS:          0  dtACCESS:          0  dtHIT:          0  dtMISS:          0
cpu0_L1I RFO          ACCESS:          0  HIT:          0  MISS:          0  iACCESS:          0  iHIT:          0  iMISS:          0  dACCESS:          0  dHIT:          0  dMISS:          0  itACCESS:          0  itHIT:          0  itMISS:          0  dtACCESS:          0  dtHIT:          0  dtMISS:          0
cpu0_L1I PREFETCH     ACCESS:   27649848  HIT:   20987292  MISS:    6662556  iACCESS:   27649848  iHIT:   20987292  iMISS:    6662556  dACCESS:          0  dHIT:          0  dMISS:          0  itACCESS:          0  itHIT:          0  itMISS:          0  dtACCESS:          0  dtHIT:          0  dtMISS:          0
cpu0_L1I WRITE        ACCESS:          0  HIT:          0  MISS:          0  iACCESS:          0  iHIT:          0  iMISS:          0  dACCESS:          0  dHIT:          0  dMISS:          0  itACCESS:          0  itHIT:          0  itMISS:          0  dtACCESS:          0  dtHIT:          0  dtMISS:          0
cpu0_L1I TRANSLATION  ACCESS:          0  HIT:          0  MISS:          0  iACCESS:          0  iHIT:          0  iMISS:          0  dACCESS:          0  dHIT:          0  dMISS:          0  itACCESS:          0  itHIT:          0  itMISS:          0  dtACCESS:          0  dtHIT:          0  dtMISS:          0
cpu0_L1I PREFETCH  REQUESTED:   30275727  ISSUED:   30274742  CROSSED:          0  USEFUL:    2199048  USELESS:     760605
cpu0_L1I AVERAGE iMISS LATENCY: 23.9972 cycles
cpu0_L1I AVERAGE dMISS LATENCY: 0 cycles
cpu0_L1I AVERAGE itMISS LATENCY: 0 cycles
cpu0_L1I AVERAGE dtMISS LATENCY: 0 cycles
cpu0_L1I PAGE CROSSINGS (TLB HIT):         0 
cpu0_L1I PAGE CROSSINGS (TLB MISS):         0 
cpu0_L1I AVERAGE MISS LATENCY: 23.9972 cycles
cpu0_ITLB TOTAL       ACCESS:   33154547  HIT:   30910336  MISS:    2244211  iACCESS:   33154547  iHIT:   30910336  iMISS:    2244211  dACCESS:          0  dHIT:          0  dMISS:          0  itACCESS:          0  itHIT:          0  itMISS:          0  dtACCESS:          0  dtHIT:          0  dtMISS:          0
cpu0_ITLB LOAD         ACCESS:   33154547  HIT:   30910336  MISS:    2244211  iACCESS:   33154547  iHIT:   30910336  iMISS:    2244211  dACCESS:          0  dHIT:          0  dMISS:          0  itACCESS:          0  itHIT:          0  itMISS:          0  dtACCESS:          0  dtHIT:          0  dtMISS:          0
cpu0_ITLB RFO          ACCESS:          0  HIT:          0  MISS:          0  iACCESS:          0  iHIT:          0  iMISS:          0  dACCESS:          0  dHIT:          0  dMISS:          0  itACCESS:          0  itHIT:          0  itMISS:          0  dtACCESS:          0  dtHIT:          0  dtMISS:          0
cpu0_ITLB PREFETCH     ACCESS:          0  HIT:          0  MISS:          0  iACCESS:          0  iHIT:          0  iMISS:          0  dACCESS:          0  dHIT:          0  dMISS:          0  itACCESS:          0  itHIT:          0  itMISS:          0  dtACCESS:          0  dtHIT:          0  dtMISS:          0
cpu0_ITLB WRITE        ACCESS:          0  HIT:          0  MISS:          0  iACCESS:          0  iHIT:          0  iMISS:          0  dACCESS:          0  dHIT:          0  dMISS:          0  itACCESS:          0  itHIT:          0  itMISS:          0  dtACCESS:          0  dtHIT:          0  dtMISS:          0
cpu0_ITLB TRANSLATION  ACCESS:          0  HIT:          0  MISS:          0  iACCESS:          0  iHIT:          0  iMISS:          0  dACCESS:          0  dHIT:          0  dMISS:          0  itACCESS:          0  itHIT:          0  itMISS:          0  dtACCESS:          0  dtHIT:          0  dtMISS:          0
cpu0_ITLB PREFETCH  REQUESTED:          0  ISSUED:          0  CROSSED:          0  USEFUL:     393424  USELESS:      83202
cpu0_ITLB AVERAGE iMISS LATENCY: 8.37763 cycles
cpu0_ITLB AVERAGE dMISS LATENCY: 0 cycles
cpu0_ITLB AVERAGE itMISS LATENCY: 0 cycles
cpu0_ITLB AVERAGE dtMISS LATENCY: 0 cycles
cpu0_ITLB PAGE CROSSINGS (TLB HIT):         0 
cpu0_ITLB PAGE CROSSINGS (TLB MISS):         0 
cpu0_ITLB AVERAGE MISS LATENCY: 8.37763 cycles
cpu0_DTLB TOTAL       ACCESS:   28916744  HIT:   25276163  MISS:    3640581  iACCESS:          0  iHIT:          0  iMISS:          0  dACCESS:   28916744  dHIT:   25276163  dMISS:    3640581  itACCESS:          0  itHIT:          0  itMISS:          0  dtACCESS:          0  dtHIT:          0  dtMISS:          0
cpu0_DTLB LOAD         ACCESS:   28916744  HIT:   25276163  MISS:    3640581  iACCESS:          0  iHIT:          0  iMISS:          0  dACCESS:   28916744  dHIT:   25276163  dMISS:    3640581  itACCESS:          0  itHIT:          0  itMISS:          0  dtACCESS:          0  dtHIT:          0  dtMISS:          0
cpu0_DTLB RFO          ACCESS:          0  HIT:          0  MISS:          0  iACCESS:          0  iHIT:          0  iMISS:          0  dACCESS:          0  dHIT:          0  dMISS:          0  itACCESS:          0  itHIT:          0  itMISS:          0  dtACCESS:          0  dtHIT:          0  dtMISS:          0
cpu0_DTLB PREFETCH     ACCESS:          0  HIT:          0  MISS:          0  iACCESS:          0  iHIT:          0  iMISS:          0  dACCESS:          0  dHIT:          0  dMISS:          0  itACCESS:          0  itHIT:          0  itMISS:          0  dtACCESS:          0  dtHIT:          0  dtMISS:          0
cpu0_DTLB WRITE        ACCESS:          0  HIT:          0  MISS:          0  iACCESS:          0  iHIT:          0  iMISS:          0  dACCESS:          0  dHIT:          0  dMISS:          0  itACCESS:          0  itHIT:          0  itMISS:          0  dtACCESS:          0  dtHIT:          0  dtMISS:          0
cpu0_DTLB TRANSLATION  ACCESS:          0  HIT:          0  MISS:          0  iACCESS:          0  iHIT:          0  iMISS:          0  dACCESS:          0  dHIT:          0  dMISS:          0  itACCESS:          0  itHIT:          0  itMISS:          0  dtACCESS:          0  dtHIT:          0  dtMISS:          0
cpu0_DTLB PREFETCH  REQUESTED:          0  ISSUED:          0  CROSSED:          0  USEFUL:          0  USELESS:          0
cpu0_DTLB AVERAGE iMISS LATENCY: 0 cycles
cpu0_DTLB AVERAGE dMISS LATENCY: 17.2411 cycles
cpu0_DTLB AVERAGE itMISS LATENCY: 0 cycles
cpu0_DTLB AVERAGE dtMISS LATENCY: 0 cycles
cpu0_DTLB PAGE CROSSINGS (TLB HIT):         0 
cpu0_DTLB PAGE CROSSINGS (TLB MISS):         0 
cpu0_DTLB AVERAGE MISS LATENCY: 17.2411 cycles
cpu0_STLB TOTAL       ACCESS:    2588268  HIT:    2203607  MISS:     384661  iACCESS:     476629  iHIT:     354967  iMISS:     121662  dACCESS:    2111639  dHIT:    1848640  dMISS:     262999  itACCESS:          0  itHIT:          0  itMISS:          0  dtACCESS:          0  dtHIT:          0  dtMISS:          0
cpu0_STLB LOAD         ACCESS:    2588268  HIT:    2203607  MISS:     384661  iACCESS:     476629  iHIT:     354967  iMISS:     121662  dACCESS:    2111639  dHIT:    1848640  dMISS:     262999  itACCESS:          0  itHIT:          0  itMISS:          0  dtACCESS:          0  dtHIT:          0  dtMISS:          0
cpu0_STLB RFO          ACCESS:          0  HIT:          0  MISS:          0  iACCESS:          0  iHIT:          0  iMISS:          0  dACCESS:          0  dHIT:          0  dMISS:          0  itACCESS:          0  itHIT:          0  itMISS:          0  dtACCESS:          0  dtHIT:          0  dtMISS:          0
cpu0_STLB PREFETCH     ACCESS:          0  HIT:          0  MISS:          0  iACCESS:          0  iHIT:          0  iMISS:          0  dACCESS:          0  dHIT:          0  dMISS:          0  itACCESS:          0  itHIT:          0  itMISS:          0  dtACCESS:          0  dtHIT:          0  dtMISS:          0
cpu0_STLB WRITE        ACCESS:          0  HIT:          0  MISS:          0  iACCESS:          0  iHIT:          0  iMISS:          0  dACCESS:          0  dHIT:          0  dMISS:          0  itACCESS:          0  itHIT:          0  itMISS:          0  dtACCESS:          0  dtHIT:          0  dtMISS:          0
cpu0_STLB TRANSLATION  ACCESS:          0  HIT:          0  MISS:          0  iACCESS:          0  iHIT:          0  iMISS:          0  dACCESS:          0  dHIT:          0  dMISS:          0  itACCESS:          0  itHIT:          0  itMISS:          0  dtACCESS:          0  dtHIT:          0  dtMISS:          0
cpu0_STLB PREFETCH  REQUESTED:          0  ISSUED:          0  CROSSED:          0  USEFUL:          0  USELESS:          0
cpu0_STLB AVERAGE iMISS LATENCY: 38.9618 cycles
cpu0_STLB AVERAGE dMISS LATENCY: 119.05 cycles
cpu0_STLB AVERAGE itMISS LATENCY: 0 cycles
cpu0_STLB AVERAGE dtMISS LATENCY: 0 cycles
cpu0_STLB PAGE CROSSINGS (TLB HIT):         0 
cpu0_STLB PAGE CROSSINGS (TLB MISS):         0 
cpu0_STLB AVERAGE MISS LATENCY: 158.012 cycles
cpu0_L1D TOTAL       ACCESS:   44542621  HIT:   39158889  MISS:    5383732  iACCESS:          0  iHIT:          0  iMISS:          0  dACCESS:   43988888  dHIT:   39122876  dMISS:    4866012  itACCESS:     136422  itHIT:      14206  itMISS:     122216  dtACCESS:     417311  dtHIT:      21807  dtMISS:     395504
cpu0_L1D LOAD         ACCESS:   20063559  HIT:   17896587  MISS:    2166972  iACCESS:          0  iHIT:          0  iMISS:          0  dACCESS:   20063559  dHIT:   17896587  dMISS:    2166972  itACCESS:          0  itHIT:          0  itMISS:          0  dtACCESS:          0  dtHIT:          0  dtMISS:          0
cpu0_L1D RFO          ACCESS:          0  HIT:          0  MISS:          0  iACCESS:          0  iHIT:          0  iMISS:          0  dACCESS:          0  dHIT:          0  dMISS:          0  itACCESS:          0  itHIT:          0  itMISS:          0  dtACCESS:          0  dtHIT:          0  dtMISS:          0
cpu0_L1D PREFETCH     ACCESS:   13699689  HIT:   11587268  MISS:    2112421  iACCESS:          0  iHIT:          0  iMISS:          0  dACCESS:   13699689  dHIT:   11587268  dMISS:    2112421  itACCESS:          0  itHIT:          0  itMISS:          0  dtACCESS:          0  dtHIT:          0  dtMISS:          0
cpu0_L1D WRITE        ACCESS:   10225640  HIT:    9639021  MISS:     586619  iACCESS:          0  iHIT:          0  iMISS:          0  dACCESS:   10225640  dHIT:    9639021  dMISS:     586619  itACCESS:          0  itHIT:          0  itMISS:          0  dtACCESS:          0  dtHIT:          0  dtMISS:          0
cpu0_L1D TRANSLATION  ACCESS:     553733  HIT:      36013  MISS:     517720  iACCESS:          0  iHIT:          0  iMISS:          0  dACCESS:          0  dHIT:          0  dMISS:          0  itACCESS:     136422  itHIT:      14206  itMISS:     122216  dtACCESS:     417311  dtHIT:      21807  dtMISS:     395504
cpu0_L1D PREFETCH  REQUESTED:   20063559  ISSUED:   18422039  CROSSED:          0  USEFUL:     355252  USELESS:     931582
cpu0_L1D AVERAGE iMISS LATENCY: 0 cycles
cpu0_L1D AVERAGE dMISS LATENCY: 52.4473 cycles
cpu0_L1D AVERAGE itMISS LATENCY: 2.57655 cycles
cpu0_L1D AVERAGE dtMISS LATENCY: 7.50297 cycles
cpu0_L1D PAGE CROSSINGS (TLB HIT):         0 
cpu0_L1D PAGE CROSSINGS (TLB MISS):         0 
cpu0_L1D AVERAGE MISS LATENCY: 62.5268 cycles
cpu0_L2C TOTAL       ACCESS:    8559526  HIT:    1494551  MISS:    7064975  iACCESS:    3764214  iHIT:     759093  iMISS:    3005121  dACCESS:    4298907  dHIT:     542745  dMISS:    3756162  itACCESS:     121547  itHIT:      41334  itMISS:      80213  dtACCESS:     374858  dtHIT:     151379  dtMISS:     223479
cpu0_L2C LOAD         ACCESS:    2034316  HIT:     200344  MISS:    1833972  iACCESS:     839699  iHIT:     103327  iMISS:     736372  dACCESS:    1194617  dHIT:      97017  dMISS:    1097600  itACCESS:          0  itHIT:          0  itMISS:          0  dtACCESS:          0  dtHIT:          0  dtMISS:          0
cpu0_L2C RFO          ACCESS:     224000  HIT:      30819  MISS:     193181  iACCESS:          0  iHIT:          0  iMISS:          0  dACCESS:     224000  dHIT:      30819  dMISS:     193181  itACCESS:          0  itHIT:          0  itMISS:          0  dtACCESS:          0  dtHIT:          0  dtMISS:          0
cpu0_L2C PREFETCH     ACCESS:    5457772  HIT:     965482  MISS:    4492290  iACCESS:    2924515  iHIT:     655766  iMISS:    2268749  dACCESS:    2533257  dHIT:     309716  dMISS:    2223541  itACCESS:          0  itHIT:          0  itMISS:          0  dtACCESS:          0  dtHIT:          0  dtMISS:          0
cpu0_L2C WRITE        ACCESS:     347033  HIT:     105193  MISS:     241840  iACCESS:          0  iHIT:          0  iMISS:          0  dACCESS:     347033  dHIT:     105193  dMISS:     241840  itACCESS:          0  itHIT:          0  itMISS:          0  dtACCESS:          0  dtHIT:          0  dtMISS:          0
cpu0_L2C TRANSLATION  ACCESS:     496405  HIT:     192713  MISS:     303692  iACCESS:          0  iHIT:          0  iMISS:          0  dACCESS:          0  dHIT:          0  dMISS:          0  itACCESS:     121547  itHIT:      41334  itMISS:      80213  dtACCESS:     374858  dtHIT:     151379  dtMISS:     223479
cpu0_L2C PREFETCH  REQUESTED:    1482711  ISSUED:    1482707  CROSSED:          0  USEFUL:     403843  USELESS:     481435
cpu0_L2C AVERAGE iMISS LATENCY: 26.5426 cycles
cpu0_L2C AVERAGE dMISS LATENCY: 48.9286 cycles
cpu0_L2C AVERAGE itMISS LATENCY: 1.79675 cycles
cpu0_L2C AVERAGE dtMISS LATENCY: 5.20593 cycles
cpu0_L2C PAGE CROSSINGS (TLB HIT):         0 
cpu0_L2C PAGE CROSSINGS (TLB MISS):         0 
cpu0_L2C AVERAGE MISS LATENCY: 82.4738 cycles
LLC TOTAL       ACCESS:    6888175  HIT:    4223310  MISS:    2664865  iACCESS:    2915400  iHIT:    2080412  iMISS:     834988  dACCESS:    3669083  dHIT:    2073396  dMISS:    1595687  itACCESS:      80213  itHIT:      17538  itMISS:      62675  dtACCESS:     223479  dtHIT:      51964  dtMISS:     171515
LLC LOAD         ACCESS:    1828196  HIT:    1187535  MISS:     640661  iACCESS:     734836  iHIT:     558405  iMISS:     176431  dACCESS:    1093360  dHIT:     629130  dMISS:     464230  itACCESS:          0  itHIT:          0  itMISS:          0  dtACCESS:          0  dtHIT:          0  dtMISS:          0
LLC RFO          ACCESS:     193166  HIT:      96479  MISS:      96687  iACCESS:          0  iHIT:          0  iMISS:          0  dACCESS:     193166  dHIT:      96479  dMISS:      96687  itACCESS:          0  itHIT:          0  itMISS:          0  dtACCESS:          0  dtHIT:          0  dtMISS:          0
LLC PREFETCH     ACCESS:    4287758  HIT:    2601441  MISS:    1686317  iACCESS:    2180564  iHIT:    1522007  iMISS:     658557  dACCESS:    2107194  dHIT:    1079434  dMISS:    1027760  itACCESS:          0  itHIT:          0  itMISS:          0  dtACCESS:          0  dtHIT:          0  dtMISS:          0
LLC WRITE        ACCESS:     275363  HIT:     268353  MISS:       7010  iACCESS:          0  iHIT:          0  iMISS:          0  dACCESS:     275363  dHIT:     268353  dMISS:       7010  itACCESS:          0  itHIT:          0  itMISS:          0  dtACCESS:          0  dtHIT:          0  dtMISS:          0
LLC TRANSLATION  ACCESS:     303692  HIT:      69502  MISS:     234190  iACCESS:          0  iHIT:          0  iMISS:          0  dACCESS:          0  dHIT:          0  dMISS:          0  itACCESS:      80213  itHIT:      17538  itMISS:      62675  dtACCESS:     223479  dtHIT:      51964  dtMISS:     171515
LLC PREFETCH  REQUESTED:          0  ISSUED:          0  CROSSED:          0  USEFUL:          0  USELESS:          0
LLC AVERAGE iMISS LATENCY: 49.1288 cycles
LLC AVERAGE dMISS LATENCY: 105.579 cycles
LLC AVERAGE itMISS LATENCY: 4.17002 cycles
LLC AVERAGE dtMISS LATENCY: 12.1502 cycles
LLC PAGE CROSSINGS (TLB HIT):         0 
LLC PAGE CROSSINGS (TLB MISS):         0 
LLC AVERAGE MISS LATENCY: 171.027 cycles

PageTableWalker TOTAL       ACCESS:     144226  
PageTableWalker AVERAGE LATENCY: 5.89984 cycles
PageTableWalker TOTAL LATENCY: 850910 cycles

DRAM Statistics
Channel 0
 RQ ROW_BUFFER_HIT:     588429
  ROW_BUFFER_MISS:    2057885
 AVG DBUS CONGESTED CYCLE:    3.65244
 WQ ROW_BUFFER_HIT:      65734
  ROW_BUFFER_MISS:      61926  FULL:          0

