last_page:0x200000000000000
VMEM_RES_CAP:0x100000
PAGE_SIZE:4096
LOG2_PAGE_SIZE:12
LOG2_PAGE_TABLE_SIZE:9
page_table_levels:5
WARNING: physical memory size is smaller than virtual memory size
FDiP enabled with aggresivity 16

*** ChampSim Multicore Out-of-Order Simulator ***

Warmup Instructions: 50000000
Simulation Instructions: 100000000
Number of CPUs: 1
Small page size: 4096
Large page size: 2097152

CPU 0 Bimodal branch predictor
Basic BTB sets: 1024 ways: 8 indirect buffer size: 4096 RAS size: 64
Instruction page size distrubution: 0
Loading instruction page size distribution from /home/bsc/bsc018186/scratch/itp_asplos25_AE/dump/smt_srv540_ap_srv582_ap_1024i.pdst
Data page size distrubution: 0
Loading data page size distribution from /home/bsc/bsc018186/scratch/itp_asplos25_AE/dump/smt_srv540_ap_srv582_ap_1024i.pdst
cpu0_L2C IP-based stride prefetcher
cpu0_L2C is using PTP replacement policy:
	TLB_STRESS_THRESHOLD:0
	PTE_EVICTION_RATIO:0
cpu0_L1D next line prefetcher
cpu0_L1I next line prefetcher
Off-chip DRAM Size: 4 GiB Channels: 1 Width: 64-bit Data Rate: 3200 MT/s
Heartbeat CPU 0 instructions: 10000003 cycles: 2500458 heartbeat IPC: 3.99927 cumulative IPC: 3.99927 (Simulation time: 0 hr 0 min 39 sec) 
Heartbeat CPU 0 instructions: 20000003 cycles: 5000659 heartbeat IPC: 3.99968 cumulative IPC: 3.99948 (Simulation time: 0 hr 1 min 20 sec) 
Heartbeat CPU 0 instructions: 30000003 cycles: 7500821 heartbeat IPC: 3.99975 cumulative IPC: 3.99957 (Simulation time: 0 hr 2 min 1 sec) 
Heartbeat CPU 0 instructions: 40000002 cycles: 10000934 heartbeat IPC: 3.99982 cumulative IPC: 3.99963 (Simulation time: 0 hr 2 min 43 sec) 
Heartbeat CPU 0 instructions: 50000000 cycles: 12501314 heartbeat IPC: 3.9994 cumulative IPC: 3.99958 (Simulation time: 0 hr 3 min 26 sec) 
Warmup finished CPU 0 instructions: 50000000 cycles: 12501315 cumulative IPC: 3.99958 (Simulation time: 0 hr 3 min 26 sec) 

Warmup complete CPU 0 instructions: 50000000 cycles: 12501315 (Simulation time: 0 hr 3 min 26 sec) 

Heartbeat CPU 0 instructions: 60000002 cycles: 42488496 heartbeat IPC: 0.333476 cumulative IPC: 0.333476 (Simulation time: 0 hr 4 min 53 sec) 
Heartbeat CPU 0 instructions: 70000000 cycles: 72965977 heartbeat IPC: 0.328112 cumulative IPC: 0.330772 (Simulation time: 0 hr 6 min 22 sec) 
Heartbeat CPU 0 instructions: 80000000 cycles: 102623652 heartbeat IPC: 0.337181 cumulative IPC: 0.332881 (Simulation time: 0 hr 7 min 50 sec) 
Heartbeat CPU 0 instructions: 90000000 cycles: 132917366 heartbeat IPC: 0.330102 cumulative IPC: 0.332182 (Simulation time: 0 hr 9 min 19 sec) 
Heartbeat CPU 0 instructions: 100000004 cycles: 164427512 heartbeat IPC: 0.317359 cumulative IPC: 0.329108 (Simulation time: 0 hr 10 min 49 sec) 
Heartbeat CPU 0 instructions: 110000004 cycles: 194665957 heartbeat IPC: 0.330705 cumulative IPC: 0.329373 (Simulation time: 0 hr 12 min 19 sec) 
Heartbeat CPU 0 instructions: 120000004 cycles: 225339070 heartbeat IPC: 0.326019 cumulative IPC: 0.32889 (Simulation time: 0 hr 13 min 48 sec) 
Heartbeat CPU 0 instructions: 130000000 cycles: 255270938 heartbeat IPC: 0.334092 cumulative IPC: 0.329531 (Simulation time: 0 hr 15 min 17 sec) 
Heartbeat CPU 0 instructions: 140000002 cycles: 285286733 heartbeat IPC: 0.333158 cumulative IPC: 0.32993 (Simulation time: 0 hr 16 min 47 sec) 
Heartbeat CPU 0 instructions: 150000001 cycles: 313903165 heartbeat IPC: 0.34945 cumulative IPC: 0.331783 (Simulation time: 0 hr 18 min 16 sec) 
Simulation finished CPU 0 instructions: 100000001 cycles: 301401851 cumulative IPC: 0.331783 (Simulation time: 0 hr 18 min 16 sec) 

Simulation complete CPU 0 instructions: 100000001 cycles: 301401851 (Simulation time: 0 hr 18 min 16 sec) 


ChampSim completed all CPUs

Saving instructions large page distribution to /home/bsc/bsc018186/scratch/itp_asplos25_AE/dump/smt_srv540_ap_srv582_ap_1024i.pdst...
Saving data large page distribution to /home/bsc/bsc018186/scratch/itp_asplos25_AE/dump/smt_srv540_ap_srv582_ap_1024i.pdst...
=== Simulation ===
CPU 0 runs /gpfs/projects/bsc18/MN4/bsc18/romol/ChampSim/traces/qualcomm_srv/smt_srv540_ap_srv582_ap_1024i.champsimtrace.xz

Region of Interest Statistics

CPU 0 cumulative IPC: 0.331783 instructions: 100000001 cycles: 301401851
CPU 0 Branch Prediction Accuracy: 75.1418% MPKI: 44.8327 Average ROB Occupancy at Mispredict: 10.7944
Branch type MPKI
BRANCH_DIRECT_JUMP: 1.39703
BRANCH_INDIRECT: 23.1452
BRANCH_CONDITIONAL: 13.0321
BRANCH_DIRECT_CALL: 2.68798
BRANCH_INDIRECT_CALL: 1.02458
BRANCH_RETURN: 3.54574

Instructions large pages: 0
Instructions small pages: 9622
Large page distribution for instructions: 0%

Data large pages: 0
Data small pages: 8277
Large page distribution for data: 0%

cpu0_L1I TOTAL       ACCESS:   39261598  HIT:   30580762  MISS:    8680836  iACCESS:   39261598  iHIT:   30580762  iMISS:    8680836  dACCESS:          0  dHIT:          0  dMISS:          0  itACCESS:          0  itHIT:          0  itMISS:          0  dtACCESS:          0  dtHIT:          0  dtMISS:          0
cpu0_L1I LOAD         ACCESS:   11753738  HIT:    9392764  MISS:    2360974  iACCESS:   11753738  iHIT:    9392764  iMISS:    2360974  dACCESS:          0  dHIT:          0  dMISS:          0  itACCESS:          0  itHIT:          0  itMISS:          0  dtACCESS:          0  dtHIT:          0  dtMISS:          0
cpu0_L1I RFO          ACCESS:          0  HIT:          0  MISS:          0  iACCESS:          0  iHIT:          0  iMISS:          0  dACCESS:          0  dHIT:          0  dMISS:          0  itACCESS:          0  itHIT:          0  itMISS:          0  dtACCESS:          0  dtHIT:          0  dtMISS:          0
cpu0_L1I PREFETCH     ACCESS:   27507860  HIT:   21187998  MISS:    6319862  iACCESS:   27507860  iHIT:   21187998  iMISS:    6319862  dACCESS:          0  dHIT:          0  dMISS:          0  itACCESS:          0  itHIT:          0  itMISS:          0  dtACCESS:          0  dtHIT:          0  dtMISS:          0
cpu0_L1I WRITE        ACCESS:          0  HIT:          0  MISS:          0  iACCESS:          0  iHIT:          0  iMISS:          0  dACCESS:          0  dHIT:          0  dMISS:          0  itACCESS:          0  itHIT:          0  itMISS:          0  dtACCESS:          0  dtHIT:          0  dtMISS:          0
cpu0_L1I TRANSLATION  ACCESS:          0  HIT:          0  MISS:          0  iACCESS:          0  iHIT:          0  iMISS:          0  dACCESS:          0  dHIT:          0  dMISS:          0  itACCESS:          0  itHIT:          0  itMISS:          0  dtACCESS:          0  dtHIT:          0  dtMISS:          0
cpu0_L1I PREFETCH  REQUESTED:   30337396  ISSUED:   30337390  CROSSED:          0  USEFUL:    2206300  USELESS:     766148
cpu0_L1I AVERAGE iMISS LATENCY: 24.5561 cycles
cpu0_L1I AVERAGE dMISS LATENCY: 0 cycles
cpu0_L1I AVERAGE itMISS LATENCY: 0 cycles
cpu0_L1I AVERAGE dtMISS LATENCY: 0 cycles
cpu0_L1I PAGE CROSSINGS (TLB HIT):         0 
cpu0_L1I PAGE CROSSINGS (TLB MISS):         0 
cpu0_L1I AVERAGE MISS LATENCY: 24.5561 cycles
cpu0_ITLB TOTAL       ACCESS:   33233915  HIT:   31006085  MISS:    2227830  iACCESS:   33233915  iHIT:   31006085  iMISS:    2227830  dACCESS:          0  dHIT:          0  dMISS:          0  itACCESS:          0  itHIT:          0  itMISS:          0  dtACCESS:          0  dtHIT:          0  dtMISS:          0
cpu0_ITLB LOAD         ACCESS:   33233915  HIT:   31006085  MISS:    2227830  iACCESS:   33233915  iHIT:   31006085  iMISS:    2227830  dACCESS:          0  dHIT:          0  dMISS:          0  itACCESS:          0  itHIT:          0  itMISS:          0  dtACCESS:          0  dtHIT:          0  dtMISS:          0
cpu0_ITLB RFO          ACCESS:          0  HIT:          0  MISS:          0  iACCESS:          0  iHIT:          0  iMISS:          0  dACCESS:          0  dHIT:          0  dMISS:          0  itACCESS:          0  itHIT:          0  itMISS:          0  dtACCESS:          0  dtHIT:          0  dtMISS:          0
cpu0_ITLB PREFETCH     ACCESS:          0  HIT:          0  MISS:          0  iACCESS:          0  iHIT:          0  iMISS:          0  dACCESS:          0  dHIT:          0  dMISS:          0  itACCESS:          0  itHIT:          0  itMISS:          0  dtACCESS:          0  dtHIT:          0  dtMISS:          0
cpu0_ITLB WRITE        ACCESS:          0  HIT:          0  MISS:          0  iACCESS:          0  iHIT:          0  iMISS:          0  dACCESS:          0  dHIT:          0  dMISS:          0  itACCESS:          0  itHIT:          0  itMISS:          0  dtACCESS:          0  dtHIT:          0  dtMISS:          0
cpu0_ITLB TRANSLATION  ACCESS:          0  HIT:          0  MISS:          0  iACCESS:          0  iHIT:          0  iMISS:          0  dACCESS:          0  dHIT:          0  dMISS:          0  itACCESS:          0  itHIT:          0  itMISS:          0  dtACCESS:          0  dtHIT:          0  dtMISS:          0
cpu0_ITLB PREFETCH  REQUESTED:          0  ISSUED:          0  CROSSED:          0  USEFUL:     389060  USELESS:      79393
cpu0_ITLB AVERAGE iMISS LATENCY: 10.4929 cycles
cpu0_ITLB AVERAGE dMISS LATENCY: 0 cycles
cpu0_ITLB AVERAGE itMISS LATENCY: 0 cycles
cpu0_ITLB AVERAGE dtMISS LATENCY: 0 cycles
cpu0_ITLB PAGE CROSSINGS (TLB HIT):         0 
cpu0_ITLB PAGE CROSSINGS (TLB MISS):         0 
cpu0_ITLB AVERAGE MISS LATENCY: 10.4929 cycles
cpu0_DTLB TOTAL       ACCESS:   28843043  HIT:   25227729  MISS:    3615314  iACCESS:          0  iHIT:          0  iMISS:          0  dACCESS:   28843043  dHIT:   25227729  dMISS:    3615314  itACCESS:          0  itHIT:          0  itMISS:          0  dtACCESS:          0  dtHIT:          0  dtMISS:          0
cpu0_DTLB LOAD         ACCESS:   28843043  HIT:   25227729  MISS:    3615314  iACCESS:          0  iHIT:          0  iMISS:          0  dACCESS:   28843043  dHIT:   25227729  dMISS:    3615314  itACCESS:          0  itHIT:          0  itMISS:          0  dtACCESS:          0  dtHIT:          0  dtMISS:          0
cpu0_DTLB RFO          ACCESS:          0  HIT:          0  MISS:          0  iACCESS:          0  iHIT:          0  iMISS:          0  dACCESS:          0  dHIT:          0  dMISS:          0  itACCESS:          0  itHIT:          0  itMISS:          0  dtACCESS:          0  dtHIT:          0  dtMISS:          0
cpu0_DTLB PREFETCH     ACCESS:          0  HIT:          0  MISS:          0  iACCESS:          0  iHIT:          0  iMISS:          0  dACCESS:          0  dHIT:          0  dMISS:          0  itACCESS:          0  itHIT:          0  itMISS:          0  dtACCESS:          0  dtHIT:          0  dtMISS:          0
cpu0_DTLB WRITE        ACCESS:          0  HIT:          0  MISS:          0  iACCESS:          0  iHIT:          0  iMISS:          0  dACCESS:          0  dHIT:          0  dMISS:          0  itACCESS:          0  itHIT:          0  itMISS:          0  dtACCESS:          0  dtHIT:          0  dtMISS:          0
cpu0_DTLB TRANSLATION  ACCESS:          0  HIT:          0  MISS:          0  iACCESS:          0  iHIT:          0  iMISS:          0  dACCESS:          0  dHIT:          0  dMISS:          0  itACCESS:          0  itHIT:          0  itMISS:          0  dtACCESS:          0  dtHIT:          0  dtMISS:          0
cpu0_DTLB PREFETCH  REQUESTED:          0  ISSUED:          0  CROSSED:          0  USEFUL:          0  USELESS:          0
cpu0_DTLB AVERAGE iMISS LATENCY: 0 cycles
cpu0_DTLB AVERAGE dMISS LATENCY: 24.6579 cycles
cpu0_DTLB AVERAGE itMISS LATENCY: 0 cycles
cpu0_DTLB AVERAGE dtMISS LATENCY: 0 cycles
cpu0_DTLB PAGE CROSSINGS (TLB HIT):         0 
cpu0_DTLB PAGE CROSSINGS (TLB MISS):         0 
cpu0_DTLB AVERAGE MISS LATENCY: 24.6579 cycles
cpu0_STLB TOTAL       ACCESS:    2574053  HIT:    2191738  MISS:     382315  iACCESS:     468454  iHIT:     349894  iMISS:     118560  dACCESS:    2105599  dHIT:    1841844  dMISS:     263755  itACCESS:          0  itHIT:          0  itMISS:          0  dtACCESS:          0  dtHIT:          0  dtMISS:          0
cpu0_STLB LOAD         ACCESS:    2574053  HIT:    2191738  MISS:     382315  iACCESS:     468454  iHIT:     349894  iMISS:     118560  dACCESS:    2105599  dHIT:    1841844  dMISS:     263755  itACCESS:          0  itHIT:          0  itMISS:          0  dtACCESS:          0  dtHIT:          0  dtMISS:          0
cpu0_STLB RFO          ACCESS:          0  HIT:          0  MISS:          0  iACCESS:          0  iHIT:          0  iMISS:          0  dACCESS:          0  dHIT:          0  dMISS:          0  itACCESS:          0  itHIT:          0  itMISS:          0  dtACCESS:          0  dtHIT:          0  dtMISS:          0
cpu0_STLB PREFETCH     ACCESS:          0  HIT:          0  MISS:          0  iACCESS:          0  iHIT:          0  iMISS:          0  dACCESS:          0  dHIT:          0  dMISS:          0  itACCESS:          0  itHIT:          0  itMISS:          0  dtACCESS:          0  dtHIT:          0  dtMISS:          0
cpu0_STLB WRITE        ACCESS:          0  HIT:          0  MISS:          0  iACCESS:          0  iHIT:          0  iMISS:          0  dACCESS:          0  dHIT:          0  dMISS:          0  itACCESS:          0  itHIT:          0  itMISS:          0  dtACCESS:          0  dtHIT:          0  dtMISS:          0
cpu0_STLB TRANSLATION  ACCESS:          0  HIT:          0  MISS:          0  iACCESS:          0  iHIT:          0  iMISS:          0  dACCESS:          0  dHIT:          0  dMISS:          0  itACCESS:          0  itHIT:          0  itMISS:          0  dtACCESS:          0  dtHIT:          0  dtMISS:          0
cpu0_STLB PREFETCH  REQUESTED:          0  ISSUED:          0  CROSSED:          0  USEFUL:          0  USELESS:          0
cpu0_STLB AVERAGE iMISS LATENCY: 51.3282 cycles
cpu0_STLB AVERAGE dMISS LATENCY: 188.835 cycles
cpu0_STLB AVERAGE itMISS LATENCY: 0 cycles
cpu0_STLB AVERAGE dtMISS LATENCY: 0 cycles
cpu0_STLB PAGE CROSSINGS (TLB HIT):         0 
cpu0_STLB PAGE CROSSINGS (TLB MISS):         0 
cpu0_STLB AVERAGE MISS LATENCY: 240.163 cycles
cpu0_L1D TOTAL       ACCESS:   44833247  HIT:   39087099  MISS:    5746148  iACCESS:          0  iHIT:          0  iMISS:          0  dACCESS:   44280051  dHIT:   39053108  dMISS:    5226943  itACCESS:     132673  itHIT:      14477  itMISS:     118196  dtACCESS:     420523  dtHIT:      19514  dtMISS:     401009
cpu0_L1D LOAD         ACCESS:   20228754  HIT:   17887154  MISS:    2341600  iACCESS:          0  iHIT:          0  iMISS:          0  dACCESS:   20228754  dHIT:   17887154  dMISS:    2341600  itACCESS:          0  itHIT:          0  itMISS:          0  dtACCESS:          0  dtHIT:          0  dtMISS:          0
cpu0_L1D RFO          ACCESS:          0  HIT:          0  MISS:          0  iACCESS:          0  iHIT:          0  iMISS:          0  dACCESS:          0  dHIT:          0  dMISS:          0  itACCESS:          0  itHIT:          0  itMISS:          0  dtACCESS:          0  dtHIT:          0  dtMISS:          0
cpu0_L1D PREFETCH     ACCESS:   13901885  HIT:   11587180  MISS:    2314705  iACCESS:          0  iHIT:          0  iMISS:          0  dACCESS:   13901885  dHIT:   11587180  dMISS:    2314705  itACCESS:          0  itHIT:          0  itMISS:          0  dtACCESS:          0  dtHIT:          0  dtMISS:          0
cpu0_L1D WRITE        ACCESS:   10149412  HIT:    9578774  MISS:     570638  iACCESS:          0  iHIT:          0  iMISS:          0  dACCESS:   10149412  dHIT:    9578774  dMISS:     570638  itACCESS:          0  itHIT:          0  itMISS:          0  dtACCESS:          0  dtHIT:          0  dtMISS:          0
cpu0_L1D TRANSLATION  ACCESS:     553196  HIT:      33991  MISS:     519205  iACCESS:          0  iHIT:          0  iMISS:          0  dACCESS:          0  dHIT:          0  dMISS:          0  itACCESS:     132673  itHIT:      14477  itMISS:     118196  dtACCESS:     420523  dtHIT:      19514  dtMISS:     401009
cpu0_L1D PREFETCH  REQUESTED:   20228754  ISSUED:   18404697  CROSSED:          0  USEFUL:     359137  USELESS:     926858
cpu0_L1D AVERAGE iMISS LATENCY: 0 cycles
cpu0_L1D AVERAGE dMISS LATENCY: 49.911 cycles
cpu0_L1D AVERAGE itMISS LATENCY: 3.22581 cycles
cpu0_L1D AVERAGE dtMISS LATENCY: 11.7759 cycles
cpu0_L1D PAGE CROSSINGS (TLB HIT):         0 
cpu0_L1D PAGE CROSSINGS (TLB MISS):         0 
cpu0_L1D AVERAGE MISS LATENCY: 64.9127 cycles
cpu0_L2C TOTAL       ACCESS:    8621480  HIT:    4056361  MISS:    4565119  iACCESS:    3779066  iHIT:    2237173  iMISS:    1541893  dACCESS:    4352152  dHIT:    1754499  dMISS:    2597653  itACCESS:     117406  itHIT:      22184  itMISS:      95222  dtACCESS:     372856  dtHIT:      42505  dtMISS:     330351
cpu0_L2C LOAD         ACCESS:    2041531  HIT:     959455  MISS:    1082076  iACCESS:     844870  iHIT:     520832  iMISS:     324038  dACCESS:    1196661  dHIT:     438623  dMISS:     758038  itACCESS:          0  itHIT:          0  itMISS:          0  dtACCESS:          0  dtHIT:          0  dtMISS:          0
cpu0_L2C RFO          ACCESS:     219485  HIT:      80850  MISS:     138635  iACCESS:          0  iHIT:          0  iMISS:          0  dACCESS:     219485  dHIT:      80850  dMISS:     138635  itACCESS:          0  itHIT:          0  itMISS:          0  dtACCESS:          0  dtHIT:          0  dtMISS:          0
cpu0_L2C PREFETCH     ACCESS:    5524634  HIT:    2624987  MISS:    2899647  iACCESS:    2934196  iHIT:    1716341  iMISS:    1217855  dACCESS:    2590438  dHIT:     908646  dMISS:    1681792  itACCESS:          0  itHIT:          0  itMISS:          0  dtACCESS:          0  dtHIT:          0  dtMISS:          0
cpu0_L2C WRITE        ACCESS:     345568  HIT:     326380  MISS:      19188  iACCESS:          0  iHIT:          0  iMISS:          0  dACCESS:     345568  dHIT:     326380  dMISS:      19188  itACCESS:          0  itHIT:          0  itMISS:          0  dtACCESS:          0  dtHIT:          0  dtMISS:          0
cpu0_L2C TRANSLATION  ACCESS:     490262  HIT:      64689  MISS:     425573  iACCESS:          0  iHIT:          0  iMISS:          0  dACCESS:          0  dHIT:          0  dMISS:          0  itACCESS:     117406  itHIT:      22184  itMISS:      95222  dtACCESS:     372856  dtHIT:      42505  dtMISS:     330351
cpu0_L2C PREFETCH  REQUESTED:    1545497  ISSUED:    1545495  CROSSED:          0  USEFUL:     360259  USELESS:     331563
cpu0_L2C AVERAGE iMISS LATENCY: 39.7648 cycles
cpu0_L2C AVERAGE dMISS LATENCY: 78.3072 cycles
cpu0_L2C AVERAGE itMISS LATENCY: 3.80728 cycles
cpu0_L2C AVERAGE dtMISS LATENCY: 14.0104 cycles
cpu0_L2C PAGE CROSSINGS (TLB HIT):         0 
cpu0_L2C PAGE CROSSINGS (TLB MISS):         0 
cpu0_L2C AVERAGE MISS LATENCY: 135.89 cycles
LLC TOTAL       ACCESS:    4539003  HIT:    1427413  MISS:    3111590  iACCESS:    1449211  iHIT:     484488  iMISS:     964723  dACCESS:    2664219  dHIT:     900107  dMISS:    1764112  itACCESS:      95222  itHIT:       8570  itMISS:      86652  dtACCESS:     330351  dtHIT:      34248  dtMISS:     296103
LLC LOAD         ACCESS:    1075010  HIT:     357706  MISS:     717304  iACCESS:     322740  iHIT:     114633  iMISS:     208107  dACCESS:     752270  dHIT:     243073  dMISS:     509197  itACCESS:          0  itHIT:          0  itMISS:          0  dtACCESS:          0  dtHIT:          0  dtMISS:          0
LLC RFO          ACCESS:     138633  HIT:      43310  MISS:      95323  iACCESS:          0  iHIT:          0  iMISS:          0  dACCESS:     138633  dHIT:      43310  dMISS:      95323  itACCESS:          0  itHIT:          0  itMISS:          0  dtACCESS:          0  dtHIT:          0  dtMISS:          0
LLC PREFETCH     ACCESS:    2681911  HIT:     775848  MISS:    1906063  iACCESS:    1126471  iHIT:     369855  iMISS:     756616  dACCESS:    1555440  dHIT:     405993  dMISS:    1149447  itACCESS:          0  itHIT:          0  itMISS:          0  dtACCESS:          0  dtHIT:          0  dtMISS:          0
LLC WRITE        ACCESS:     217876  HIT:     207731  MISS:      10145  iACCESS:          0  iHIT:          0  iMISS:          0  dACCESS:     217876  dHIT:     207731  dMISS:      10145  itACCESS:          0  itHIT:          0  itMISS:          0  dtACCESS:          0  dtHIT:          0  dtMISS:          0
LLC TRANSLATION  ACCESS:     425573  HIT:      42818  MISS:     382755  iACCESS:          0  iHIT:          0  iMISS:          0  dACCESS:          0  dHIT:          0  dMISS:          0  itACCESS:      95222  itHIT:       8570  itMISS:      86652  dtACCESS:     330351  dtHIT:      34248  dtMISS:     296103
LLC PREFETCH  REQUESTED:          0  ISSUED:          0  CROSSED:          0  USEFUL:          0  USELESS:          0
LLC AVERAGE iMISS LATENCY: 49.1689 cycles
LLC AVERAGE dMISS LATENCY: 100.407 cycles
LLC AVERAGE itMISS LATENCY: 4.97913 cycles
LLC AVERAGE dtMISS LATENCY: 18.4563 cycles
LLC PAGE CROSSINGS (TLB HIT):         0 
LLC PAGE CROSSINGS (TLB MISS):         0 
LLC AVERAGE MISS LATENCY: 173.011 cycles

PageTableWalker TOTAL       ACCESS:     195953  
PageTableWalker AVERAGE LATENCY: 6.27506 cycles
PageTableWalker TOTAL LATENCY: 1229616 cycles

DRAM Statistics
Channel 0
 RQ ROW_BUFFER_HIT:     643443
  ROW_BUFFER_MISS:    2437593
 AVG DBUS CONGESTED CYCLE:    3.65106
 WQ ROW_BUFFER_HIT:      66378
  ROW_BUFFER_MISS:      57250  FULL:          0

