last_page:0x200000000000000
VMEM_RES_CAP:0x100000
PAGE_SIZE:4096
LOG2_PAGE_SIZE:12
LOG2_PAGE_TABLE_SIZE:9
page_table_levels:5
WARNING: physical memory size is smaller than virtual memory size
FDiP enabled with aggresivity 16

*** ChampSim Multicore Out-of-Order Simulator ***

Warmup Instructions: 50000000
Simulation Instructions: 100000000
Number of CPUs: 1
Small page size: 4096
Large page size: 2097152

CPU 0 Bimodal branch predictor
Basic BTB sets: 1024 ways: 8 indirect buffer size: 4096 RAS size: 64
Instruction page size distrubution: 0
Loading instruction page size distribution from /home/bsc/bsc018186/scratch/itp_asplos25_AE/dump/smt_srv540_ap_srv180_ap_1024i.pdst
Data page size distrubution: 0
Loading data page size distribution from /home/bsc/bsc018186/scratch/itp_asplos25_AE/dump/smt_srv540_ap_srv180_ap_1024i.pdst
cpu0_L2C IP-based stride prefetcher
cpu0_L1D next line prefetcher
cpu0_L1I next line prefetcher
Off-chip DRAM Size: 4 GiB Channels: 1 Width: 64-bit Data Rate: 3200 MT/s
Heartbeat CPU 0 instructions: 10000003 cycles: 2500443 heartbeat IPC: 3.9993 cumulative IPC: 3.9993 (Simulation time: 0 hr 0 min 43 sec) 
Heartbeat CPU 0 instructions: 20000000 cycles: 5000575 heartbeat IPC: 3.99979 cumulative IPC: 3.99955 (Simulation time: 0 hr 1 min 27 sec) 
Heartbeat CPU 0 instructions: 30000003 cycles: 7500831 heartbeat IPC: 3.9996 cumulative IPC: 3.99956 (Simulation time: 0 hr 2 min 11 sec) 
Heartbeat CPU 0 instructions: 40000003 cycles: 10001165 heartbeat IPC: 3.99947 cumulative IPC: 3.99954 (Simulation time: 0 hr 2 min 56 sec) 
Heartbeat CPU 0 instructions: 50000002 cycles: 12501451 heartbeat IPC: 3.99955 cumulative IPC: 3.99954 (Simulation time: 0 hr 3 min 42 sec) 
Warmup finished CPU 0 instructions: 50000002 cycles: 12501452 cumulative IPC: 3.99954 (Simulation time: 0 hr 3 min 42 sec) 

Warmup complete CPU 0 instructions: 50000002 cycles: 12501452 (Simulation time: 0 hr 3 min 42 sec) 

Heartbeat CPU 0 instructions: 60000001 cycles: 39048948 heartbeat IPC: 0.376684 cumulative IPC: 0.376684 (Simulation time: 0 hr 5 min 11 sec) 
Heartbeat CPU 0 instructions: 70000003 cycles: 64596899 heartbeat IPC: 0.391421 cumulative IPC: 0.383911 (Simulation time: 0 hr 6 min 35 sec) 
Heartbeat CPU 0 instructions: 80000002 cycles: 91471481 heartbeat IPC: 0.372099 cumulative IPC: 0.379891 (Simulation time: 0 hr 8 min 1 sec) 
Heartbeat CPU 0 instructions: 90000000 cycles: 117884017 heartbeat IPC: 0.378609 cumulative IPC: 0.37957 (Simulation time: 0 hr 9 min 26 sec) 
Heartbeat CPU 0 instructions: 100000004 cycles: 145075666 heartbeat IPC: 0.367761 cumulative IPC: 0.377148 (Simulation time: 0 hr 10 min 50 sec) 
Heartbeat CPU 0 instructions: 110000000 cycles: 171438070 heartbeat IPC: 0.379328 cumulative IPC: 0.377509 (Simulation time: 0 hr 12 min 14 sec) 
Heartbeat CPU 0 instructions: 120000002 cycles: 198046893 heartbeat IPC: 0.375816 cumulative IPC: 0.377267 (Simulation time: 0 hr 13 min 38 sec) 
Heartbeat CPU 0 instructions: 130000000 cycles: 223812568 heartbeat IPC: 0.388114 cumulative IPC: 0.378589 (Simulation time: 0 hr 15 min 1 sec) 
Heartbeat CPU 0 instructions: 140000002 cycles: 250709711 heartbeat IPC: 0.371787 cumulative IPC: 0.377821 (Simulation time: 0 hr 16 min 25 sec) 
Heartbeat CPU 0 instructions: 150000001 cycles: 276119370 heartbeat IPC: 0.393552 cumulative IPC: 0.379337 (Simulation time: 0 hr 17 min 47 sec) 
Simulation finished CPU 0 instructions: 100000004 cycles: 263617920 cumulative IPC: 0.379337 (Simulation time: 0 hr 17 min 47 sec) 

Simulation complete CPU 0 instructions: 100000004 cycles: 263617920 (Simulation time: 0 hr 17 min 47 sec) 


ChampSim completed all CPUs

Saving instructions large page distribution to /home/bsc/bsc018186/scratch/itp_asplos25_AE/dump/smt_srv540_ap_srv180_ap_1024i.pdst...
Saving data large page distribution to /home/bsc/bsc018186/scratch/itp_asplos25_AE/dump/smt_srv540_ap_srv180_ap_1024i.pdst...
=== Simulation ===
CPU 0 runs /gpfs/projects/bsc18/MN4/bsc18/romol/ChampSim/traces/qualcomm_srv/smt_srv540_ap_srv180_ap_1024i.champsimtrace.xz

Region of Interest Statistics

CPU 0 cumulative IPC: 0.379337 instructions: 100000004 cycles: 263617920
CPU 0 Branch Prediction Accuracy: 75.9656% MPKI: 43.2063 Average ROB Occupancy at Mispredict: 11.127
Branch type MPKI
BRANCH_DIRECT_JUMP: 1.30203
BRANCH_INDIRECT: 22.4852
BRANCH_CONDITIONAL: 12.5604
BRANCH_DIRECT_CALL: 2.49187
BRANCH_INDIRECT_CALL: 0.92576
BRANCH_RETURN: 3.44105

Instructions large pages: 0
Instructions small pages: 13008
Large page distribution for instructions: 0%

Data large pages: 0
Data small pages: 11794
Large page distribution for data: 0%

cpu0_L1I TOTAL       ACCESS:   39406244  HIT:   30303472  MISS:    9102772  iACCESS:   39406244  iHIT:   30303472  iMISS:    9102772  dACCESS:          0  dHIT:          0  dMISS:          0  itACCESS:          0  itHIT:          0  itMISS:          0  dtACCESS:          0  dtHIT:          0  dtMISS:          0
cpu0_L1I LOAD         ACCESS:   11837674  HIT:    9366673  MISS:    2471001  iACCESS:   11837674  iHIT:    9366673  iMISS:    2471001  dACCESS:          0  dHIT:          0  dMISS:          0  itACCESS:          0  itHIT:          0  itMISS:          0  dtACCESS:          0  dtHIT:          0  dtMISS:          0
cpu0_L1I RFO          ACCESS:          0  HIT:          0  MISS:          0  iACCESS:          0  iHIT:          0  iMISS:          0  dACCESS:          0  dHIT:          0  dMISS:          0  itACCESS:          0  itHIT:          0  itMISS:          0  dtACCESS:          0  dtHIT:          0  dtMISS:          0
cpu0_L1I PREFETCH     ACCESS:   27568570  HIT:   20936799  MISS:    6631771  iACCESS:   27568570  iHIT:   20936799  iMISS:    6631771  dACCESS:          0  dHIT:          0  dMISS:          0  itACCESS:          0  itHIT:          0  itMISS:          0  dtACCESS:          0  dtHIT:          0  dtMISS:          0
cpu0_L1I WRITE        ACCESS:          0  HIT:          0  MISS:          0  iACCESS:          0  iHIT:          0  iMISS:          0  dACCESS:          0  dHIT:          0  dMISS:          0  itACCESS:          0  itHIT:          0  itMISS:          0  dtACCESS:          0  dtHIT:          0  dtMISS:          0
cpu0_L1I TRANSLATION  ACCESS:          0  HIT:          0  MISS:          0  iACCESS:          0  iHIT:          0  iMISS:          0  dACCESS:          0  dHIT:          0  dMISS:          0  itACCESS:          0  itHIT:          0  itMISS:          0  dtACCESS:          0  dtHIT:          0  dtMISS:          0
cpu0_L1I PREFETCH  REQUESTED:   30259165  ISSUED:   30257893  CROSSED:          0  USEFUL:    2188990  USELESS:     744978
cpu0_L1I AVERAGE iMISS LATENCY: 22.8474 cycles
cpu0_L1I AVERAGE dMISS LATENCY: 0 cycles
cpu0_L1I AVERAGE itMISS LATENCY: 0 cycles
cpu0_L1I AVERAGE dtMISS LATENCY: 0 cycles
cpu0_L1I PAGE CROSSINGS (TLB HIT):         0 
cpu0_L1I PAGE CROSSINGS (TLB MISS):         0 
cpu0_L1I AVERAGE MISS LATENCY: 22.8474 cycles
cpu0_ITLB TOTAL       ACCESS:   33027105  HIT:   30852595  MISS:    2174510  iACCESS:   33027105  iHIT:   30852595  iMISS:    2174510  dACCESS:          0  dHIT:          0  dMISS:          0  itACCESS:          0  itHIT:          0  itMISS:          0  dtACCESS:          0  dtHIT:          0  dtMISS:          0
cpu0_ITLB LOAD         ACCESS:   33027105  HIT:   30852595  MISS:    2174510  iACCESS:   33027105  iHIT:   30852595  iMISS:    2174510  dACCESS:          0  dHIT:          0  dMISS:          0  itACCESS:          0  itHIT:          0  itMISS:          0  dtACCESS:          0  dtHIT:          0  dtMISS:          0
cpu0_ITLB RFO          ACCESS:          0  HIT:          0  MISS:          0  iACCESS:          0  iHIT:          0  iMISS:          0  dACCESS:          0  dHIT:          0  dMISS:          0  itACCESS:          0  itHIT:          0  itMISS:          0  dtACCESS:          0  dtHIT:          0  dtMISS:          0
cpu0_ITLB PREFETCH     ACCESS:          0  HIT:          0  MISS:          0  iACCESS:          0  iHIT:          0  iMISS:          0  dACCESS:          0  dHIT:          0  dMISS:          0  itACCESS:          0  itHIT:          0  itMISS:          0  dtACCESS:          0  dtHIT:          0  dtMISS:          0
cpu0_ITLB WRITE        ACCESS:          0  HIT:          0  MISS:          0  iACCESS:          0  iHIT:          0  iMISS:          0  dACCESS:          0  dHIT:          0  dMISS:          0  itACCESS:          0  itHIT:          0  itMISS:          0  dtACCESS:          0  dtHIT:          0  dtMISS:          0
cpu0_ITLB TRANSLATION  ACCESS:          0  HIT:          0  MISS:          0  iACCESS:          0  iHIT:          0  iMISS:          0  dACCESS:          0  dHIT:          0  dMISS:          0  itACCESS:          0  itHIT:          0  itMISS:          0  dtACCESS:          0  dtHIT:          0  dtMISS:          0
cpu0_ITLB PREFETCH  REQUESTED:          0  ISSUED:          0  CROSSED:          0  USEFUL:     380493  USELESS:      76588
cpu0_ITLB AVERAGE iMISS LATENCY: 7.53563 cycles
cpu0_ITLB AVERAGE dMISS LATENCY: 0 cycles
cpu0_ITLB AVERAGE itMISS LATENCY: 0 cycles
cpu0_ITLB AVERAGE dtMISS LATENCY: 0 cycles
cpu0_ITLB PAGE CROSSINGS (TLB HIT):         0 
cpu0_ITLB PAGE CROSSINGS (TLB MISS):         0 
cpu0_ITLB AVERAGE MISS LATENCY: 7.53563 cycles
cpu0_DTLB TOTAL       ACCESS:   28755302  HIT:   25098026  MISS:    3657276  iACCESS:          0  iHIT:          0  iMISS:          0  dACCESS:   28755302  dHIT:   25098026  dMISS:    3657276  itACCESS:          0  itHIT:          0  itMISS:          0  dtACCESS:          0  dtHIT:          0  dtMISS:          0
cpu0_DTLB LOAD         ACCESS:   28755302  HIT:   25098026  MISS:    3657276  iACCESS:          0  iHIT:          0  iMISS:          0  dACCESS:   28755302  dHIT:   25098026  dMISS:    3657276  itACCESS:          0  itHIT:          0  itMISS:          0  dtACCESS:          0  dtHIT:          0  dtMISS:          0
cpu0_DTLB RFO          ACCESS:          0  HIT:          0  MISS:          0  iACCESS:          0  iHIT:          0  iMISS:          0  dACCESS:          0  dHIT:          0  dMISS:          0  itACCESS:          0  itHIT:          0  itMISS:          0  dtACCESS:          0  dtHIT:          0  dtMISS:          0
cpu0_DTLB PREFETCH     ACCESS:          0  HIT:          0  MISS:          0  iACCESS:          0  iHIT:          0  iMISS:          0  dACCESS:          0  dHIT:          0  dMISS:          0  itACCESS:          0  itHIT:          0  itMISS:          0  dtACCESS:          0  dtHIT:          0  dtMISS:          0
cpu0_DTLB WRITE        ACCESS:          0  HIT:          0  MISS:          0  iACCESS:          0  iHIT:          0  iMISS:          0  dACCESS:          0  dHIT:          0  dMISS:          0  itACCESS:          0  itHIT:          0  itMISS:          0  dtACCESS:          0  dtHIT:          0  dtMISS:          0
cpu0_DTLB TRANSLATION  ACCESS:          0  HIT:          0  MISS:          0  iACCESS:          0  iHIT:          0  iMISS:          0  dACCESS:          0  dHIT:          0  dMISS:          0  itACCESS:          0  itHIT:          0  itMISS:          0  dtACCESS:          0  dtHIT:          0  dtMISS:          0
cpu0_DTLB PREFETCH  REQUESTED:          0  ISSUED:          0  CROSSED:          0  USEFUL:          0  USELESS:          0
cpu0_DTLB AVERAGE iMISS LATENCY: 0 cycles
cpu0_DTLB AVERAGE dMISS LATENCY: 16.2692 cycles
cpu0_DTLB AVERAGE itMISS LATENCY: 0 cycles
cpu0_DTLB AVERAGE dtMISS LATENCY: 0 cycles
cpu0_DTLB PAGE CROSSINGS (TLB HIT):         0 
cpu0_DTLB PAGE CROSSINGS (TLB MISS):         0 
cpu0_DTLB AVERAGE MISS LATENCY: 16.2692 cycles
cpu0_STLB TOTAL       ACCESS:    2583095  HIT:    2223736  MISS:     359359  iACCESS:     457088  iHIT:     350092  iMISS:     106996  dACCESS:    2126007  dHIT:    1873644  dMISS:     252363  itACCESS:          0  itHIT:          0  itMISS:          0  dtACCESS:          0  dtHIT:          0  dtMISS:          0
cpu0_STLB LOAD         ACCESS:    2583095  HIT:    2223736  MISS:     359359  iACCESS:     457088  iHIT:     350092  iMISS:     106996  dACCESS:    2126007  dHIT:    1873644  dMISS:     252363  itACCESS:          0  itHIT:          0  itMISS:          0  dtACCESS:          0  dtHIT:          0  dtMISS:          0
cpu0_STLB RFO          ACCESS:          0  HIT:          0  MISS:          0  iACCESS:          0  iHIT:          0  iMISS:          0  dACCESS:          0  dHIT:          0  dMISS:          0  itACCESS:          0  itHIT:          0  itMISS:          0  dtACCESS:          0  dtHIT:          0  dtMISS:          0
cpu0_STLB PREFETCH     ACCESS:          0  HIT:          0  MISS:          0  iACCESS:          0  iHIT:          0  iMISS:          0  dACCESS:          0  dHIT:          0  dMISS:          0  itACCESS:          0  itHIT:          0  itMISS:          0  dtACCESS:          0  dtHIT:          0  dtMISS:          0
cpu0_STLB WRITE        ACCESS:          0  HIT:          0  MISS:          0  iACCESS:          0  iHIT:          0  iMISS:          0  dACCESS:          0  dHIT:          0  dMISS:          0  itACCESS:          0  itHIT:          0  itMISS:          0  dtACCESS:          0  dtHIT:          0  dtMISS:          0
cpu0_STLB TRANSLATION  ACCESS:          0  HIT:          0  MISS:          0  iACCESS:          0  iHIT:          0  iMISS:          0  dACCESS:          0  dHIT:          0  dMISS:          0  itACCESS:          0  itHIT:          0  itMISS:          0  dtACCESS:          0  dtHIT:          0  dtMISS:          0
cpu0_STLB PREFETCH  REQUESTED:          0  ISSUED:          0  CROSSED:          0  USEFUL:          0  USELESS:          0
cpu0_STLB AVERAGE iMISS LATENCY: 35.4509 cycles
cpu0_STLB AVERAGE dMISS LATENCY: 118.053 cycles
cpu0_STLB AVERAGE itMISS LATENCY: 0 cycles
cpu0_STLB AVERAGE dtMISS LATENCY: 0 cycles
cpu0_STLB PAGE CROSSINGS (TLB HIT):         0 
cpu0_STLB PAGE CROSSINGS (TLB MISS):         0 
cpu0_STLB AVERAGE MISS LATENCY: 153.504 cycles
cpu0_L1D TOTAL       ACCESS:   44201835  HIT:   38957481  MISS:    5244354  iACCESS:          0  iHIT:          0  iMISS:          0  dACCESS:   43680229  dHIT:   38922803  dMISS:    4757426  itACCESS:     120430  itHIT:      14200  itMISS:     106230  dtACCESS:     401176  dtHIT:      20478  dtMISS:     380698
cpu0_L1D LOAD         ACCESS:   19968707  HIT:   17838670  MISS:    2130037  iACCESS:          0  iHIT:          0  iMISS:          0  dACCESS:   19968707  dHIT:   17838670  dMISS:    2130037  itACCESS:          0  itHIT:          0  itMISS:          0  dtACCESS:          0  dtHIT:          0  dtMISS:          0
cpu0_L1D RFO          ACCESS:          0  HIT:          0  MISS:          0  iACCESS:          0  iHIT:          0  iMISS:          0  dACCESS:          0  dHIT:          0  dMISS:          0  itACCESS:          0  itHIT:          0  itMISS:          0  dtACCESS:          0  dtHIT:          0  dtMISS:          0
cpu0_L1D PREFETCH     ACCESS:   13580559  HIT:   11504635  MISS:    2075924  iACCESS:          0  iHIT:          0  iMISS:          0  dACCESS:   13580559  dHIT:   11504635  dMISS:    2075924  itACCESS:          0  itHIT:          0  itMISS:          0  dtACCESS:          0  dtHIT:          0  dtMISS:          0
cpu0_L1D WRITE        ACCESS:   10130963  HIT:    9579498  MISS:     551465  iACCESS:          0  iHIT:          0  iMISS:          0  dACCESS:   10130963  dHIT:    9579498  dMISS:     551465  itACCESS:          0  itHIT:          0  itMISS:          0  dtACCESS:          0  dtHIT:          0  dtMISS:          0
cpu0_L1D TRANSLATION  ACCESS:     521606  HIT:      34678  MISS:     486928  iACCESS:          0  iHIT:          0  iMISS:          0  dACCESS:          0  dHIT:          0  dMISS:          0  itACCESS:     120430  itHIT:      14200  itMISS:     106230  dtACCESS:     401176  dtHIT:      20478  dtMISS:     380698
cpu0_L1D PREFETCH  REQUESTED:   19968707  ISSUED:   18299547  CROSSED:          0  USEFUL:     359137  USELESS:     920159
cpu0_L1D AVERAGE iMISS LATENCY: 0 cycles
cpu0_L1D AVERAGE dMISS LATENCY: 51.8537 cycles
cpu0_L1D AVERAGE itMISS LATENCY: 2.24254 cycles
cpu0_L1D AVERAGE dtMISS LATENCY: 7.12305 cycles
cpu0_L1D PAGE CROSSINGS (TLB HIT):         0 
cpu0_L1D PAGE CROSSINGS (TLB MISS):         0 
cpu0_L1D AVERAGE MISS LATENCY: 61.2193 cycles
cpu0_L2C TOTAL       ACCESS:    8483525  HIT:    1532282  MISS:    6951243  iACCESS:    3726776  iHIT:     805533  iMISS:    2921243  dACCESS:    4290219  dHIT:     537676  dMISS:    3752543  itACCESS:     105762  itHIT:      37116  itMISS:      68646  dtACCESS:     360768  dtHIT:     151957  dtMISS:     208811
cpu0_L2C LOAD         ACCESS:    2013256  HIT:     200875  MISS:    1812381  iACCESS:     830622  iHIT:     111051  iMISS:     719571  dACCESS:    1182634  dHIT:      89824  dMISS:    1092810  itACCESS:          0  itHIT:          0  itMISS:          0  dtACCESS:          0  dtHIT:          0  dtMISS:          0
cpu0_L2C RFO          ACCESS:     212573  HIT:      29820  MISS:     182753  iACCESS:          0  iHIT:          0  iMISS:          0  dACCESS:     212573  dHIT:      29820  dMISS:     182753  itACCESS:          0  itHIT:          0  itMISS:          0  dtACCESS:          0  dtHIT:          0  dtMISS:          0
cpu0_L2C PREFETCH     ACCESS:    5444858  HIT:    1011365  MISS:    4433493  iACCESS:    2896154  iHIT:     694482  iMISS:    2201672  dACCESS:    2548704  dHIT:     316883  dMISS:    2231821  itACCESS:          0  itHIT:          0  itMISS:          0  dtACCESS:          0  dtHIT:          0  dtMISS:          0
cpu0_L2C WRITE        ACCESS:     346308  HIT:     101149  MISS:     245159  iACCESS:          0  iHIT:          0  iMISS:          0  dACCESS:     346308  dHIT:     101149  dMISS:     245159  itACCESS:          0  itHIT:          0  itMISS:          0  dtACCESS:          0  dtHIT:          0  dtMISS:          0
cpu0_L2C TRANSLATION  ACCESS:     466530  HIT:     189073  MISS:     277457  iACCESS:          0  iHIT:          0  iMISS:          0  dACCESS:          0  dHIT:          0  dMISS:          0  itACCESS:     105762  itHIT:      37116  itMISS:      68646  dtACCESS:     360768  dtHIT:     151957  dtMISS:     208811
cpu0_L2C PREFETCH  REQUESTED:    1517961  ISSUED:    1517959  CROSSED:          0  USEFUL:     416014  USELESS:     479461
cpu0_L2C AVERAGE iMISS LATENCY: 25.2666 cycles
cpu0_L2C AVERAGE dMISS LATENCY: 47.9327 cycles
cpu0_L2C AVERAGE itMISS LATENCY: 1.54466 cycles
cpu0_L2C AVERAGE dtMISS LATENCY: 4.87455 cycles
cpu0_L2C PAGE CROSSINGS (TLB HIT):         0 
cpu0_L2C PAGE CROSSINGS (TLB MISS):         0 
cpu0_L2C AVERAGE MISS LATENCY: 79.6184 cycles
LLC TOTAL       ACCESS:    6772573  HIT:    4266576  MISS:    2505997  iACCESS:    2831832  iHIT:    2063143  iMISS:     768689  dACCESS:    3663284  dHIT:    2136142  dMISS:    1527142  itACCESS:      68646  itHIT:      16247  itMISS:      52399  dtACCESS:     208811  dtHIT:      51044  dtMISS:     157767
LLC LOAD         ACCESS:    1807479  HIT:    1201186  MISS:     606293  iACCESS:     718253  iHIT:     554207  iMISS:     164046  dACCESS:    1089226  dHIT:     646979  dMISS:     442247  itACCESS:          0  itHIT:          0  itMISS:          0  dtACCESS:          0  dtHIT:          0  dtMISS:          0
LLC RFO          ACCESS:     182722  HIT:      96219  MISS:      86503  iACCESS:          0  iHIT:          0  iMISS:          0  dACCESS:     182722  dHIT:      96219  dMISS:      86503  itACCESS:          0  itHIT:          0  itMISS:          0  dtACCESS:          0  dtHIT:          0  dtMISS:          0
LLC PREFETCH     ACCESS:    4230678  HIT:    2634313  MISS:    1596365  iACCESS:    2113579  iHIT:    1508936  iMISS:     604643  dACCESS:    2117099  dHIT:    1125377  dMISS:     991722  itACCESS:          0  itHIT:          0  itMISS:          0  dtACCESS:          0  dtHIT:          0  dtMISS:          0
LLC WRITE        ACCESS:     274237  HIT:     267567  MISS:       6670  iACCESS:          0  iHIT:          0  iMISS:          0  dACCESS:     274237  dHIT:     267567  dMISS:       6670  itACCESS:          0  itHIT:          0  itMISS:          0  dtACCESS:          0  dtHIT:          0  dtMISS:          0
LLC TRANSLATION  ACCESS:     277457  HIT:      67291  MISS:     210166  iACCESS:          0  iHIT:          0  iMISS:          0  dACCESS:          0  dHIT:          0  dMISS:          0  itACCESS:      68646  itHIT:      16247  itMISS:      52399  dtACCESS:     208811  dtHIT:      51044  dtMISS:     157767
LLC PREFETCH  REQUESTED:          0  ISSUED:          0  CROSSED:          0  USEFUL:          0  USELESS:          0
LLC AVERAGE iMISS LATENCY: 48.16 cycles
LLC AVERAGE dMISS LATENCY: 107.307 cycles
LLC AVERAGE itMISS LATENCY: 3.74499 cycles
LLC AVERAGE dtMISS LATENCY: 11.8809 cycles
LLC PAGE CROSSINGS (TLB HIT):         0 
LLC PAGE CROSSINGS (TLB MISS):         0 
LLC AVERAGE MISS LATENCY: 171.093 cycles

PageTableWalker TOTAL       ACCESS:     181654  
PageTableWalker AVERAGE LATENCY: 5.9065 cycles
PageTableWalker TOTAL LATENCY: 1072938 cycles

DRAM Statistics
Channel 0
 RQ ROW_BUFFER_HIT:     554729
  ROW_BUFFER_MISS:    1932858
 AVG DBUS CONGESTED CYCLE:    3.64963
 WQ ROW_BUFFER_HIT:      63141
  ROW_BUFFER_MISS:      60393  FULL:          0

