last_page:0x200000000000000
VMEM_RES_CAP:0x100000
PAGE_SIZE:4096
LOG2_PAGE_SIZE:12
LOG2_PAGE_TABLE_SIZE:9
page_table_levels:5
WARNING: physical memory size is smaller than virtual memory size
FDiP enabled with aggresivity 16

*** ChampSim Multicore Out-of-Order Simulator ***

Warmup Instructions: 50000000
Simulation Instructions: 100000000
Number of CPUs: 1
Small page size: 4096
Large page size: 2097152

CPU 0 Bimodal branch predictor
Basic BTB sets: 1024 ways: 8 indirect buffer size: 4096 RAS size: 64
Instruction page size distrubution: 0
Loading instruction page size distribution from /home/bsc/bsc018186/scratch/itp_asplos25_AE/dump/smt_srv12_ap_srv346_ap_1024i.pdst
Data page size distrubution: 0
Loading data page size distribution from /home/bsc/bsc018186/scratch/itp_asplos25_AE/dump/smt_srv12_ap_srv346_ap_1024i.pdst
cpu0_L2C IP-based stride prefetcher
cpu0_L1D next line prefetcher
cpu0_STLB using iTP with max lru@8
cpu0_STLB using iTP with instr@0 and data@2
Init sat counter with 3 bits (max:50).
cpu0_L1I next line prefetcher
Off-chip DRAM Size: 4 GiB Channels: 1 Width: 64-bit Data Rate: 3200 MT/s
Heartbeat CPU 0 instructions: 10000000 cycles: 2500419 heartbeat IPC: 3.99933 cumulative IPC: 3.99933 (Simulation time: 0 hr 0 min 35 sec) 
Heartbeat CPU 0 instructions: 20000003 cycles: 5000586 heartbeat IPC: 3.99974 cumulative IPC: 3.99954 (Simulation time: 0 hr 1 min 13 sec) 
Heartbeat CPU 0 instructions: 30000001 cycles: 7501286 heartbeat IPC: 3.99888 cumulative IPC: 3.99932 (Simulation time: 0 hr 1 min 52 sec) 
Heartbeat CPU 0 instructions: 40000003 cycles: 10001379 heartbeat IPC: 3.99986 cumulative IPC: 3.99945 (Simulation time: 0 hr 2 min 31 sec) 
Heartbeat CPU 0 instructions: 50000002 cycles: 12501534 heartbeat IPC: 3.99976 cumulative IPC: 3.99951 (Simulation time: 0 hr 3 min 9 sec) 
Warmup finished CPU 0 instructions: 50000002 cycles: 12501535 cumulative IPC: 3.99951 (Simulation time: 0 hr 3 min 9 sec) 

Warmup complete CPU 0 instructions: 50000002 cycles: 12501535 (Simulation time: 0 hr 3 min 9 sec) 

Heartbeat CPU 0 instructions: 60000000 cycles: 39956903 heartbeat IPC: 0.364228 cumulative IPC: 0.364228 (Simulation time: 0 hr 4 min 28 sec) 
Heartbeat CPU 0 instructions: 70000003 cycles: 67254682 heartbeat IPC: 0.366331 cumulative IPC: 0.365276 (Simulation time: 0 hr 5 min 46 sec) 
Heartbeat CPU 0 instructions: 80000001 cycles: 95309446 heartbeat IPC: 0.356446 cumulative IPC: 0.362285 (Simulation time: 0 hr 7 min 5 sec) 
Heartbeat CPU 0 instructions: 90000000 cycles: 119459523 heartbeat IPC: 0.414078 cumulative IPC: 0.373979 (Simulation time: 0 hr 8 min 19 sec) 
Heartbeat CPU 0 instructions: 100000000 cycles: 146385153 heartbeat IPC: 0.371394 cumulative IPC: 0.373459 (Simulation time: 0 hr 9 min 37 sec) 
Heartbeat CPU 0 instructions: 110000001 cycles: 173796566 heartbeat IPC: 0.364812 cumulative IPC: 0.37199 (Simulation time: 0 hr 10 min 56 sec) 
Heartbeat CPU 0 instructions: 120000000 cycles: 200309031 heartbeat IPC: 0.377182 cumulative IPC: 0.372723 (Simulation time: 0 hr 12 min 14 sec) 
Heartbeat CPU 0 instructions: 130000001 cycles: 227494456 heartbeat IPC: 0.367845 cumulative IPC: 0.372106 (Simulation time: 0 hr 13 min 33 sec) 
Heartbeat CPU 0 instructions: 140000000 cycles: 254864809 heartbeat IPC: 0.365359 cumulative IPC: 0.371344 (Simulation time: 0 hr 14 min 52 sec) 
Heartbeat CPU 0 instructions: 150000002 cycles: 282176855 heartbeat IPC: 0.366139 cumulative IPC: 0.370817 (Simulation time: 0 hr 16 min 11 sec) 
Simulation finished CPU 0 instructions: 100000000 cycles: 269675321 cumulative IPC: 0.370817 (Simulation time: 0 hr 16 min 11 sec) 

Simulation complete CPU 0 instructions: 100000000 cycles: 269675321 (Simulation time: 0 hr 16 min 11 sec) 


ChampSim completed all CPUs

Saving instructions large page distribution to /home/bsc/bsc018186/scratch/itp_asplos25_AE/dump/smt_srv12_ap_srv346_ap_1024i.pdst...
Saving data large page distribution to /home/bsc/bsc018186/scratch/itp_asplos25_AE/dump/smt_srv12_ap_srv346_ap_1024i.pdst...
=== Simulation ===
CPU 0 runs /gpfs/projects/bsc18/MN4/bsc18/romol/ChampSim/traces/qualcomm_srv/smt_srv12_ap_srv346_ap_1024i.champsimtrace.xz

Region of Interest Statistics

CPU 0 cumulative IPC: 0.370817 instructions: 100000000 cycles: 269675321
CPU 0 Branch Prediction Accuracy: 75.5397% MPKI: 44.1957 Average ROB Occupancy at Mispredict: 10.8795
Branch type MPKI
BRANCH_DIRECT_JUMP: 1.35541
BRANCH_INDIRECT: 22.7018
BRANCH_CONDITIONAL: 13.0378
BRANCH_DIRECT_CALL: 2.60333
BRANCH_INDIRECT_CALL: 1.04026
BRANCH_RETURN: 3.45712

Instructions large pages: 0
Instructions small pages: 14619
Large page distribution for instructions: 0%

Data large pages: 0
Data small pages: 12879
Large page distribution for data: 0%

cpu0_L1I TOTAL       ACCESS:   39387232  HIT:   30277319  MISS:    9109913  iACCESS:   39387232  iHIT:   30277319  iMISS:    9109913  dACCESS:          0  dHIT:          0  dMISS:          0  itACCESS:          0  itHIT:          0  itMISS:          0  dtACCESS:          0  dtHIT:          0  dtMISS:          0
cpu0_L1I LOAD         ACCESS:   11755810  HIT:    9283030  MISS:    2472780  iACCESS:   11755810  iHIT:    9283030  iMISS:    2472780  dACCESS:          0  dHIT:          0  dMISS:          0  itACCESS:          0  itHIT:          0  itMISS:          0  dtACCESS:          0  dtHIT:          0  dtMISS:          0
cpu0_L1I RFO          ACCESS:          0  HIT:          0  MISS:          0  iACCESS:          0  iHIT:          0  iMISS:          0  dACCESS:          0  dHIT:          0  dMISS:          0  itACCESS:          0  itHIT:          0  itMISS:          0  dtACCESS:          0  dtHIT:          0  dtMISS:          0
cpu0_L1I PREFETCH     ACCESS:   27631422  HIT:   20994289  MISS:    6637133  iACCESS:   27631422  iHIT:   20994289  iMISS:    6637133  dACCESS:          0  dHIT:          0  dMISS:          0  itACCESS:          0  itHIT:          0  itMISS:          0  dtACCESS:          0  dtHIT:          0  dtMISS:          0
cpu0_L1I WRITE        ACCESS:          0  HIT:          0  MISS:          0  iACCESS:          0  iHIT:          0  iMISS:          0  dACCESS:          0  dHIT:          0  dMISS:          0  itACCESS:          0  itHIT:          0  itMISS:          0  dtACCESS:          0  dtHIT:          0  dtMISS:          0
cpu0_L1I TRANSLATION  ACCESS:          0  HIT:          0  MISS:          0  iACCESS:          0  iHIT:          0  iMISS:          0  dACCESS:          0  dHIT:          0  dMISS:          0  itACCESS:          0  itHIT:          0  itMISS:          0  dtACCESS:          0  dtHIT:          0  dtMISS:          0
cpu0_L1I PREFETCH  REQUESTED:   30258616  ISSUED:   30257043  CROSSED:          0  USEFUL:    2194348  USELESS:     753596
cpu0_L1I AVERAGE iMISS LATENCY: 23.8997 cycles
cpu0_L1I AVERAGE dMISS LATENCY: 0 cycles
cpu0_L1I AVERAGE itMISS LATENCY: 0 cycles
cpu0_L1I AVERAGE dtMISS LATENCY: 0 cycles
cpu0_L1I PAGE CROSSINGS (TLB HIT):         0 
cpu0_L1I PAGE CROSSINGS (TLB MISS):         0 
cpu0_L1I AVERAGE MISS LATENCY: 23.8997 cycles
cpu0_ITLB TOTAL       ACCESS:   33100672  HIT:   30917910  MISS:    2182762  iACCESS:   33100672  iHIT:   30917910  iMISS:    2182762  dACCESS:          0  dHIT:          0  dMISS:          0  itACCESS:          0  itHIT:          0  itMISS:          0  dtACCESS:          0  dtHIT:          0  dtMISS:          0
cpu0_ITLB LOAD         ACCESS:   33100672  HIT:   30917910  MISS:    2182762  iACCESS:   33100672  iHIT:   30917910  iMISS:    2182762  dACCESS:          0  dHIT:          0  dMISS:          0  itACCESS:          0  itHIT:          0  itMISS:          0  dtACCESS:          0  dtHIT:          0  dtMISS:          0
cpu0_ITLB RFO          ACCESS:          0  HIT:          0  MISS:          0  iACCESS:          0  iHIT:          0  iMISS:          0  dACCESS:          0  dHIT:          0  dMISS:          0  itACCESS:          0  itHIT:          0  itMISS:          0  dtACCESS:          0  dtHIT:          0  dtMISS:          0
cpu0_ITLB PREFETCH     ACCESS:          0  HIT:          0  MISS:          0  iACCESS:          0  iHIT:          0  iMISS:          0  dACCESS:          0  dHIT:          0  dMISS:          0  itACCESS:          0  itHIT:          0  itMISS:          0  dtACCESS:          0  dtHIT:          0  dtMISS:          0
cpu0_ITLB WRITE        ACCESS:          0  HIT:          0  MISS:          0  iACCESS:          0  iHIT:          0  iMISS:          0  dACCESS:          0  dHIT:          0  dMISS:          0  itACCESS:          0  itHIT:          0  itMISS:          0  dtACCESS:          0  dtHIT:          0  dtMISS:          0
cpu0_ITLB TRANSLATION  ACCESS:          0  HIT:          0  MISS:          0  iACCESS:          0  iHIT:          0  iMISS:          0  dACCESS:          0  dHIT:          0  dMISS:          0  itACCESS:          0  itHIT:          0  itMISS:          0  dtACCESS:          0  dtHIT:          0  dtMISS:          0
cpu0_ITLB PREFETCH  REQUESTED:          0  ISSUED:          0  CROSSED:          0  USEFUL:     386514  USELESS:      77802
cpu0_ITLB AVERAGE iMISS LATENCY: 5.44175 cycles
cpu0_ITLB AVERAGE dMISS LATENCY: 0 cycles
cpu0_ITLB AVERAGE itMISS LATENCY: 0 cycles
cpu0_ITLB AVERAGE dtMISS LATENCY: 0 cycles
cpu0_ITLB PAGE CROSSINGS (TLB HIT):         0 
cpu0_ITLB PAGE CROSSINGS (TLB MISS):         0 
cpu0_ITLB AVERAGE MISS LATENCY: 5.44175 cycles
cpu0_DTLB TOTAL       ACCESS:   28893158  HIT:   25357718  MISS:    3535440  iACCESS:          0  iHIT:          0  iMISS:          0  dACCESS:   28893158  dHIT:   25357718  dMISS:    3535440  itACCESS:          0  itHIT:          0  itMISS:          0  dtACCESS:          0  dtHIT:          0  dtMISS:          0
cpu0_DTLB LOAD         ACCESS:   28893158  HIT:   25357718  MISS:    3535440  iACCESS:          0  iHIT:          0  iMISS:          0  dACCESS:   28893158  dHIT:   25357718  dMISS:    3535440  itACCESS:          0  itHIT:          0  itMISS:          0  dtACCESS:          0  dtHIT:          0  dtMISS:          0
cpu0_DTLB RFO          ACCESS:          0  HIT:          0  MISS:          0  iACCESS:          0  iHIT:          0  iMISS:          0  dACCESS:          0  dHIT:          0  dMISS:          0  itACCESS:          0  itHIT:          0  itMISS:          0  dtACCESS:          0  dtHIT:          0  dtMISS:          0
cpu0_DTLB PREFETCH     ACCESS:          0  HIT:          0  MISS:          0  iACCESS:          0  iHIT:          0  iMISS:          0  dACCESS:          0  dHIT:          0  dMISS:          0  itACCESS:          0  itHIT:          0  itMISS:          0  dtACCESS:          0  dtHIT:          0  dtMISS:          0
cpu0_DTLB WRITE        ACCESS:          0  HIT:          0  MISS:          0  iACCESS:          0  iHIT:          0  iMISS:          0  dACCESS:          0  dHIT:          0  dMISS:          0  itACCESS:          0  itHIT:          0  itMISS:          0  dtACCESS:          0  dtHIT:          0  dtMISS:          0
cpu0_DTLB TRANSLATION  ACCESS:          0  HIT:          0  MISS:          0  iACCESS:          0  iHIT:          0  iMISS:          0  dACCESS:          0  dHIT:          0  dMISS:          0  itACCESS:          0  itHIT:          0  itMISS:          0  dtACCESS:          0  dtHIT:          0  dtMISS:          0
cpu0_DTLB PREFETCH  REQUESTED:          0  ISSUED:          0  CROSSED:          0  USEFUL:          0  USELESS:          0
cpu0_DTLB AVERAGE iMISS LATENCY: 0 cycles
cpu0_DTLB AVERAGE dMISS LATENCY: 18.802 cycles
cpu0_DTLB AVERAGE itMISS LATENCY: 0 cycles
cpu0_DTLB AVERAGE dtMISS LATENCY: 0 cycles
cpu0_DTLB PAGE CROSSINGS (TLB HIT):         0 
cpu0_DTLB PAGE CROSSINGS (TLB MISS):         0 
cpu0_DTLB AVERAGE MISS LATENCY: 18.802 cycles
cpu0_STLB TOTAL       ACCESS:    2533019  HIT:    2173749  MISS:     359270  iACCESS:     464329  iHIT:     409840  iMISS:      54489  dACCESS:    2068690  dHIT:    1763909  dMISS:     304781  itACCESS:          0  itHIT:          0  itMISS:          0  dtACCESS:          0  dtHIT:          0  dtMISS:          0
cpu0_STLB LOAD         ACCESS:    2533019  HIT:    2173749  MISS:     359270  iACCESS:     464329  iHIT:     409840  iMISS:      54489  dACCESS:    2068690  dHIT:    1763909  dMISS:     304781  itACCESS:          0  itHIT:          0  itMISS:          0  dtACCESS:          0  dtHIT:          0  dtMISS:          0
cpu0_STLB RFO          ACCESS:          0  HIT:          0  MISS:          0  iACCESS:          0  iHIT:          0  iMISS:          0  dACCESS:          0  dHIT:          0  dMISS:          0  itACCESS:          0  itHIT:          0  itMISS:          0  dtACCESS:          0  dtHIT:          0  dtMISS:          0
cpu0_STLB PREFETCH     ACCESS:          0  HIT:          0  MISS:          0  iACCESS:          0  iHIT:          0  iMISS:          0  dACCESS:          0  dHIT:          0  dMISS:          0  itACCESS:          0  itHIT:          0  itMISS:          0  dtACCESS:          0  dtHIT:          0  dtMISS:          0
cpu0_STLB WRITE        ACCESS:          0  HIT:          0  MISS:          0  iACCESS:          0  iHIT:          0  iMISS:          0  dACCESS:          0  dHIT:          0  dMISS:          0  itACCESS:          0  itHIT:          0  itMISS:          0  dtACCESS:          0  dtHIT:          0  dtMISS:          0
cpu0_STLB TRANSLATION  ACCESS:          0  HIT:          0  MISS:          0  iACCESS:          0  iHIT:          0  iMISS:          0  dACCESS:          0  dHIT:          0  dMISS:          0  itACCESS:          0  itHIT:          0  itMISS:          0  dtACCESS:          0  dtHIT:          0  dtMISS:          0
cpu0_STLB PREFETCH  REQUESTED:          0  ISSUED:          0  CROSSED:          0  USEFUL:          0  USELESS:          0
cpu0_STLB AVERAGE iMISS LATENCY: 22.9139 cycles
cpu0_STLB AVERAGE dMISS LATENCY: 138.623 cycles
cpu0_STLB AVERAGE itMISS LATENCY: 0 cycles
cpu0_STLB AVERAGE dtMISS LATENCY: 0 cycles
cpu0_STLB PAGE CROSSINGS (TLB HIT):         0 
cpu0_STLB PAGE CROSSINGS (TLB MISS):         0 
cpu0_STLB AVERAGE MISS LATENCY: 161.536 cycles
cpu0_L1D TOTAL       ACCESS:   44473771  HIT:   39198046  MISS:    5275725  iACCESS:          0  iHIT:          0  iMISS:          0  dACCESS:   43915167  dHIT:   39168329  dMISS:    4746838  itACCESS:      64845  itHIT:       5610  itMISS:      59235  dtACCESS:     493759  dtHIT:      24107  dtMISS:     469652
cpu0_L1D LOAD         ACCESS:   20072052  HIT:   17967183  MISS:    2104869  iACCESS:          0  iHIT:          0  iMISS:          0  dACCESS:   20072052  dHIT:   17967183  dMISS:    2104869  itACCESS:          0  itHIT:          0  itMISS:          0  dtACCESS:          0  dtHIT:          0  dtMISS:          0
cpu0_L1D RFO          ACCESS:          0  HIT:          0  MISS:          0  iACCESS:          0  iHIT:          0  iMISS:          0  dACCESS:          0  dHIT:          0  dMISS:          0  itACCESS:          0  itHIT:          0  itMISS:          0  dtACCESS:          0  dtHIT:          0  dtMISS:          0
cpu0_L1D PREFETCH     ACCESS:   13686533  HIT:   11600446  MISS:    2086087  iACCESS:          0  iHIT:          0  iMISS:          0  dACCESS:   13686533  dHIT:   11600446  dMISS:    2086087  itACCESS:          0  itHIT:          0  itMISS:          0  dtACCESS:          0  dtHIT:          0  dtMISS:          0
cpu0_L1D WRITE        ACCESS:   10156582  HIT:    9600700  MISS:     555882  iACCESS:          0  iHIT:          0  iMISS:          0  dACCESS:   10156582  dHIT:    9600700  dMISS:     555882  itACCESS:          0  itHIT:          0  itMISS:          0  dtACCESS:          0  dtHIT:          0  dtMISS:          0
cpu0_L1D TRANSLATION  ACCESS:     558604  HIT:      29717  MISS:     528887  iACCESS:          0  iHIT:          0  iMISS:          0  dACCESS:          0  dHIT:          0  dMISS:          0  itACCESS:      64845  itHIT:       5610  itMISS:      59235  dtACCESS:     493759  dtHIT:      24107  dtMISS:     469652
cpu0_L1D PREFETCH  REQUESTED:   20072052  ISSUED:   18422268  CROSSED:          0  USEFUL:     359633  USELESS:     925620
cpu0_L1D AVERAGE iMISS LATENCY: 0 cycles
cpu0_L1D AVERAGE dMISS LATENCY: 52.2537 cycles
cpu0_L1D AVERAGE itMISS LATENCY: 1.43416 cycles
cpu0_L1D AVERAGE dtMISS LATENCY: 8.30496 cycles
cpu0_L1D PAGE CROSSINGS (TLB HIT):         0 
cpu0_L1D PAGE CROSSINGS (TLB MISS):         0 
cpu0_L1D AVERAGE MISS LATENCY: 61.9928 cycles
cpu0_L2C TOTAL       ACCESS:    8534390  HIT:    1537153  MISS:    6997237  iACCESS:    3740822  iHIT:     796625  iMISS:    2944197  dACCESS:    4295725  dHIT:     535922  dMISS:    3759803  itACCESS:      58934  itHIT:      16319  itMISS:      42615  dtACCESS:     438909  dtHIT:     188287  dtMISS:     250622
cpu0_L2C LOAD         ACCESS:    2023360  HIT:     212211  MISS:    1811149  iACCESS:     830118  iHIT:     118236  iMISS:     711882  dACCESS:    1193242  dHIT:      93975  dMISS:    1099267  itACCESS:          0  itHIT:          0  itMISS:          0  dtACCESS:          0  dtHIT:          0  dtMISS:          0
cpu0_L2C RFO          ACCESS:     209641  HIT:      30374  MISS:     179267  iACCESS:          0  iHIT:          0  iMISS:          0  dACCESS:     209641  dHIT:      30374  dMISS:     179267  itACCESS:          0  itHIT:          0  itMISS:          0  dtACCESS:          0  dtHIT:          0  dtMISS:          0
cpu0_L2C PREFETCH     ACCESS:    5463248  HIT:     985892  MISS:    4477356  iACCESS:    2910704  iHIT:     678389  iMISS:    2232315  dACCESS:    2552544  dHIT:     307503  dMISS:    2245041  itACCESS:          0  itHIT:          0  itMISS:          0  dtACCESS:          0  dtHIT:          0  dtMISS:          0
cpu0_L2C WRITE        ACCESS:     340298  HIT:     104070  MISS:     236228  iACCESS:          0  iHIT:          0  iMISS:          0  dACCESS:     340298  dHIT:     104070  dMISS:     236228  itACCESS:          0  itHIT:          0  itMISS:          0  dtACCESS:          0  dtHIT:          0  dtMISS:          0
cpu0_L2C TRANSLATION  ACCESS:     497843  HIT:     204606  MISS:     293237  iACCESS:          0  iHIT:          0  iMISS:          0  dACCESS:          0  dHIT:          0  dMISS:          0  itACCESS:      58934  itHIT:      16319  itMISS:      42615  dtACCESS:     438909  dtHIT:     188287  dtMISS:     250622
cpu0_L2C PREFETCH  REQUESTED:    1508042  ISSUED:    1508042  CROSSED:          0  USEFUL:     415559  USELESS:     489043
cpu0_L2C AVERAGE iMISS LATENCY: 26.4645 cycles
cpu0_L2C AVERAGE dMISS LATENCY: 48.8013 cycles
cpu0_L2C AVERAGE itMISS LATENCY: 0.999218 cycles
cpu0_L2C AVERAGE dtMISS LATENCY: 5.65855 cycles
cpu0_L2C PAGE CROSSINGS (TLB HIT):         0 
cpu0_L2C PAGE CROSSINGS (TLB MISS):         0 
cpu0_L2C AVERAGE MISS LATENCY: 81.9236 cycles
LLC TOTAL       ACCESS:    6809134  HIT:    4183874  MISS:    2625260  iACCESS:    2851781  iHIT:    2022206  iMISS:     829575  dACCESS:    3664116  dHIT:    2087028  dMISS:    1577088  itACCESS:      42615  itHIT:       8184  itMISS:      34431  dtACCESS:     250622  dtHIT:      66456  dtMISS:     184166
LLC LOAD         ACCESS:    1806238  HIT:    1183755  MISS:     622483  iACCESS:     710551  iHIT:     539062  iMISS:     171489  dACCESS:    1095687  dHIT:     644693  dMISS:     450994  itACCESS:          0  itHIT:          0  itMISS:          0  dtACCESS:          0  dtHIT:          0  dtMISS:          0
LLC RFO          ACCESS:     179256  HIT:      93732  MISS:      85524  iACCESS:          0  iHIT:          0  iMISS:          0  dACCESS:     179256  dHIT:      93732  dMISS:      85524  itACCESS:          0  itHIT:          0  itMISS:          0  dtACCESS:          0  dtHIT:          0  dtMISS:          0
LLC PREFETCH     ACCESS:    4268397  HIT:    2577857  MISS:    1690540  iACCESS:    2141230  iHIT:    1483144  iMISS:     658086  dACCESS:    2127167  dHIT:    1094713  dMISS:    1032454  itACCESS:          0  itHIT:          0  itMISS:          0  dtACCESS:          0  dtHIT:          0  dtMISS:          0
LLC WRITE        ACCESS:     262006  HIT:     253890  MISS:       8116  iACCESS:          0  iHIT:          0  iMISS:          0  dACCESS:     262006  dHIT:     253890  dMISS:       8116  itACCESS:          0  itHIT:          0  itMISS:          0  dtACCESS:          0  dtHIT:          0  dtMISS:          0
LLC TRANSLATION  ACCESS:     293237  HIT:      74640  MISS:     218597  iACCESS:          0  iHIT:          0  iMISS:          0  dACCESS:          0  dHIT:          0  dMISS:          0  itACCESS:      42615  itHIT:       8184  itMISS:      34431  dtACCESS:     250622  dtHIT:      66456  dtMISS:     184166
LLC PREFETCH  REQUESTED:          0  ISSUED:          0  CROSSED:          0  USEFUL:          0  USELESS:          0
LLC AVERAGE iMISS LATENCY: 49.4508 cycles
LLC AVERAGE dMISS LATENCY: 105.505 cycles
LLC AVERAGE itMISS LATENCY: 2.34309 cycles
LLC AVERAGE dtMISS LATENCY: 13.2037 cycles
LLC PAGE CROSSINGS (TLB HIT):         0 
LLC PAGE CROSSINGS (TLB MISS):         0 
LLC AVERAGE MISS LATENCY: 170.502 cycles

PageTableWalker TOTAL       ACCESS:     169891  
PageTableWalker AVERAGE LATENCY: 6.16257 cycles
PageTableWalker TOTAL LATENCY: 1046965 cycles

DRAM Statistics
Channel 0
 RQ ROW_BUFFER_HIT:     616444
  ROW_BUFFER_MISS:    1991169
 AVG DBUS CONGESTED CYCLE:    3.65087
 WQ ROW_BUFFER_HIT:      62686
  ROW_BUFFER_MISS:      57509  FULL:          0

