last_page:0x200000000000000
VMEM_RES_CAP:0x100000
PAGE_SIZE:4096
LOG2_PAGE_SIZE:12
LOG2_PAGE_TABLE_SIZE:9
page_table_levels:5
WARNING: physical memory size is smaller than virtual memory size
FDiP enabled with aggresivity 16

*** ChampSim Multicore Out-of-Order Simulator ***

Warmup Instructions: 50000000
Simulation Instructions: 100000000
Number of CPUs: 1
Small page size: 4096
Large page size: 2097152

CPU 0 Bimodal branch predictor
Basic BTB sets: 1024 ways: 8 indirect buffer size: 4096 RAS size: 64
Instruction page size distrubution: 0
Loading instruction page size distribution from /home/bsc/bsc018186/scratch/itp_asplos25_AE/dump/smt_srv207_ap_srv526_ap_1024i.pdst
Data page size distrubution: 0
Loading data page size distribution from /home/bsc/bsc018186/scratch/itp_asplos25_AE/dump/smt_srv207_ap_srv526_ap_1024i.pdst
cpu0_L2C IP-based stride prefetcher
cpu0_L1D next line prefetcher
cpu0_STLB using iTP with max lru@8
cpu0_STLB using iTP with instr@0 and data@2
Init sat counter with 3 bits (max:50).
cpu0_L1I next line prefetcher
Off-chip DRAM Size: 4 GiB Channels: 1 Width: 64-bit Data Rate: 3200 MT/s
Heartbeat CPU 0 instructions: 10000001 cycles: 2500390 heartbeat IPC: 3.99938 cumulative IPC: 3.99938 (Simulation time: 0 hr 0 min 38 sec) 
Heartbeat CPU 0 instructions: 20000002 cycles: 5000733 heartbeat IPC: 3.99946 cumulative IPC: 3.99942 (Simulation time: 0 hr 1 min 18 sec) 
Heartbeat CPU 0 instructions: 30000002 cycles: 7588733 heartbeat IPC: 3.86399 cumulative IPC: 3.95323 (Simulation time: 0 hr 2 min 0 sec) 
Heartbeat CPU 0 instructions: 40000003 cycles: 10139463 heartbeat IPC: 3.92045 cumulative IPC: 3.94499 (Simulation time: 0 hr 2 min 43 sec) 
Heartbeat CPU 0 instructions: 50000000 cycles: 12665683 heartbeat IPC: 3.95849 cumulative IPC: 3.94768 (Simulation time: 0 hr 3 min 27 sec) 
Warmup finished CPU 0 instructions: 50000000 cycles: 12665684 cumulative IPC: 3.94768 (Simulation time: 0 hr 3 min 27 sec) 

Warmup complete CPU 0 instructions: 50000000 cycles: 12665684 (Simulation time: 0 hr 3 min 27 sec) 

Heartbeat CPU 0 instructions: 60000003 cycles: 42850656 heartbeat IPC: 0.331291 cumulative IPC: 0.331291 (Simulation time: 0 hr 4 min 57 sec) 
Heartbeat CPU 0 instructions: 70000004 cycles: 73505828 heartbeat IPC: 0.32621 cumulative IPC: 0.328731 (Simulation time: 0 hr 6 min 29 sec) 
Heartbeat CPU 0 instructions: 80000002 cycles: 104953316 heartbeat IPC: 0.317991 cumulative IPC: 0.325071 (Simulation time: 0 hr 8 min 2 sec) 
Heartbeat CPU 0 instructions: 90000003 cycles: 135214378 heartbeat IPC: 0.330458 cumulative IPC: 0.326401 (Simulation time: 0 hr 9 min 31 sec) 
Heartbeat CPU 0 instructions: 100000000 cycles: 165613199 heartbeat IPC: 0.328961 cumulative IPC: 0.32691 (Simulation time: 0 hr 11 min 0 sec) 
Heartbeat CPU 0 instructions: 110000000 cycles: 196240444 heartbeat IPC: 0.326507 cumulative IPC: 0.326843 (Simulation time: 0 hr 12 min 29 sec) 
Heartbeat CPU 0 instructions: 120000000 cycles: 225523034 heartbeat IPC: 0.3415 cumulative IPC: 0.328859 (Simulation time: 0 hr 13 min 52 sec) 
Heartbeat CPU 0 instructions: 130000002 cycles: 255309202 heartbeat IPC: 0.335727 cumulative IPC: 0.329702 (Simulation time: 0 hr 15 min 15 sec) 
Heartbeat CPU 0 instructions: 140000002 cycles: 287312640 heartbeat IPC: 0.312467 cumulative IPC: 0.327694 (Simulation time: 0 hr 16 min 41 sec) 
Heartbeat CPU 0 instructions: 150000000 cycles: 318644751 heartbeat IPC: 0.319162 cumulative IPC: 0.32682 (Simulation time: 0 hr 18 min 6 sec) 
Simulation finished CPU 0 instructions: 100000000 cycles: 305979068 cumulative IPC: 0.32682 (Simulation time: 0 hr 18 min 6 sec) 

Simulation complete CPU 0 instructions: 100000000 cycles: 305979068 (Simulation time: 0 hr 18 min 6 sec) 


ChampSim completed all CPUs

Saving instructions large page distribution to /home/bsc/bsc018186/scratch/itp_asplos25_AE/dump/smt_srv207_ap_srv526_ap_1024i.pdst...
Saving data large page distribution to /home/bsc/bsc018186/scratch/itp_asplos25_AE/dump/smt_srv207_ap_srv526_ap_1024i.pdst...
=== Simulation ===
CPU 0 runs /gpfs/projects/bsc18/MN4/bsc18/romol/ChampSim/traces/qualcomm_srv/smt_srv207_ap_srv526_ap_1024i.champsimtrace.xz

Region of Interest Statistics

CPU 0 cumulative IPC: 0.32682 instructions: 100000000 cycles: 305979068
CPU 0 Branch Prediction Accuracy: 75.1657% MPKI: 44.6877 Average ROB Occupancy at Mispredict: 11.2812
Branch type MPKI
BRANCH_DIRECT_JUMP: 1.46301
BRANCH_INDIRECT: 23.5899
BRANCH_CONDITIONAL: 12.4119
BRANCH_DIRECT_CALL: 2.63154
BRANCH_INDIRECT_CALL: 1.00381
BRANCH_RETURN: 3.58768

Instructions large pages: 0
Instructions small pages: 15154
Large page distribution for instructions: 0%

Data large pages: 0
Data small pages: 13659
Large page distribution for data: 0%

cpu0_L1I TOTAL       ACCESS:   38945029  HIT:   30148834  MISS:    8796195  iACCESS:   38945029  iHIT:   30148834  iMISS:    8796195  dACCESS:          0  dHIT:          0  dMISS:          0  itACCESS:          0  itHIT:          0  itMISS:          0  dtACCESS:          0  dtHIT:          0  dtMISS:          0
cpu0_L1I LOAD         ACCESS:   11533410  HIT:    9117064  MISS:    2416346  iACCESS:   11533410  iHIT:    9117064  iMISS:    2416346  dACCESS:          0  dHIT:          0  dMISS:          0  itACCESS:          0  itHIT:          0  itMISS:          0  dtACCESS:          0  dtHIT:          0  dtMISS:          0
cpu0_L1I RFO          ACCESS:          0  HIT:          0  MISS:          0  iACCESS:          0  iHIT:          0  iMISS:          0  dACCESS:          0  dHIT:          0  dMISS:          0  itACCESS:          0  itHIT:          0  itMISS:          0  dtACCESS:          0  dtHIT:          0  dtMISS:          0
cpu0_L1I PREFETCH     ACCESS:   27411619  HIT:   21031770  MISS:    6379849  iACCESS:   27411619  iHIT:   21031770  iMISS:    6379849  dACCESS:          0  dHIT:          0  dMISS:          0  itACCESS:          0  itHIT:          0  itMISS:          0  dtACCESS:          0  dtHIT:          0  dtMISS:          0
cpu0_L1I WRITE        ACCESS:          0  HIT:          0  MISS:          0  iACCESS:          0  iHIT:          0  iMISS:          0  dACCESS:          0  dHIT:          0  dMISS:          0  itACCESS:          0  itHIT:          0  itMISS:          0  dtACCESS:          0  dtHIT:          0  dtMISS:          0
cpu0_L1I TRANSLATION  ACCESS:          0  HIT:          0  MISS:          0  iACCESS:          0  iHIT:          0  iMISS:          0  dACCESS:          0  dHIT:          0  dMISS:          0  itACCESS:          0  itHIT:          0  itMISS:          0  dtACCESS:          0  dtHIT:          0  dtMISS:          0
cpu0_L1I PREFETCH  REQUESTED:   30152434  ISSUED:   30152404  CROSSED:          0  USEFUL:    2201496  USELESS:     798966
cpu0_L1I AVERAGE iMISS LATENCY: 24.6483 cycles
cpu0_L1I AVERAGE dMISS LATENCY: 0 cycles
cpu0_L1I AVERAGE itMISS LATENCY: 0 cycles
cpu0_L1I AVERAGE dtMISS LATENCY: 0 cycles
cpu0_L1I PAGE CROSSINGS (TLB HIT):         0 
cpu0_L1I PAGE CROSSINGS (TLB MISS):         0 
cpu0_L1I AVERAGE MISS LATENCY: 24.6483 cycles
cpu0_ITLB TOTAL       ACCESS:   33041280  HIT:   30729729  MISS:    2311551  iACCESS:   33041280  iHIT:   30729729  iMISS:    2311551  dACCESS:          0  dHIT:          0  dMISS:          0  itACCESS:          0  itHIT:          0  itMISS:          0  dtACCESS:          0  dtHIT:          0  dtMISS:          0
cpu0_ITLB LOAD         ACCESS:   33041280  HIT:   30729729  MISS:    2311551  iACCESS:   33041280  iHIT:   30729729  iMISS:    2311551  dACCESS:          0  dHIT:          0  dMISS:          0  itACCESS:          0  itHIT:          0  itMISS:          0  dtACCESS:          0  dtHIT:          0  dtMISS:          0
cpu0_ITLB RFO          ACCESS:          0  HIT:          0  MISS:          0  iACCESS:          0  iHIT:          0  iMISS:          0  dACCESS:          0  dHIT:          0  dMISS:          0  itACCESS:          0  itHIT:          0  itMISS:          0  dtACCESS:          0  dtHIT:          0  dtMISS:          0
cpu0_ITLB PREFETCH     ACCESS:          0  HIT:          0  MISS:          0  iACCESS:          0  iHIT:          0  iMISS:          0  dACCESS:          0  dHIT:          0  dMISS:          0  itACCESS:          0  itHIT:          0  itMISS:          0  dtACCESS:          0  dtHIT:          0  dtMISS:          0
cpu0_ITLB WRITE        ACCESS:          0  HIT:          0  MISS:          0  iACCESS:          0  iHIT:          0  iMISS:          0  dACCESS:          0  dHIT:          0  dMISS:          0  itACCESS:          0  itHIT:          0  itMISS:          0  dtACCESS:          0  dtHIT:          0  dtMISS:          0
cpu0_ITLB TRANSLATION  ACCESS:          0  HIT:          0  MISS:          0  iACCESS:          0  iHIT:          0  iMISS:          0  dACCESS:          0  dHIT:          0  dMISS:          0  itACCESS:          0  itHIT:          0  itMISS:          0  dtACCESS:          0  dtHIT:          0  dtMISS:          0
cpu0_ITLB PREFETCH  REQUESTED:          0  ISSUED:          0  CROSSED:          0  USEFUL:     404436  USELESS:      87284
cpu0_ITLB AVERAGE iMISS LATENCY: 6.91229 cycles
cpu0_ITLB AVERAGE dMISS LATENCY: 0 cycles
cpu0_ITLB AVERAGE itMISS LATENCY: 0 cycles
cpu0_ITLB AVERAGE dtMISS LATENCY: 0 cycles
cpu0_ITLB PAGE CROSSINGS (TLB HIT):         0 
cpu0_ITLB PAGE CROSSINGS (TLB MISS):         0 
cpu0_ITLB AVERAGE MISS LATENCY: 6.91229 cycles
cpu0_DTLB TOTAL       ACCESS:   29239505  HIT:   25660472  MISS:    3579033  iACCESS:          0  iHIT:          0  iMISS:          0  dACCESS:   29239505  dHIT:   25660472  dMISS:    3579033  itACCESS:          0  itHIT:          0  itMISS:          0  dtACCESS:          0  dtHIT:          0  dtMISS:          0
cpu0_DTLB LOAD         ACCESS:   29239505  HIT:   25660472  MISS:    3579033  iACCESS:          0  iHIT:          0  iMISS:          0  dACCESS:   29239505  dHIT:   25660472  dMISS:    3579033  itACCESS:          0  itHIT:          0  itMISS:          0  dtACCESS:          0  dtHIT:          0  dtMISS:          0
cpu0_DTLB RFO          ACCESS:          0  HIT:          0  MISS:          0  iACCESS:          0  iHIT:          0  iMISS:          0  dACCESS:          0  dHIT:          0  dMISS:          0  itACCESS:          0  itHIT:          0  itMISS:          0  dtACCESS:          0  dtHIT:          0  dtMISS:          0
cpu0_DTLB PREFETCH     ACCESS:          0  HIT:          0  MISS:          0  iACCESS:          0  iHIT:          0  iMISS:          0  dACCESS:          0  dHIT:          0  dMISS:          0  itACCESS:          0  itHIT:          0  itMISS:          0  dtACCESS:          0  dtHIT:          0  dtMISS:          0
cpu0_DTLB WRITE        ACCESS:          0  HIT:          0  MISS:          0  iACCESS:          0  iHIT:          0  iMISS:          0  dACCESS:          0  dHIT:          0  dMISS:          0  itACCESS:          0  itHIT:          0  itMISS:          0  dtACCESS:          0  dtHIT:          0  dtMISS:          0
cpu0_DTLB TRANSLATION  ACCESS:          0  HIT:          0  MISS:          0  iACCESS:          0  iHIT:          0  iMISS:          0  dACCESS:          0  dHIT:          0  dMISS:          0  itACCESS:          0  itHIT:          0  itMISS:          0  dtACCESS:          0  dtHIT:          0  dtMISS:          0
cpu0_DTLB PREFETCH  REQUESTED:          0  ISSUED:          0  CROSSED:          0  USEFUL:          0  USELESS:          0
cpu0_DTLB AVERAGE iMISS LATENCY: 0 cycles
cpu0_DTLB AVERAGE dMISS LATENCY: 28.7699 cycles
cpu0_DTLB AVERAGE itMISS LATENCY: 0 cycles
cpu0_DTLB AVERAGE dtMISS LATENCY: 0 cycles
cpu0_DTLB PAGE CROSSINGS (TLB HIT):         0 
cpu0_DTLB PAGE CROSSINGS (TLB MISS):         0 
cpu0_DTLB AVERAGE MISS LATENCY: 28.7699 cycles
cpu0_STLB TOTAL       ACCESS:    2574708  HIT:    2187912  MISS:     386796  iACCESS:     491722  iHIT:     428417  iMISS:      63305  dACCESS:    2082986  dHIT:    1759495  dMISS:     323491  itACCESS:          0  itHIT:          0  itMISS:          0  dtACCESS:          0  dtHIT:          0  dtMISS:          0
cpu0_STLB LOAD         ACCESS:    2574708  HIT:    2187912  MISS:     386796  iACCESS:     491722  iHIT:     428417  iMISS:      63305  dACCESS:    2082986  dHIT:    1759495  dMISS:     323491  itACCESS:          0  itHIT:          0  itMISS:          0  dtACCESS:          0  dtHIT:          0  dtMISS:          0
cpu0_STLB RFO          ACCESS:          0  HIT:          0  MISS:          0  iACCESS:          0  iHIT:          0  iMISS:          0  dACCESS:          0  dHIT:          0  dMISS:          0  itACCESS:          0  itHIT:          0  itMISS:          0  dtACCESS:          0  dtHIT:          0  dtMISS:          0
cpu0_STLB PREFETCH     ACCESS:          0  HIT:          0  MISS:          0  iACCESS:          0  iHIT:          0  iMISS:          0  dACCESS:          0  dHIT:          0  dMISS:          0  itACCESS:          0  itHIT:          0  itMISS:          0  dtACCESS:          0  dtHIT:          0  dtMISS:          0
cpu0_STLB WRITE        ACCESS:          0  HIT:          0  MISS:          0  iACCESS:          0  iHIT:          0  iMISS:          0  dACCESS:          0  dHIT:          0  dMISS:          0  itACCESS:          0  itHIT:          0  itMISS:          0  dtACCESS:          0  dtHIT:          0  dtMISS:          0
cpu0_STLB TRANSLATION  ACCESS:          0  HIT:          0  MISS:          0  iACCESS:          0  iHIT:          0  iMISS:          0  dACCESS:          0  dHIT:          0  dMISS:          0  itACCESS:          0  itHIT:          0  itMISS:          0  dtACCESS:          0  dtHIT:          0  dtMISS:          0
cpu0_STLB PREFETCH  REQUESTED:          0  ISSUED:          0  CROSSED:          0  USEFUL:          0  USELESS:          0
cpu0_STLB AVERAGE iMISS LATENCY: 31.3022 cycles
cpu0_STLB AVERAGE dMISS LATENCY: 222.711 cycles
cpu0_STLB AVERAGE itMISS LATENCY: 0 cycles
cpu0_STLB AVERAGE dtMISS LATENCY: 0 cycles
cpu0_STLB PAGE CROSSINGS (TLB HIT):         0 
cpu0_STLB PAGE CROSSINGS (TLB MISS):         0 
cpu0_STLB AVERAGE MISS LATENCY: 254.013 cycles
cpu0_L1D TOTAL       ACCESS:   45473745  HIT:   39662017  MISS:    5811728  iACCESS:          0  iHIT:          0  iMISS:          0  dACCESS:   44884261  dHIT:   39630034  dMISS:    5254227  itACCESS:      74739  itHIT:       5784  itMISS:      68955  dtACCESS:     514745  dtHIT:      26199  dtMISS:     488546
cpu0_L1D LOAD         ACCESS:   20520857  HIT:   18159448  MISS:    2361409  iACCESS:          0  iHIT:          0  iMISS:          0  dACCESS:   20520857  dHIT:   18159448  dMISS:    2361409  itACCESS:          0  itHIT:          0  itMISS:          0  dtACCESS:          0  dtHIT:          0  dtMISS:          0
cpu0_L1D RFO          ACCESS:          0  HIT:          0  MISS:          0  iACCESS:          0  iHIT:          0  iMISS:          0  dACCESS:          0  dHIT:          0  dMISS:          0  itACCESS:          0  itHIT:          0  itMISS:          0  dtACCESS:          0  dtHIT:          0  dtMISS:          0
cpu0_L1D PREFETCH     ACCESS:   14166992  HIT:   11878725  MISS:    2288267  iACCESS:          0  iHIT:          0  iMISS:          0  dACCESS:   14166992  dHIT:   11878725  dMISS:    2288267  itACCESS:          0  itHIT:          0  itMISS:          0  dtACCESS:          0  dtHIT:          0  dtMISS:          0
cpu0_L1D WRITE        ACCESS:   10196412  HIT:    9591861  MISS:     604551  iACCESS:          0  iHIT:          0  iMISS:          0  dACCESS:   10196412  dHIT:    9591861  dMISS:     604551  itACCESS:          0  itHIT:          0  itMISS:          0  dtACCESS:          0  dtHIT:          0  dtMISS:          0
cpu0_L1D TRANSLATION  ACCESS:     589484  HIT:      31983  MISS:     557501  iACCESS:          0  iHIT:          0  iMISS:          0  dACCESS:          0  dHIT:          0  dMISS:          0  itACCESS:      74739  itHIT:       5784  itMISS:      68955  dtACCESS:     514745  dtHIT:      26199  dtMISS:     488546
cpu0_L1D PREFETCH  REQUESTED:   20520857  ISSUED:   18828042  CROSSED:          0  USEFUL:     372290  USELESS:     966994
cpu0_L1D AVERAGE iMISS LATENCY: 0 cycles
cpu0_L1D AVERAGE dMISS LATENCY: 51.0183 cycles
cpu0_L1D AVERAGE itMISS LATENCY: 1.97277 cycles
cpu0_L1D AVERAGE dtMISS LATENCY: 13.7476 cycles
cpu0_L1D PAGE CROSSINGS (TLB HIT):         0 
cpu0_L1D PAGE CROSSINGS (TLB MISS):         0 
cpu0_L1D AVERAGE MISS LATENCY: 66.7387 cycles
cpu0_L2C TOTAL       ACCESS:    8763589  HIT:    4183654  MISS:    4579935  iACCESS:    3834841  iHIT:    2272408  iMISS:    1562433  dACCESS:    4400188  dHIT:    1842933  dMISS:    2557255  itACCESS:      68685  itHIT:      10115  itMISS:      58570  dtACCESS:     459875  dtHIT:      58198  dtMISS:     401677
cpu0_L2C LOAD         ACCESS:    2124965  HIT:    1017920  MISS:    1107045  iACCESS:     867726  iHIT:     537072  iMISS:     330654  dACCESS:    1257239  dHIT:     480848  dMISS:     776391  itACCESS:          0  itHIT:          0  itMISS:          0  dtACCESS:          0  dtHIT:          0  dtMISS:          0
cpu0_L2C RFO          ACCESS:     230440  HIT:      91006  MISS:     139434  iACCESS:          0  iHIT:          0  iMISS:          0  dACCESS:     230440  dHIT:      91006  dMISS:     139434  itACCESS:          0  itHIT:          0  itMISS:          0  dtACCESS:          0  dtHIT:          0  dtMISS:          0
cpu0_L2C PREFETCH     ACCESS:    5527195  HIT:    2657998  MISS:    2869197  iACCESS:    2967115  iHIT:    1735336  iMISS:    1231779  dACCESS:    2560080  dHIT:     922662  dMISS:    1637418  itACCESS:          0  itHIT:          0  itMISS:          0  dtACCESS:          0  dtHIT:          0  dtMISS:          0
cpu0_L2C WRITE        ACCESS:     352429  HIT:     348417  MISS:       4012  iACCESS:          0  iHIT:          0  iMISS:          0  dACCESS:     352429  dHIT:     348417  dMISS:       4012  itACCESS:          0  itHIT:          0  itMISS:          0  dtACCESS:          0  dtHIT:          0  dtMISS:          0
cpu0_L2C TRANSLATION  ACCESS:     528560  HIT:      68313  MISS:     460247  iACCESS:          0  iHIT:          0  iMISS:          0  dACCESS:          0  dHIT:          0  dMISS:          0  itACCESS:      68685  itHIT:      10115  itMISS:      58570  dtACCESS:     459875  dtHIT:      58198  dtMISS:     401677
cpu0_L2C PREFETCH  REQUESTED:    1450147  ISSUED:    1450147  CROSSED:          0  USEFUL:     338396  USELESS:     324339
cpu0_L2C AVERAGE iMISS LATENCY: 40.3797 cycles
cpu0_L2C AVERAGE dMISS LATENCY: 79.1226 cycles
cpu0_L2C AVERAGE itMISS LATENCY: 2.35518 cycles
cpu0_L2C AVERAGE dtMISS LATENCY: 16.4476 cycles
cpu0_L2C PAGE CROSSINGS (TLB HIT):         0 
cpu0_L2C PAGE CROSSINGS (TLB MISS):         0 
cpu0_L2C AVERAGE MISS LATENCY: 138.305 cycles
LLC TOTAL       ACCESS:    4593180  HIT:    1437250  MISS:    3155930  iACCESS:    1479132  iHIT:     505313  iMISS:     973819  dACCESS:    2653801  dHIT:     875807  dMISS:    1777994  itACCESS:      58570  itHIT:       4462  itMISS:      54108  dtACCESS:     401677  dtHIT:      51668  dtMISS:     350009
LLC LOAD         ACCESS:    1100793  HIT:     360717  MISS:     740076  iACCESS:     329446  iHIT:     121639  iMISS:     207807  dACCESS:     771347  dHIT:     239078  dMISS:     532269  itACCESS:          0  itHIT:          0  itMISS:          0  dtACCESS:          0  dtHIT:          0  dtMISS:          0
LLC RFO          ACCESS:     139427  HIT:      41241  MISS:      98186  iACCESS:          0  iHIT:          0  iMISS:          0  dACCESS:     139427  dHIT:      41241  dMISS:      98186  itACCESS:          0  itHIT:          0  itMISS:          0  dtACCESS:          0  dtHIT:          0  dtMISS:          0
LLC PREFETCH     ACCESS:    2678727  HIT:     775746  MISS:    1902981  iACCESS:    1149686  iHIT:     383674  iMISS:     766012  dACCESS:    1529041  dHIT:     392072  dMISS:    1136969  itACCESS:          0  itHIT:          0  itMISS:          0  dtACCESS:          0  dtHIT:          0  dtMISS:          0
LLC WRITE        ACCESS:     213986  HIT:     203416  MISS:      10570  iACCESS:          0  iHIT:          0  iMISS:          0  dACCESS:     213986  dHIT:     203416  dMISS:      10570  itACCESS:          0  itHIT:          0  itMISS:          0  dtACCESS:          0  dtHIT:          0  dtMISS:          0
LLC TRANSLATION  ACCESS:     460247  HIT:      56130  MISS:     404117  iACCESS:          0  iHIT:          0  iMISS:          0  dACCESS:          0  dHIT:          0  dMISS:          0  itACCESS:      58570  itHIT:       4462  itMISS:      54108  dtACCESS:     401677  dtHIT:      51668  dtMISS:     350009
LLC PREFETCH  REQUESTED:          0  ISSUED:          0  CROSSED:          0  USEFUL:          0  USELESS:          0
LLC AVERAGE iMISS LATENCY: 49.3796 cycles
LLC AVERAGE dMISS LATENCY: 100.334 cycles
LLC AVERAGE itMISS LATENCY: 3.04985 cycles
LLC AVERAGE dtMISS LATENCY: 21.3543 cycles
LLC PAGE CROSSINGS (TLB HIT):         0 
LLC PAGE CROSSINGS (TLB MISS):         0 
LLC AVERAGE MISS LATENCY: 174.118 cycles

PageTableWalker TOTAL       ACCESS:     136550  
PageTableWalker AVERAGE LATENCY: 6.71689 cycles
PageTableWalker TOTAL LATENCY: 917191 cycles

DRAM Statistics
Channel 0
 RQ ROW_BUFFER_HIT:     654696
  ROW_BUFFER_MISS:    2478464
 AVG DBUS CONGESTED CYCLE:    3.64816
 WQ ROW_BUFFER_HIT:      66677
  ROW_BUFFER_MISS:      57889  FULL:          0

