last_page:0x200000000000000
VMEM_RES_CAP:0x100000
PAGE_SIZE:4096
LOG2_PAGE_SIZE:12
LOG2_PAGE_TABLE_SIZE:9
page_table_levels:5
WARNING: physical memory size is smaller than virtual memory size
FDiP enabled with aggresivity 16

*** ChampSim Multicore Out-of-Order Simulator ***

Warmup Instructions: 50000000
Simulation Instructions: 100000000
Number of CPUs: 1
Small page size: 4096
Large page size: 2097152

CPU 0 Bimodal branch predictor
Basic BTB sets: 1024 ways: 8 indirect buffer size: 4096 RAS size: 64
Instruction page size distrubution: 0
Loading instruction page size distribution from /home/bsc/bsc018186/scratch/itp_asplos25_AE/dump/smt_srv207_ap_srv582_ap_1024i.pdst
Data page size distrubution: 0
Loading data page size distribution from /home/bsc/bsc018186/scratch/itp_asplos25_AE/dump/smt_srv207_ap_srv582_ap_1024i.pdst
cpu0_L2C IP-based stride prefetcher
cpu0_L1D next line prefetcher
CHiRPing...
cpu0_L1I next line prefetcher
Off-chip DRAM Size: 4 GiB Channels: 1 Width: 64-bit Data Rate: 3200 MT/s
Heartbeat CPU 0 instructions: 10000001 cycles: 2500602 heartbeat IPC: 3.99904 cumulative IPC: 3.99904 (Simulation time: 0 hr 0 min 40 sec) 
Heartbeat CPU 0 instructions: 20000000 cycles: 5001277 heartbeat IPC: 3.99892 cumulative IPC: 3.99898 (Simulation time: 0 hr 1 min 22 sec) 
Heartbeat CPU 0 instructions: 30000002 cycles: 7501769 heartbeat IPC: 3.99922 cumulative IPC: 3.99906 (Simulation time: 0 hr 2 min 4 sec) 
Heartbeat CPU 0 instructions: 40000001 cycles: 10002048 heartbeat IPC: 3.99956 cumulative IPC: 3.99919 (Simulation time: 0 hr 2 min 47 sec) 
Heartbeat CPU 0 instructions: 50000000 cycles: 12502548 heartbeat IPC: 3.9992 cumulative IPC: 3.99919 (Simulation time: 0 hr 3 min 30 sec) 
Warmup finished CPU 0 instructions: 50000000 cycles: 12502549 cumulative IPC: 3.99919 (Simulation time: 0 hr 3 min 30 sec) 

Warmup complete CPU 0 instructions: 50000000 cycles: 12502549 (Simulation time: 0 hr 3 min 30 sec) 

Heartbeat CPU 0 instructions: 60000002 cycles: 41074386 heartbeat IPC: 0.349996 cumulative IPC: 0.349996 (Simulation time: 0 hr 4 min 55 sec) 
Heartbeat CPU 0 instructions: 70000000 cycles: 70108562 heartbeat IPC: 0.344422 cumulative IPC: 0.347186 (Simulation time: 0 hr 6 min 21 sec) 
Heartbeat CPU 0 instructions: 80000000 cycles: 98832216 heartbeat IPC: 0.348146 cumulative IPC: 0.347506 (Simulation time: 0 hr 7 min 47 sec) 
Heartbeat CPU 0 instructions: 90000003 cycles: 128029027 heartbeat IPC: 0.342504 cumulative IPC: 0.346241 (Simulation time: 0 hr 9 min 13 sec) 
Heartbeat CPU 0 instructions: 100000002 cycles: 157116428 heartbeat IPC: 0.343792 cumulative IPC: 0.345749 (Simulation time: 0 hr 10 min 40 sec) 
Heartbeat CPU 0 instructions: 110000004 cycles: 185967563 heartbeat IPC: 0.346607 cumulative IPC: 0.345892 (Simulation time: 0 hr 12 min 6 sec) 
Heartbeat CPU 0 instructions: 120000004 cycles: 214590742 heartbeat IPC: 0.349368 cumulative IPC: 0.346384 (Simulation time: 0 hr 13 min 33 sec) 
Heartbeat CPU 0 instructions: 130000000 cycles: 242906220 heartbeat IPC: 0.353164 cumulative IPC: 0.347217 (Simulation time: 0 hr 14 min 58 sec) 
Heartbeat CPU 0 instructions: 140000002 cycles: 272301310 heartbeat IPC: 0.340193 cumulative IPC: 0.346422 (Simulation time: 0 hr 16 min 25 sec) 
Heartbeat CPU 0 instructions: 150000000 cycles: 299795974 heartbeat IPC: 0.363707 cumulative IPC: 0.348077 (Simulation time: 0 hr 17 min 50 sec) 
Simulation finished CPU 0 instructions: 100000000 cycles: 287293426 cumulative IPC: 0.348077 (Simulation time: 0 hr 17 min 50 sec) 

Simulation complete CPU 0 instructions: 100000000 cycles: 287293426 (Simulation time: 0 hr 17 min 50 sec) 


ChampSim completed all CPUs

Saving instructions large page distribution to /home/bsc/bsc018186/scratch/itp_asplos25_AE/dump/smt_srv207_ap_srv582_ap_1024i.pdst...
Saving data large page distribution to /home/bsc/bsc018186/scratch/itp_asplos25_AE/dump/smt_srv207_ap_srv582_ap_1024i.pdst...
=== Simulation ===
CPU 0 runs /gpfs/projects/bsc18/MN4/bsc18/romol/ChampSim/traces/qualcomm_srv/smt_srv207_ap_srv582_ap_1024i.champsimtrace.xz

Region of Interest Statistics

CPU 0 cumulative IPC: 0.348077 instructions: 100000000 cycles: 287293426
CPU 0 Branch Prediction Accuracy: 74.6154% MPKI: 45.7265 Average ROB Occupancy at Mispredict: 10.4712
Branch type MPKI
BRANCH_DIRECT_JUMP: 1.4266
BRANCH_INDIRECT: 24.0265
BRANCH_CONDITIONAL: 12.9323
BRANCH_DIRECT_CALL: 2.71321
BRANCH_INDIRECT_CALL: 1.03809
BRANCH_RETURN: 3.58991

Instructions large pages: 0
Instructions small pages: 11471
Large page distribution for instructions: 0%

Data large pages: 0
Data small pages: 9974
Large page distribution for data: 0%

cpu0_L1I TOTAL       ACCESS:   39510830  HIT:   30226127  MISS:    9284703  iACCESS:   39510830  iHIT:   30226127  iMISS:    9284703  dACCESS:          0  dHIT:          0  dMISS:          0  itACCESS:          0  itHIT:          0  itMISS:          0  dtACCESS:          0  dtHIT:          0  dtMISS:          0
cpu0_L1I LOAD         ACCESS:   11683203  HIT:    9158484  MISS:    2524719  iACCESS:   11683203  iHIT:    9158484  iMISS:    2524719  dACCESS:          0  dHIT:          0  dMISS:          0  itACCESS:          0  itHIT:          0  itMISS:          0  dtACCESS:          0  dtHIT:          0  dtMISS:          0
cpu0_L1I RFO          ACCESS:          0  HIT:          0  MISS:          0  iACCESS:          0  iHIT:          0  iMISS:          0  dACCESS:          0  dHIT:          0  dMISS:          0  itACCESS:          0  itHIT:          0  itMISS:          0  dtACCESS:          0  dtHIT:          0  dtMISS:          0
cpu0_L1I PREFETCH     ACCESS:   27827627  HIT:   21067643  MISS:    6759984  iACCESS:   27827627  iHIT:   21067643  iMISS:    6759984  dACCESS:          0  dHIT:          0  dMISS:          0  itACCESS:          0  itHIT:          0  itMISS:          0  dtACCESS:          0  dtHIT:          0  dtMISS:          0
cpu0_L1I WRITE        ACCESS:          0  HIT:          0  MISS:          0  iACCESS:          0  iHIT:          0  iMISS:          0  dACCESS:          0  dHIT:          0  dMISS:          0  itACCESS:          0  itHIT:          0  itMISS:          0  dtACCESS:          0  dtHIT:          0  dtMISS:          0
cpu0_L1I TRANSLATION  ACCESS:          0  HIT:          0  MISS:          0  iACCESS:          0  iHIT:          0  iMISS:          0  dACCESS:          0  dHIT:          0  dMISS:          0  itACCESS:          0  itHIT:          0  itMISS:          0  dtACCESS:          0  dtHIT:          0  dtMISS:          0
cpu0_L1I PREFETCH  REQUESTED:   30355227  ISSUED:   30353675  CROSSED:          0  USEFUL:    2221433  USELESS:     797500
cpu0_L1I AVERAGE iMISS LATENCY: 24.561 cycles
cpu0_L1I AVERAGE dMISS LATENCY: 0 cycles
cpu0_L1I AVERAGE itMISS LATENCY: 0 cycles
cpu0_L1I AVERAGE dtMISS LATENCY: 0 cycles
cpu0_L1I PAGE CROSSINGS (TLB HIT):         0 
cpu0_L1I PAGE CROSSINGS (TLB MISS):         0 
cpu0_L1I AVERAGE MISS LATENCY: 24.561 cycles
cpu0_ITLB TOTAL       ACCESS:   33326441  HIT:   31050256  MISS:    2276185  iACCESS:   33326441  iHIT:   31050256  iMISS:    2276185  dACCESS:          0  dHIT:          0  dMISS:          0  itACCESS:          0  itHIT:          0  itMISS:          0  dtACCESS:          0  dtHIT:          0  dtMISS:          0
cpu0_ITLB LOAD         ACCESS:   33326441  HIT:   31050256  MISS:    2276185  iACCESS:   33326441  iHIT:   31050256  iMISS:    2276185  dACCESS:          0  dHIT:          0  dMISS:          0  itACCESS:          0  itHIT:          0  itMISS:          0  dtACCESS:          0  dtHIT:          0  dtMISS:          0
cpu0_ITLB RFO          ACCESS:          0  HIT:          0  MISS:          0  iACCESS:          0  iHIT:          0  iMISS:          0  dACCESS:          0  dHIT:          0  dMISS:          0  itACCESS:          0  itHIT:          0  itMISS:          0  dtACCESS:          0  dtHIT:          0  dtMISS:          0
cpu0_ITLB PREFETCH     ACCESS:          0  HIT:          0  MISS:          0  iACCESS:          0  iHIT:          0  iMISS:          0  dACCESS:          0  dHIT:          0  dMISS:          0  itACCESS:          0  itHIT:          0  itMISS:          0  dtACCESS:          0  dtHIT:          0  dtMISS:          0
cpu0_ITLB WRITE        ACCESS:          0  HIT:          0  MISS:          0  iACCESS:          0  iHIT:          0  iMISS:          0  dACCESS:          0  dHIT:          0  dMISS:          0  itACCESS:          0  itHIT:          0  itMISS:          0  dtACCESS:          0  dtHIT:          0  dtMISS:          0
cpu0_ITLB TRANSLATION  ACCESS:          0  HIT:          0  MISS:          0  iACCESS:          0  iHIT:          0  iMISS:          0  dACCESS:          0  dHIT:          0  dMISS:          0  itACCESS:          0  itHIT:          0  itMISS:          0  dtACCESS:          0  dtHIT:          0  dtMISS:          0
cpu0_ITLB PREFETCH  REQUESTED:          0  ISSUED:          0  CROSSED:          0  USEFUL:     401709  USELESS:      82626
cpu0_ITLB AVERAGE iMISS LATENCY: 8.29517 cycles
cpu0_ITLB AVERAGE dMISS LATENCY: 0 cycles
cpu0_ITLB AVERAGE itMISS LATENCY: 0 cycles
cpu0_ITLB AVERAGE dtMISS LATENCY: 0 cycles
cpu0_ITLB PAGE CROSSINGS (TLB HIT):         0 
cpu0_ITLB PAGE CROSSINGS (TLB MISS):         0 
cpu0_ITLB AVERAGE MISS LATENCY: 8.29517 cycles
cpu0_DTLB TOTAL       ACCESS:   29248839  HIT:   25724910  MISS:    3523929  iACCESS:          0  iHIT:          0  iMISS:          0  dACCESS:   29248839  dHIT:   25724910  dMISS:    3523929  itACCESS:          0  itHIT:          0  itMISS:          0  dtACCESS:          0  dtHIT:          0  dtMISS:          0
cpu0_DTLB LOAD         ACCESS:   29248839  HIT:   25724910  MISS:    3523929  iACCESS:          0  iHIT:          0  iMISS:          0  dACCESS:   29248839  dHIT:   25724910  dMISS:    3523929  itACCESS:          0  itHIT:          0  itMISS:          0  dtACCESS:          0  dtHIT:          0  dtMISS:          0
cpu0_DTLB RFO          ACCESS:          0  HIT:          0  MISS:          0  iACCESS:          0  iHIT:          0  iMISS:          0  dACCESS:          0  dHIT:          0  dMISS:          0  itACCESS:          0  itHIT:          0  itMISS:          0  dtACCESS:          0  dtHIT:          0  dtMISS:          0
cpu0_DTLB PREFETCH     ACCESS:          0  HIT:          0  MISS:          0  iACCESS:          0  iHIT:          0  iMISS:          0  dACCESS:          0  dHIT:          0  dMISS:          0  itACCESS:          0  itHIT:          0  itMISS:          0  dtACCESS:          0  dtHIT:          0  dtMISS:          0
cpu0_DTLB WRITE        ACCESS:          0  HIT:          0  MISS:          0  iACCESS:          0  iHIT:          0  iMISS:          0  dACCESS:          0  dHIT:          0  dMISS:          0  itACCESS:          0  itHIT:          0  itMISS:          0  dtACCESS:          0  dtHIT:          0  dtMISS:          0
cpu0_DTLB TRANSLATION  ACCESS:          0  HIT:          0  MISS:          0  iACCESS:          0  iHIT:          0  iMISS:          0  dACCESS:          0  dHIT:          0  dMISS:          0  itACCESS:          0  itHIT:          0  itMISS:          0  dtACCESS:          0  dtHIT:          0  dtMISS:          0
cpu0_DTLB PREFETCH  REQUESTED:          0  ISSUED:          0  CROSSED:          0  USEFUL:          0  USELESS:          0
cpu0_DTLB AVERAGE iMISS LATENCY: 0 cycles
cpu0_DTLB AVERAGE dMISS LATENCY: 18.079 cycles
cpu0_DTLB AVERAGE itMISS LATENCY: 0 cycles
cpu0_DTLB AVERAGE dtMISS LATENCY: 0 cycles
cpu0_DTLB PAGE CROSSINGS (TLB HIT):         0 
cpu0_DTLB PAGE CROSSINGS (TLB MISS):         0 
cpu0_DTLB AVERAGE MISS LATENCY: 18.079 cycles
cpu0_STLB TOTAL       ACCESS:    2569168  HIT:    2179096  MISS:     390072  iACCESS:     484346  iHIT:     365335  iMISS:     119011  dACCESS:    2084822  dHIT:    1813761  dMISS:     271061  itACCESS:          0  itHIT:          0  itMISS:          0  dtACCESS:          0  dtHIT:          0  dtMISS:          0
cpu0_STLB LOAD         ACCESS:    2569168  HIT:    2179096  MISS:     390072  iACCESS:     484346  iHIT:     365335  iMISS:     119011  dACCESS:    2084822  dHIT:    1813761  dMISS:     271061  itACCESS:          0  itHIT:          0  itMISS:          0  dtACCESS:          0  dtHIT:          0  dtMISS:          0
cpu0_STLB RFO          ACCESS:          0  HIT:          0  MISS:          0  iACCESS:          0  iHIT:          0  iMISS:          0  dACCESS:          0  dHIT:          0  dMISS:          0  itACCESS:          0  itHIT:          0  itMISS:          0  dtACCESS:          0  dtHIT:          0  dtMISS:          0
cpu0_STLB PREFETCH     ACCESS:          0  HIT:          0  MISS:          0  iACCESS:          0  iHIT:          0  iMISS:          0  dACCESS:          0  dHIT:          0  dMISS:          0  itACCESS:          0  itHIT:          0  itMISS:          0  dtACCESS:          0  dtHIT:          0  dtMISS:          0
cpu0_STLB WRITE        ACCESS:          0  HIT:          0  MISS:          0  iACCESS:          0  iHIT:          0  iMISS:          0  dACCESS:          0  dHIT:          0  dMISS:          0  itACCESS:          0  itHIT:          0  itMISS:          0  dtACCESS:          0  dtHIT:          0  dtMISS:          0
cpu0_STLB TRANSLATION  ACCESS:          0  HIT:          0  MISS:          0  iACCESS:          0  iHIT:          0  iMISS:          0  dACCESS:          0  dHIT:          0  dMISS:          0  itACCESS:          0  itHIT:          0  itMISS:          0  dtACCESS:          0  dtHIT:          0  dtMISS:          0
cpu0_STLB PREFETCH  REQUESTED:          0  ISSUED:          0  CROSSED:          0  USEFUL:          0  USELESS:          0
cpu0_STLB AVERAGE iMISS LATENCY: 38.4776 cycles
cpu0_STLB AVERAGE dMISS LATENCY: 120.35 cycles
cpu0_STLB AVERAGE itMISS LATENCY: 0 cycles
cpu0_STLB AVERAGE dtMISS LATENCY: 0 cycles
cpu0_STLB PAGE CROSSINGS (TLB HIT):         0 
cpu0_STLB PAGE CROSSINGS (TLB MISS):         0 
cpu0_STLB AVERAGE MISS LATENCY: 158.828 cycles
cpu0_L1D TOTAL       ACCESS:   45765195  HIT:   39706444  MISS:    6058751  iACCESS:          0  iHIT:          0  iMISS:          0  dACCESS:   45201244  dHIT:   39673419  dMISS:    5527825  itACCESS:     133069  itHIT:      13872  itMISS:     119197  dtACCESS:     430882  dtHIT:      19153  dtMISS:     411729
cpu0_L1D LOAD         ACCESS:   20699685  HIT:   18205521  MISS:    2494164  iACCESS:          0  iHIT:          0  iMISS:          0  dACCESS:   20699685  dHIT:   18205521  dMISS:    2494164  itACCESS:          0  itHIT:          0  itMISS:          0  dtACCESS:          0  dtHIT:          0  dtMISS:          0
cpu0_L1D RFO          ACCESS:          0  HIT:          0  MISS:          0  iACCESS:          0  iHIT:          0  iMISS:          0  dACCESS:          0  dHIT:          0  dMISS:          0  itACCESS:          0  itHIT:          0  itMISS:          0  dtACCESS:          0  dtHIT:          0  dtMISS:          0
cpu0_L1D PREFETCH     ACCESS:   14372386  HIT:   11942452  MISS:    2429934  iACCESS:          0  iHIT:          0  iMISS:          0  dACCESS:   14372386  dHIT:   11942452  dMISS:    2429934  itACCESS:          0  itHIT:          0  itMISS:          0  dtACCESS:          0  dtHIT:          0  dtMISS:          0
cpu0_L1D WRITE        ACCESS:   10129173  HIT:    9525446  MISS:     603727  iACCESS:          0  iHIT:          0  iMISS:          0  dACCESS:   10129173  dHIT:    9525446  dMISS:     603727  itACCESS:          0  itHIT:          0  itMISS:          0  dtACCESS:          0  dtHIT:          0  dtMISS:          0
cpu0_L1D TRANSLATION  ACCESS:     563951  HIT:      33025  MISS:     530926  iACCESS:          0  iHIT:          0  iMISS:          0  dACCESS:          0  dHIT:          0  dMISS:          0  itACCESS:     133069  itHIT:      13872  itMISS:     119197  dtACCESS:     430882  dtHIT:      19153  dtMISS:     411729
cpu0_L1D PREFETCH  REQUESTED:   20699685  ISSUED:   18888680  CROSSED:          0  USEFUL:     379381  USELESS:     956952
cpu0_L1D AVERAGE iMISS LATENCY: 0 cycles
cpu0_L1D AVERAGE dMISS LATENCY: 50.752 cycles
cpu0_L1D AVERAGE itMISS LATENCY: 2.29346 cycles
cpu0_L1D AVERAGE dtMISS LATENCY: 6.9952 cycles
cpu0_L1D PAGE CROSSINGS (TLB HIT):         0 
cpu0_L1D PAGE CROSSINGS (TLB MISS):         0 
cpu0_L1D AVERAGE MISS LATENCY: 60.0407 cycles
cpu0_L2C TOTAL       ACCESS:    8796997  HIT:    1509452  MISS:    7287545  iACCESS:    3840420  iHIT:     789857  iMISS:    3050563  dACCESS:    4455741  dHIT:     527532  dMISS:    3928209  itACCESS:     118749  itHIT:      38152  itMISS:      80597  dtACCESS:     382087  dtHIT:     153911  dtMISS:     228176
cpu0_L2C LOAD         ACCESS:    2107867  HIT:     196745  MISS:    1911122  iACCESS:     854805  iHIT:     108721  iMISS:     746084  dACCESS:    1253062  dHIT:      88024  dMISS:    1165038  itACCESS:          0  itHIT:          0  itMISS:          0  dtACCESS:          0  dtHIT:          0  dtMISS:          0
cpu0_L2C RFO          ACCESS:     225310  HIT:      26655  MISS:     198655  iACCESS:          0  iHIT:          0  iMISS:          0  dACCESS:     225310  dHIT:      26655  dMISS:     198655  itACCESS:          0  itHIT:          0  itMISS:          0  dtACCESS:          0  dtHIT:          0  dtMISS:          0
cpu0_L2C PREFETCH     ACCESS:    5614143  HIT:     994457  MISS:    4619686  iACCESS:    2985615  iHIT:     681136  iMISS:    2304479  dACCESS:    2628528  dHIT:     313321  dMISS:    2315207  itACCESS:          0  itHIT:          0  itMISS:          0  dtACCESS:          0  dtHIT:          0  dtMISS:          0
cpu0_L2C WRITE        ACCESS:     348841  HIT:      99532  MISS:     249309  iACCESS:          0  iHIT:          0  iMISS:          0  dACCESS:     348841  dHIT:      99532  dMISS:     249309  itACCESS:          0  itHIT:          0  itMISS:          0  dtACCESS:          0  dtHIT:          0  dtMISS:          0
cpu0_L2C TRANSLATION  ACCESS:     500836  HIT:     192063  MISS:     308773  iACCESS:          0  iHIT:          0  iMISS:          0  dACCESS:          0  dHIT:          0  dMISS:          0  itACCESS:     118749  itHIT:      38152  itMISS:      80597  dtACCESS:     382087  dtHIT:     153911  dtMISS:     228176
cpu0_L2C PREFETCH  REQUESTED:    1530992  ISSUED:    1530991  CROSSED:          0  USEFUL:     405915  USELESS:     498917
cpu0_L2C AVERAGE iMISS LATENCY: 26.7963 cycles
cpu0_L2C AVERAGE dMISS LATENCY: 51.4306 cycles
cpu0_L2C AVERAGE itMISS LATENCY: 1.74858 cycles
cpu0_L2C AVERAGE dtMISS LATENCY: 5.3102 cycles
cpu0_L2C PAGE CROSSINGS (TLB HIT):         0 
cpu0_L2C PAGE CROSSINGS (TLB MISS):         0 
cpu0_L2C AVERAGE MISS LATENCY: 85.2856 cycles
LLC TOTAL       ACCESS:    7102729  HIT:    4267148  MISS:    2835581  iACCESS:    2962311  iHIT:    2089312  iMISS:     872999  dACCESS:    3831645  dHIT:    2109501  dMISS:    1722144  itACCESS:      80597  itHIT:      18283  itMISS:      62314  dtACCESS:     228176  dtHIT:      50052  dtMISS:     178124
LLC LOAD         ACCESS:    1902527  HIT:    1206521  MISS:     696006  iACCESS:     744749  iHIT:     561096  iMISS:     183653  dACCESS:    1157778  dHIT:     645425  dMISS:     512353  itACCESS:          0  itHIT:          0  itMISS:          0  dtACCESS:          0  dtHIT:          0  dtMISS:          0
LLC RFO          ACCESS:     198639  HIT:     102185  MISS:      96454  iACCESS:          0  iHIT:          0  iMISS:          0  dACCESS:     198639  dHIT:     102185  dMISS:      96454  itACCESS:          0  itHIT:          0  itMISS:          0  dtACCESS:          0  dtHIT:          0  dtMISS:          0
LLC PREFETCH     ACCESS:    4409847  HIT:    2612815  MISS:    1797032  iACCESS:    2217562  iHIT:    1528216  iMISS:     689346  dACCESS:    2192285  dHIT:    1084599  dMISS:    1107686  itACCESS:          0  itHIT:          0  itMISS:          0  dtACCESS:          0  dtHIT:          0  dtMISS:          0
LLC WRITE        ACCESS:     282943  HIT:     277292  MISS:       5651  iACCESS:          0  iHIT:          0  iMISS:          0  dACCESS:     282943  dHIT:     277292  dMISS:       5651  itACCESS:          0  itHIT:          0  itMISS:          0  dtACCESS:          0  dtHIT:          0  dtMISS:          0
LLC TRANSLATION  ACCESS:     308773  HIT:      68335  MISS:     240438  iACCESS:          0  iHIT:          0  iMISS:          0  dACCESS:          0  dHIT:          0  dMISS:          0  itACCESS:      80597  itHIT:      18283  itMISS:      62314  dtACCESS:     228176  dtHIT:      50052  dtMISS:     178124
LLC PREFETCH  REQUESTED:          0  ISSUED:          0  CROSSED:          0  USEFUL:          0  USELESS:          0
LLC AVERAGE iMISS LATENCY: 48.5763 cycles
LLC AVERAGE dMISS LATENCY: 108.735 cycles
LLC AVERAGE itMISS LATENCY: 3.9338 cycles
LLC AVERAGE dtMISS LATENCY: 12.0621 cycles
LLC PAGE CROSSINGS (TLB HIT):         0 
LLC PAGE CROSSINGS (TLB MISS):         0 
LLC AVERAGE MISS LATENCY: 173.307 cycles

PageTableWalker TOTAL       ACCESS:     193887  
PageTableWalker AVERAGE LATENCY: 5.94297 cycles
PageTableWalker TOTAL LATENCY: 1152264 cycles

DRAM Statistics
Channel 0
 RQ ROW_BUFFER_HIT:     613999
  ROW_BUFFER_MISS:    2195667
 AVG DBUS CONGESTED CYCLE:    3.65495
 WQ ROW_BUFFER_HIT:      68754
  ROW_BUFFER_MISS:      65566  FULL:          0

