last_page:0x200000000000000
VMEM_RES_CAP:0x100000
PAGE_SIZE:4096
LOG2_PAGE_SIZE:12
LOG2_PAGE_TABLE_SIZE:9
page_table_levels:5
WARNING: physical memory size is smaller than virtual memory size
FDiP enabled with aggresivity 16

*** ChampSim Multicore Out-of-Order Simulator ***

Warmup Instructions: 50000000
Simulation Instructions: 100000000
Number of CPUs: 1
Small page size: 4096
Large page size: 2097152

CPU 0 Bimodal branch predictor
Basic BTB sets: 1024 ways: 8 indirect buffer size: 4096 RAS size: 64
Instruction page size distrubution: 0
Loading instruction page size distribution from /home/bsc/bsc018186/scratch/itp_asplos25_AE/dump/smt_srv540_ap_srv298_ap_1024i.pdst
Data page size distrubution: 0
Loading data page size distribution from /home/bsc/bsc018186/scratch/itp_asplos25_AE/dump/smt_srv540_ap_srv298_ap_1024i.pdst
cpu0_L2C IP-based stride prefetcher
cpu0_L1D next line prefetcher
cpu0_L1I next line prefetcher
Off-chip DRAM Size: 4 GiB Channels: 1 Width: 64-bit Data Rate: 3200 MT/s
Heartbeat CPU 0 instructions: 10000002 cycles: 2500343 heartbeat IPC: 3.99946 cumulative IPC: 3.99946 (Simulation time: 0 hr 0 min 46 sec) 
Heartbeat CPU 0 instructions: 20000002 cycles: 5000603 heartbeat IPC: 3.99959 cumulative IPC: 3.99952 (Simulation time: 0 hr 1 min 32 sec) 
Heartbeat CPU 0 instructions: 30000000 cycles: 7500923 heartbeat IPC: 3.99949 cumulative IPC: 3.99951 (Simulation time: 0 hr 2 min 20 sec) 
Heartbeat CPU 0 instructions: 40000000 cycles: 10001115 heartbeat IPC: 3.9997 cumulative IPC: 3.99956 (Simulation time: 0 hr 3 min 9 sec) 
Heartbeat CPU 0 instructions: 50000001 cycles: 12501484 heartbeat IPC: 3.99942 cumulative IPC: 3.99953 (Simulation time: 0 hr 3 min 59 sec) 
Warmup finished CPU 0 instructions: 50000001 cycles: 12501485 cumulative IPC: 3.99953 (Simulation time: 0 hr 3 min 59 sec) 

Warmup complete CPU 0 instructions: 50000001 cycles: 12501485 (Simulation time: 0 hr 3 min 59 sec) 

Heartbeat CPU 0 instructions: 60000000 cycles: 38637905 heartbeat IPC: 0.382608 cumulative IPC: 0.382608 (Simulation time: 0 hr 5 min 33 sec) 
Heartbeat CPU 0 instructions: 70000001 cycles: 63741569 heartbeat IPC: 0.398349 cumulative IPC: 0.39032 (Simulation time: 0 hr 6 min 58 sec) 
Heartbeat CPU 0 instructions: 80000002 cycles: 89677690 heartbeat IPC: 0.385563 cumulative IPC: 0.388721 (Simulation time: 0 hr 8 min 22 sec) 
Heartbeat CPU 0 instructions: 90000000 cycles: 116247126 heartbeat IPC: 0.376373 cumulative IPC: 0.385559 (Simulation time: 0 hr 9 min 46 sec) 
Heartbeat CPU 0 instructions: 100000003 cycles: 142885567 heartbeat IPC: 0.375398 cumulative IPC: 0.383483 (Simulation time: 0 hr 11 min 10 sec) 
Heartbeat CPU 0 instructions: 110000003 cycles: 168814839 heartbeat IPC: 0.385665 cumulative IPC: 0.383845 (Simulation time: 0 hr 12 min 34 sec) 
Heartbeat CPU 0 instructions: 120000000 cycles: 194537684 heartbeat IPC: 0.38876 cumulative IPC: 0.384539 (Simulation time: 0 hr 14 min 2 sec) 
Heartbeat CPU 0 instructions: 130000000 cycles: 221787578 heartbeat IPC: 0.366974 cumulative IPC: 0.382252 (Simulation time: 0 hr 15 min 31 sec) 
Heartbeat CPU 0 instructions: 140000002 cycles: 248503611 heartbeat IPC: 0.374308 cumulative IPC: 0.381353 (Simulation time: 0 hr 16 min 54 sec) 
Heartbeat CPU 0 instructions: 150000001 cycles: 274311890 heartbeat IPC: 0.387473 cumulative IPC: 0.381956 (Simulation time: 0 hr 18 min 17 sec) 
Simulation finished CPU 0 instructions: 100000000 cycles: 261810406 cumulative IPC: 0.381956 (Simulation time: 0 hr 18 min 17 sec) 

Simulation complete CPU 0 instructions: 100000000 cycles: 261810406 (Simulation time: 0 hr 18 min 17 sec) 


ChampSim completed all CPUs

Saving instructions large page distribution to /home/bsc/bsc018186/scratch/itp_asplos25_AE/dump/smt_srv540_ap_srv298_ap_1024i.pdst...
Saving data large page distribution to /home/bsc/bsc018186/scratch/itp_asplos25_AE/dump/smt_srv540_ap_srv298_ap_1024i.pdst...
=== Simulation ===
CPU 0 runs /gpfs/projects/bsc18/MN4/bsc18/romol/ChampSim/traces/qualcomm_srv/smt_srv540_ap_srv298_ap_1024i.champsimtrace.xz

Region of Interest Statistics

CPU 0 cumulative IPC: 0.381956 instructions: 100000000 cycles: 261810406
CPU 0 Branch Prediction Accuracy: 76.1315% MPKI: 42.9715 Average ROB Occupancy at Mispredict: 11.1186
Branch type MPKI
BRANCH_DIRECT_JUMP: 1.27464
BRANCH_INDIRECT: 22.4613
BRANCH_CONDITIONAL: 12.4163
BRANCH_DIRECT_CALL: 2.44887
BRANCH_INDIRECT_CALL: 0.937561
BRANCH_RETURN: 3.43289

Instructions large pages: 0
Instructions small pages: 13216
Large page distribution for instructions: 0%

Data large pages: 0
Data small pages: 11943
Large page distribution for data: 0%

cpu0_L1I TOTAL       ACCESS:   39476305  HIT:   30302201  MISS:    9174104  iACCESS:   39476305  iHIT:   30302201  iMISS:    9174104  dACCESS:          0  dHIT:          0  dMISS:          0  itACCESS:          0  itHIT:          0  itMISS:          0  dtACCESS:          0  dtHIT:          0  dtMISS:          0
cpu0_L1I LOAD         ACCESS:   11855978  HIT:    9354658  MISS:    2501320  iACCESS:   11855978  iHIT:    9354658  iMISS:    2501320  dACCESS:          0  dHIT:          0  dMISS:          0  itACCESS:          0  itHIT:          0  itMISS:          0  dtACCESS:          0  dtHIT:          0  dtMISS:          0
cpu0_L1I RFO          ACCESS:          0  HIT:          0  MISS:          0  iACCESS:          0  iHIT:          0  iMISS:          0  dACCESS:          0  dHIT:          0  dMISS:          0  itACCESS:          0  itHIT:          0  itMISS:          0  dtACCESS:          0  dtHIT:          0  dtMISS:          0
cpu0_L1I PREFETCH     ACCESS:   27620327  HIT:   20947543  MISS:    6672784  iACCESS:   27620327  iHIT:   20947543  iMISS:    6672784  dACCESS:          0  dHIT:          0  dMISS:          0  itACCESS:          0  itHIT:          0  itMISS:          0  dtACCESS:          0  dtHIT:          0  dtMISS:          0
cpu0_L1I WRITE        ACCESS:          0  HIT:          0  MISS:          0  iACCESS:          0  iHIT:          0  iMISS:          0  dACCESS:          0  dHIT:          0  dMISS:          0  itACCESS:          0  itHIT:          0  itMISS:          0  dtACCESS:          0  dtHIT:          0  dtMISS:          0
cpu0_L1I TRANSLATION  ACCESS:          0  HIT:          0  MISS:          0  iACCESS:          0  iHIT:          0  iMISS:          0  dACCESS:          0  dHIT:          0  dMISS:          0  itACCESS:          0  itHIT:          0  itMISS:          0  dtACCESS:          0  dtHIT:          0  dtMISS:          0
cpu0_L1I PREFETCH  REQUESTED:   30290314  ISSUED:   30288687  CROSSED:          0  USEFUL:    2187674  USELESS:     749036
cpu0_L1I AVERAGE iMISS LATENCY: 22.7586 cycles
cpu0_L1I AVERAGE dMISS LATENCY: 0 cycles
cpu0_L1I AVERAGE itMISS LATENCY: 0 cycles
cpu0_L1I AVERAGE dtMISS LATENCY: 0 cycles
cpu0_L1I PAGE CROSSINGS (TLB HIT):         0 
cpu0_L1I PAGE CROSSINGS (TLB MISS):         0 
cpu0_L1I AVERAGE MISS LATENCY: 22.7586 cycles
cpu0_ITLB TOTAL       ACCESS:   33059259  HIT:   30867711  MISS:    2191548  iACCESS:   33059259  iHIT:   30867711  iMISS:    2191548  dACCESS:          0  dHIT:          0  dMISS:          0  itACCESS:          0  itHIT:          0  itMISS:          0  dtACCESS:          0  dtHIT:          0  dtMISS:          0
cpu0_ITLB LOAD         ACCESS:   33059259  HIT:   30867711  MISS:    2191548  iACCESS:   33059259  iHIT:   30867711  iMISS:    2191548  dACCESS:          0  dHIT:          0  dMISS:          0  itACCESS:          0  itHIT:          0  itMISS:          0  dtACCESS:          0  dtHIT:          0  dtMISS:          0
cpu0_ITLB RFO          ACCESS:          0  HIT:          0  MISS:          0  iACCESS:          0  iHIT:          0  iMISS:          0  dACCESS:          0  dHIT:          0  dMISS:          0  itACCESS:          0  itHIT:          0  itMISS:          0  dtACCESS:          0  dtHIT:          0  dtMISS:          0
cpu0_ITLB PREFETCH     ACCESS:          0  HIT:          0  MISS:          0  iACCESS:          0  iHIT:          0  iMISS:          0  dACCESS:          0  dHIT:          0  dMISS:          0  itACCESS:          0  itHIT:          0  itMISS:          0  dtACCESS:          0  dtHIT:          0  dtMISS:          0
cpu0_ITLB WRITE        ACCESS:          0  HIT:          0  MISS:          0  iACCESS:          0  iHIT:          0  iMISS:          0  dACCESS:          0  dHIT:          0  dMISS:          0  itACCESS:          0  itHIT:          0  itMISS:          0  dtACCESS:          0  dtHIT:          0  dtMISS:          0
cpu0_ITLB TRANSLATION  ACCESS:          0  HIT:          0  MISS:          0  iACCESS:          0  iHIT:          0  iMISS:          0  dACCESS:          0  dHIT:          0  dMISS:          0  itACCESS:          0  itHIT:          0  itMISS:          0  dtACCESS:          0  dtHIT:          0  dtMISS:          0
cpu0_ITLB PREFETCH  REQUESTED:          0  ISSUED:          0  CROSSED:          0  USEFUL:     381344  USELESS:      77186
cpu0_ITLB AVERAGE iMISS LATENCY: 7.31371 cycles
cpu0_ITLB AVERAGE dMISS LATENCY: 0 cycles
cpu0_ITLB AVERAGE itMISS LATENCY: 0 cycles
cpu0_ITLB AVERAGE dtMISS LATENCY: 0 cycles
cpu0_ITLB PAGE CROSSINGS (TLB HIT):         0 
cpu0_ITLB PAGE CROSSINGS (TLB MISS):         0 
cpu0_ITLB AVERAGE MISS LATENCY: 7.31371 cycles
cpu0_DTLB TOTAL       ACCESS:   28783768  HIT:   25085788  MISS:    3697980  iACCESS:          0  iHIT:          0  iMISS:          0  dACCESS:   28783768  dHIT:   25085788  dMISS:    3697980  itACCESS:          0  itHIT:          0  itMISS:          0  dtACCESS:          0  dtHIT:          0  dtMISS:          0
cpu0_DTLB LOAD         ACCESS:   28783768  HIT:   25085788  MISS:    3697980  iACCESS:          0  iHIT:          0  iMISS:          0  dACCESS:   28783768  dHIT:   25085788  dMISS:    3697980  itACCESS:          0  itHIT:          0  itMISS:          0  dtACCESS:          0  dtHIT:          0  dtMISS:          0
cpu0_DTLB RFO          ACCESS:          0  HIT:          0  MISS:          0  iACCESS:          0  iHIT:          0  iMISS:          0  dACCESS:          0  dHIT:          0  dMISS:          0  itACCESS:          0  itHIT:          0  itMISS:          0  dtACCESS:          0  dtHIT:          0  dtMISS:          0
cpu0_DTLB PREFETCH     ACCESS:          0  HIT:          0  MISS:          0  iACCESS:          0  iHIT:          0  iMISS:          0  dACCESS:          0  dHIT:          0  dMISS:          0  itACCESS:          0  itHIT:          0  itMISS:          0  dtACCESS:          0  dtHIT:          0  dtMISS:          0
cpu0_DTLB WRITE        ACCESS:          0  HIT:          0  MISS:          0  iACCESS:          0  iHIT:          0  iMISS:          0  dACCESS:          0  dHIT:          0  dMISS:          0  itACCESS:          0  itHIT:          0  itMISS:          0  dtACCESS:          0  dtHIT:          0  dtMISS:          0
cpu0_DTLB TRANSLATION  ACCESS:          0  HIT:          0  MISS:          0  iACCESS:          0  iHIT:          0  iMISS:          0  dACCESS:          0  dHIT:          0  dMISS:          0  itACCESS:          0  itHIT:          0  itMISS:          0  dtACCESS:          0  dtHIT:          0  dtMISS:          0
cpu0_DTLB PREFETCH  REQUESTED:          0  ISSUED:          0  CROSSED:          0  USEFUL:          0  USELESS:          0
cpu0_DTLB AVERAGE iMISS LATENCY: 0 cycles
cpu0_DTLB AVERAGE dMISS LATENCY: 15.8077 cycles
cpu0_DTLB AVERAGE itMISS LATENCY: 0 cycles
cpu0_DTLB AVERAGE dtMISS LATENCY: 0 cycles
cpu0_DTLB PAGE CROSSINGS (TLB HIT):         0 
cpu0_DTLB PAGE CROSSINGS (TLB MISS):         0 
cpu0_DTLB AVERAGE MISS LATENCY: 15.8077 cycles
cpu0_STLB TOTAL       ACCESS:    2590399  HIT:    2235869  MISS:     354530  iACCESS:     458538  iHIT:     353185  iMISS:     105353  dACCESS:    2131861  dHIT:    1882684  dMISS:     249177  itACCESS:          0  itHIT:          0  itMISS:          0  dtACCESS:          0  dtHIT:          0  dtMISS:          0
cpu0_STLB LOAD         ACCESS:    2590399  HIT:    2235869  MISS:     354530  iACCESS:     458538  iHIT:     353185  iMISS:     105353  dACCESS:    2131861  dHIT:    1882684  dMISS:     249177  itACCESS:          0  itHIT:          0  itMISS:          0  dtACCESS:          0  dtHIT:          0  dtMISS:          0
cpu0_STLB RFO          ACCESS:          0  HIT:          0  MISS:          0  iACCESS:          0  iHIT:          0  iMISS:          0  dACCESS:          0  dHIT:          0  dMISS:          0  itACCESS:          0  itHIT:          0  itMISS:          0  dtACCESS:          0  dtHIT:          0  dtMISS:          0
cpu0_STLB PREFETCH     ACCESS:          0  HIT:          0  MISS:          0  iACCESS:          0  iHIT:          0  iMISS:          0  dACCESS:          0  dHIT:          0  dMISS:          0  itACCESS:          0  itHIT:          0  itMISS:          0  dtACCESS:          0  dtHIT:          0  dtMISS:          0
cpu0_STLB WRITE        ACCESS:          0  HIT:          0  MISS:          0  iACCESS:          0  iHIT:          0  iMISS:          0  dACCESS:          0  dHIT:          0  dMISS:          0  itACCESS:          0  itHIT:          0  itMISS:          0  dtACCESS:          0  dtHIT:          0  dtMISS:          0
cpu0_STLB TRANSLATION  ACCESS:          0  HIT:          0  MISS:          0  iACCESS:          0  iHIT:          0  iMISS:          0  dACCESS:          0  dHIT:          0  dMISS:          0  itACCESS:          0  itHIT:          0  itMISS:          0  dtACCESS:          0  dtHIT:          0  dtMISS:          0
cpu0_STLB PREFETCH  REQUESTED:          0  ISSUED:          0  CROSSED:          0  USEFUL:          0  USELESS:          0
cpu0_STLB AVERAGE iMISS LATENCY: 34.8974 cycles
cpu0_STLB AVERAGE dMISS LATENCY: 116.583 cycles
cpu0_STLB AVERAGE itMISS LATENCY: 0 cycles
cpu0_STLB AVERAGE dtMISS LATENCY: 0 cycles
cpu0_STLB PAGE CROSSINGS (TLB HIT):         0 
cpu0_STLB PAGE CROSSINGS (TLB MISS):         0 
cpu0_STLB AVERAGE MISS LATENCY: 151.48 cycles
cpu0_L1D TOTAL       ACCESS:   44339865  HIT:   38979623  MISS:    5360242  iACCESS:          0  iHIT:          0  iMISS:          0  dACCESS:   43820838  dHIT:   38945469  dMISS:    4875369  itACCESS:     118605  itHIT:      13911  itMISS:     104694  dtACCESS:     400422  dtHIT:      20243  dtMISS:     380179
cpu0_L1D LOAD         ACCESS:   20005184  HIT:   17825002  MISS:    2180182  iACCESS:          0  iHIT:          0  iMISS:          0  dACCESS:   20005184  dHIT:   17825002  dMISS:    2180182  itACCESS:          0  itHIT:          0  itMISS:          0  dtACCESS:          0  dtHIT:          0  dtMISS:          0
cpu0_L1D RFO          ACCESS:          0  HIT:          0  MISS:          0  iACCESS:          0  iHIT:          0  iMISS:          0  dACCESS:          0  dHIT:          0  dMISS:          0  itACCESS:          0  itHIT:          0  itMISS:          0  dtACCESS:          0  dtHIT:          0  dtMISS:          0
cpu0_L1D PREFETCH     ACCESS:   13657547  HIT:   11512393  MISS:    2145154  iACCESS:          0  iHIT:          0  iMISS:          0  dACCESS:   13657547  dHIT:   11512393  dMISS:    2145154  itACCESS:          0  itHIT:          0  itMISS:          0  dtACCESS:          0  dtHIT:          0  dtMISS:          0
cpu0_L1D WRITE        ACCESS:   10158107  HIT:    9608074  MISS:     550033  iACCESS:          0  iHIT:          0  iMISS:          0  dACCESS:   10158107  dHIT:    9608074  dMISS:     550033  itACCESS:          0  itHIT:          0  itMISS:          0  dtACCESS:          0  dtHIT:          0  dtMISS:          0
cpu0_L1D TRANSLATION  ACCESS:     519027  HIT:      34154  MISS:     484873  iACCESS:          0  iHIT:          0  iMISS:          0  dACCESS:          0  dHIT:          0  dMISS:          0  itACCESS:     118605  itHIT:      13911  itMISS:     104694  dtACCESS:     400422  dtHIT:      20243  dtMISS:     380179
cpu0_L1D PREFETCH  REQUESTED:   20005184  ISSUED:   18293701  CROSSED:          0  USEFUL:     357391  USELESS:     918892
cpu0_L1D AVERAGE iMISS LATENCY: 0 cycles
cpu0_L1D AVERAGE dMISS LATENCY: 50.6047 cycles
cpu0_L1D AVERAGE itMISS LATENCY: 2.12583 cycles
cpu0_L1D AVERAGE dtMISS LATENCY: 6.77068 cycles
cpu0_L1D PAGE CROSSINGS (TLB HIT):         0 
cpu0_L1D PAGE CROSSINGS (TLB MISS):         0 
cpu0_L1D AVERAGE MISS LATENCY: 59.5012 cycles
cpu0_L2C TOTAL       ACCESS:    8479599  HIT:    1562190  MISS:    6917409  iACCESS:    3737515  iHIT:     810100  iMISS:    2927415  dACCESS:    4282174  dHIT:     562220  dMISS:    3719954  itACCESS:     103944  itHIT:      36502  itMISS:      67442  dtACCESS:     355966  dtHIT:     153368  dtMISS:     202598
cpu0_L2C LOAD         ACCESS:    2023409  HIT:     218684  MISS:    1804725  iACCESS:     838186  iHIT:     118291  iMISS:     719895  dACCESS:    1185223  dHIT:     100393  dMISS:    1084830  itACCESS:          0  itHIT:          0  itMISS:          0  dtACCESS:          0  dtHIT:          0  dtMISS:          0
cpu0_L2C RFO          ACCESS:     212643  HIT:      31568  MISS:     181075  iACCESS:          0  iHIT:          0  iMISS:          0  dACCESS:     212643  dHIT:      31568  dMISS:     181075  itACCESS:          0  itHIT:          0  itMISS:          0  dtACCESS:          0  dtHIT:          0  dtMISS:          0
cpu0_L2C PREFETCH     ACCESS:    5434299  HIT:    1014682  MISS:    4419617  iACCESS:    2899329  iHIT:     691809  iMISS:    2207520  dACCESS:    2534970  dHIT:     322873  dMISS:    2212097  itACCESS:          0  itHIT:          0  itMISS:          0  dtACCESS:          0  dtHIT:          0  dtMISS:          0
cpu0_L2C WRITE        ACCESS:     349338  HIT:     107386  MISS:     241952  iACCESS:          0  iHIT:          0  iMISS:          0  dACCESS:     349338  dHIT:     107386  dMISS:     241952  itACCESS:          0  itHIT:          0  itMISS:          0  dtACCESS:          0  dtHIT:          0  dtMISS:          0
cpu0_L2C TRANSLATION  ACCESS:     459910  HIT:     189870  MISS:     270040  iACCESS:          0  iHIT:          0  iMISS:          0  dACCESS:          0  dHIT:          0  dMISS:          0  itACCESS:     103944  itHIT:      36502  itMISS:      67442  dtACCESS:     355966  dtHIT:     153368  dtMISS:     202598
cpu0_L2C PREFETCH  REQUESTED:    1506442  ISSUED:    1506442  CROSSED:          0  USEFUL:     408612  USELESS:     476600
cpu0_L2C AVERAGE iMISS LATENCY: 25.4708 cycles
cpu0_L2C AVERAGE dMISS LATENCY: 48.1486 cycles
cpu0_L2C AVERAGE itMISS LATENCY: 1.50193 cycles
cpu0_L2C AVERAGE dtMISS LATENCY: 4.75192 cycles
cpu0_L2C PAGE CROSSINGS (TLB HIT):         0 
cpu0_L2C PAGE CROSSINGS (TLB MISS):         0 
cpu0_L2C AVERAGE MISS LATENCY: 79.8732 cycles
LLC TOTAL       ACCESS:    6734355  HIT:    4238177  MISS:    2496178  iACCESS:    2834692  iHIT:    2061526  iMISS:     773166  dACCESS:    3629623  dHIT:    2110006  dMISS:    1519617  itACCESS:      67442  itHIT:      16933  itMISS:      50509  dtACCESS:     202598  dtHIT:      49712  dtMISS:     152886
LLC LOAD         ACCESS:    1799187  HIT:    1197619  MISS:     601568  iACCESS:     718501  iHIT:     555257  iMISS:     163244  dACCESS:    1080686  dHIT:     642362  dMISS:     438324  itACCESS:          0  itHIT:          0  itMISS:          0  dtACCESS:          0  dtHIT:          0  dtMISS:          0
LLC RFO          ACCESS:     181061  HIT:      97050  MISS:      84011  iACCESS:          0  iHIT:          0  iMISS:          0  dACCESS:     181061  dHIT:      97050  dMISS:      84011  itACCESS:          0  itHIT:          0  itMISS:          0  dtACCESS:          0  dtHIT:          0  dtMISS:          0
LLC PREFETCH     ACCESS:    4211892  HIT:    2611764  MISS:    1600128  iACCESS:    2116191  iHIT:    1506269  iMISS:     609922  dACCESS:    2095701  dHIT:    1105495  dMISS:     990206  itACCESS:          0  itHIT:          0  itMISS:          0  dtACCESS:          0  dtHIT:          0  dtMISS:          0
LLC WRITE        ACCESS:     272175  HIT:     265099  MISS:       7076  iACCESS:          0  iHIT:          0  iMISS:          0  dACCESS:     272175  dHIT:     265099  dMISS:       7076  itACCESS:          0  itHIT:          0  itMISS:          0  dtACCESS:          0  dtHIT:          0  dtMISS:          0
LLC TRANSLATION  ACCESS:     270040  HIT:      66645  MISS:     203395  iACCESS:          0  iHIT:          0  iMISS:          0  dACCESS:          0  dHIT:          0  dMISS:          0  itACCESS:      67442  itHIT:      16933  itMISS:      50509  dtACCESS:     202598  dtHIT:      49712  dtMISS:     152886
LLC PREFETCH  REQUESTED:          0  ISSUED:          0  CROSSED:          0  USEFUL:          0  USELESS:          0
LLC AVERAGE iMISS LATENCY: 48.5453 cycles
LLC AVERAGE dMISS LATENCY: 108.053 cycles
LLC AVERAGE itMISS LATENCY: 3.63028 cycles
LLC AVERAGE dtMISS LATENCY: 11.5709 cycles
LLC PAGE CROSSINGS (TLB HIT):         0 
LLC PAGE CROSSINGS (TLB MISS):         0 
LLC AVERAGE MISS LATENCY: 171.799 cycles

PageTableWalker TOTAL       ACCESS:     181459  
PageTableWalker AVERAGE LATENCY: 5.81449 cycles
PageTableWalker TOTAL LATENCY: 1055090 cycles

DRAM Statistics
Channel 0
 RQ ROW_BUFFER_HIT:     557517
  ROW_BUFFER_MISS:    1920618
 AVG DBUS CONGESTED CYCLE:    3.65107
 WQ ROW_BUFFER_HIT:      61005
  ROW_BUFFER_MISS:      59739  FULL:          0

