last_page:0x200000000000000
VMEM_RES_CAP:0x100000
PAGE_SIZE:4096
LOG2_PAGE_SIZE:12
LOG2_PAGE_TABLE_SIZE:9
page_table_levels:5
WARNING: physical memory size is smaller than virtual memory size
FDiP enabled with aggresivity 16

*** ChampSim Multicore Out-of-Order Simulator ***

Warmup Instructions: 50000000
Simulation Instructions: 100000000
Number of CPUs: 1
Small page size: 4096
Large page size: 2097152

CPU 0 Bimodal branch predictor
Basic BTB sets: 1024 ways: 8 indirect buffer size: 4096 RAS size: 64
Instruction page size distrubution: 0
Loading instruction page size distribution from /home/bsc/bsc018186/scratch/itp_asplos25_AE/dump/smt_srv207_ap_srv298_ap_1024i.pdst
Data page size distrubution: 0
Loading data page size distribution from /home/bsc/bsc018186/scratch/itp_asplos25_AE/dump/smt_srv207_ap_srv298_ap_1024i.pdst
cpu0_L2C IP-based stride prefetcher
cpu0_L1D next line prefetcher
cpu0_STLB using iTP with max lru@8
cpu0_STLB using iTP with instr@0 and data@2
Init sat counter with 3 bits (max:50).
cpu0_L1I next line prefetcher
Off-chip DRAM Size: 4 GiB Channels: 1 Width: 64-bit Data Rate: 3200 MT/s
Heartbeat CPU 0 instructions: 10000000 cycles: 2500494 heartbeat IPC: 3.99921 cumulative IPC: 3.99921 (Simulation time: 0 hr 0 min 36 sec) 
Heartbeat CPU 0 instructions: 20000003 cycles: 5000708 heartbeat IPC: 3.99966 cumulative IPC: 3.99944 (Simulation time: 0 hr 1 min 13 sec) 
Heartbeat CPU 0 instructions: 30000001 cycles: 7500851 heartbeat IPC: 3.99978 cumulative IPC: 3.99955 (Simulation time: 0 hr 1 min 52 sec) 
Heartbeat CPU 0 instructions: 40000000 cycles: 10001024 heartbeat IPC: 3.99973 cumulative IPC: 3.9996 (Simulation time: 0 hr 2 min 31 sec) 
Heartbeat CPU 0 instructions: 50000002 cycles: 12501244 heartbeat IPC: 3.99965 cumulative IPC: 3.99961 (Simulation time: 0 hr 3 min 10 sec) 
Warmup finished CPU 0 instructions: 50000002 cycles: 12501245 cumulative IPC: 3.99961 (Simulation time: 0 hr 3 min 10 sec) 

Warmup complete CPU 0 instructions: 50000002 cycles: 12501245 (Simulation time: 0 hr 3 min 10 sec) 

Heartbeat CPU 0 instructions: 60000003 cycles: 39366467 heartbeat IPC: 0.372229 cumulative IPC: 0.372229 (Simulation time: 0 hr 4 min 27 sec) 
Heartbeat CPU 0 instructions: 70000001 cycles: 65980609 heartbeat IPC: 0.375741 cumulative IPC: 0.373977 (Simulation time: 0 hr 5 min 45 sec) 
Heartbeat CPU 0 instructions: 80000000 cycles: 93238128 heartbeat IPC: 0.366872 cumulative IPC: 0.371578 (Simulation time: 0 hr 7 min 4 sec) 
Heartbeat CPU 0 instructions: 90000000 cycles: 121074803 heartbeat IPC: 0.359239 cumulative IPC: 0.368414 (Simulation time: 0 hr 8 min 23 sec) 
Heartbeat CPU 0 instructions: 100000003 cycles: 147971794 heartbeat IPC: 0.371789 cumulative IPC: 0.369084 (Simulation time: 0 hr 9 min 41 sec) 
Heartbeat CPU 0 instructions: 110000001 cycles: 175222357 heartbeat IPC: 0.366965 cumulative IPC: 0.36873 (Simulation time: 0 hr 11 min 0 sec) 
Heartbeat CPU 0 instructions: 120000000 cycles: 202111087 heartbeat IPC: 0.371903 cumulative IPC: 0.36918 (Simulation time: 0 hr 12 min 18 sec) 
Heartbeat CPU 0 instructions: 130000003 cycles: 229526980 heartbeat IPC: 0.364753 cumulative IPC: 0.36862 (Simulation time: 0 hr 13 min 37 sec) 
Heartbeat CPU 0 instructions: 140000002 cycles: 257968730 heartbeat IPC: 0.351596 cumulative IPC: 0.366648 (Simulation time: 0 hr 14 min 57 sec) 
Heartbeat CPU 0 instructions: 150000002 cycles: 285471008 heartbeat IPC: 0.363607 cumulative IPC: 0.366341 (Simulation time: 0 hr 16 min 16 sec) 
Simulation finished CPU 0 instructions: 100000000 cycles: 272969764 cumulative IPC: 0.366341 (Simulation time: 0 hr 16 min 16 sec) 

Simulation complete CPU 0 instructions: 100000000 cycles: 272969764 (Simulation time: 0 hr 16 min 16 sec) 


ChampSim completed all CPUs

Saving instructions large page distribution to /home/bsc/bsc018186/scratch/itp_asplos25_AE/dump/smt_srv207_ap_srv298_ap_1024i.pdst...
Saving data large page distribution to /home/bsc/bsc018186/scratch/itp_asplos25_AE/dump/smt_srv207_ap_srv298_ap_1024i.pdst...
=== Simulation ===
CPU 0 runs /gpfs/projects/bsc18/MN4/bsc18/romol/ChampSim/traces/qualcomm_srv/smt_srv207_ap_srv298_ap_1024i.champsimtrace.xz

Region of Interest Statistics

CPU 0 cumulative IPC: 0.366341 instructions: 100000000 cycles: 272969764
CPU 0 Branch Prediction Accuracy: 75.5505% MPKI: 43.964 Average ROB Occupancy at Mispredict: 11.2386
Branch type MPKI
BRANCH_DIRECT_JUMP: 1.3281
BRANCH_INDIRECT: 23.3394
BRANCH_CONDITIONAL: 12.3548
BRANCH_DIRECT_CALL: 2.50712
BRANCH_INDIRECT_CALL: 0.948321
BRANCH_RETURN: 3.48622

Instructions large pages: 0
Instructions small pages: 15016
Large page distribution for instructions: 0%

Data large pages: 0
Data small pages: 13640
Large page distribution for data: 0%

cpu0_L1I TOTAL       ACCESS:   39203938  HIT:   30037468  MISS:    9166470  iACCESS:   39203938  iHIT:   30037468  iMISS:    9166470  dACCESS:          0  dHIT:          0  dMISS:          0  itACCESS:          0  itHIT:          0  itMISS:          0  dtACCESS:          0  dtHIT:          0  dtMISS:          0
cpu0_L1I LOAD         ACCESS:   11627861  HIT:    9128300  MISS:    2499561  iACCESS:   11627861  iHIT:    9128300  iMISS:    2499561  dACCESS:          0  dHIT:          0  dMISS:          0  itACCESS:          0  itHIT:          0  itMISS:          0  dtACCESS:          0  dtHIT:          0  dtMISS:          0
cpu0_L1I RFO          ACCESS:          0  HIT:          0  MISS:          0  iACCESS:          0  iHIT:          0  iMISS:          0  dACCESS:          0  dHIT:          0  dMISS:          0  itACCESS:          0  itHIT:          0  itMISS:          0  dtACCESS:          0  dtHIT:          0  dtMISS:          0
cpu0_L1I PREFETCH     ACCESS:   27576077  HIT:   20909168  MISS:    6666909  iACCESS:   27576077  iHIT:   20909168  iMISS:    6666909  dACCESS:          0  dHIT:          0  dMISS:          0  itACCESS:          0  itHIT:          0  itMISS:          0  dtACCESS:          0  dtHIT:          0  dtMISS:          0
cpu0_L1I WRITE        ACCESS:          0  HIT:          0  MISS:          0  iACCESS:          0  iHIT:          0  iMISS:          0  dACCESS:          0  dHIT:          0  dMISS:          0  itACCESS:          0  itHIT:          0  itMISS:          0  dtACCESS:          0  dtHIT:          0  dtMISS:          0
cpu0_L1I TRANSLATION  ACCESS:          0  HIT:          0  MISS:          0  iACCESS:          0  iHIT:          0  iMISS:          0  dACCESS:          0  dHIT:          0  dMISS:          0  itACCESS:          0  itHIT:          0  itMISS:          0  dtACCESS:          0  dtHIT:          0  dtMISS:          0
cpu0_L1I PREFETCH  REQUESTED:   30133903  ISSUED:   30132507  CROSSED:          0  USEFUL:    2187129  USELESS:     775958
cpu0_L1I AVERAGE iMISS LATENCY: 23.7433 cycles
cpu0_L1I AVERAGE dMISS LATENCY: 0 cycles
cpu0_L1I AVERAGE itMISS LATENCY: 0 cycles
cpu0_L1I AVERAGE dtMISS LATENCY: 0 cycles
cpu0_L1I PAGE CROSSINGS (TLB HIT):         0 
cpu0_L1I PAGE CROSSINGS (TLB MISS):         0 
cpu0_L1I AVERAGE MISS LATENCY: 23.7433 cycles
cpu0_ITLB TOTAL       ACCESS:   32975573  HIT:   30750689  MISS:    2224884  iACCESS:   32975573  iHIT:   30750689  iMISS:    2224884  dACCESS:          0  dHIT:          0  dMISS:          0  itACCESS:          0  itHIT:          0  itMISS:          0  dtACCESS:          0  dtHIT:          0  dtMISS:          0
cpu0_ITLB LOAD         ACCESS:   32975573  HIT:   30750689  MISS:    2224884  iACCESS:   32975573  iHIT:   30750689  iMISS:    2224884  dACCESS:          0  dHIT:          0  dMISS:          0  itACCESS:          0  itHIT:          0  itMISS:          0  dtACCESS:          0  dtHIT:          0  dtMISS:          0
cpu0_ITLB RFO          ACCESS:          0  HIT:          0  MISS:          0  iACCESS:          0  iHIT:          0  iMISS:          0  dACCESS:          0  dHIT:          0  dMISS:          0  itACCESS:          0  itHIT:          0  itMISS:          0  dtACCESS:          0  dtHIT:          0  dtMISS:          0
cpu0_ITLB PREFETCH     ACCESS:          0  HIT:          0  MISS:          0  iACCESS:          0  iHIT:          0  iMISS:          0  dACCESS:          0  dHIT:          0  dMISS:          0  itACCESS:          0  itHIT:          0  itMISS:          0  dtACCESS:          0  dtHIT:          0  dtMISS:          0
cpu0_ITLB WRITE        ACCESS:          0  HIT:          0  MISS:          0  iACCESS:          0  iHIT:          0  iMISS:          0  dACCESS:          0  dHIT:          0  dMISS:          0  itACCESS:          0  itHIT:          0  itMISS:          0  dtACCESS:          0  dtHIT:          0  dtMISS:          0
cpu0_ITLB TRANSLATION  ACCESS:          0  HIT:          0  MISS:          0  iACCESS:          0  iHIT:          0  iMISS:          0  dACCESS:          0  dHIT:          0  dMISS:          0  itACCESS:          0  itHIT:          0  itMISS:          0  dtACCESS:          0  dtHIT:          0  dtMISS:          0
cpu0_ITLB PREFETCH  REQUESTED:          0  ISSUED:          0  CROSSED:          0  USEFUL:     392241  USELESS:      79888
cpu0_ITLB AVERAGE iMISS LATENCY: 5.23123 cycles
cpu0_ITLB AVERAGE dMISS LATENCY: 0 cycles
cpu0_ITLB AVERAGE itMISS LATENCY: 0 cycles
cpu0_ITLB AVERAGE dtMISS LATENCY: 0 cycles
cpu0_ITLB PAGE CROSSINGS (TLB HIT):         0 
cpu0_ITLB PAGE CROSSINGS (TLB MISS):         0 
cpu0_ITLB AVERAGE MISS LATENCY: 5.23123 cycles
cpu0_DTLB TOTAL       ACCESS:   29146232  HIT:   25511602  MISS:    3634630  iACCESS:          0  iHIT:          0  iMISS:          0  dACCESS:   29146232  dHIT:   25511602  dMISS:    3634630  itACCESS:          0  itHIT:          0  itMISS:          0  dtACCESS:          0  dtHIT:          0  dtMISS:          0
cpu0_DTLB LOAD         ACCESS:   29146232  HIT:   25511602  MISS:    3634630  iACCESS:          0  iHIT:          0  iMISS:          0  dACCESS:   29146232  dHIT:   25511602  dMISS:    3634630  itACCESS:          0  itHIT:          0  itMISS:          0  dtACCESS:          0  dtHIT:          0  dtMISS:          0
cpu0_DTLB RFO          ACCESS:          0  HIT:          0  MISS:          0  iACCESS:          0  iHIT:          0  iMISS:          0  dACCESS:          0  dHIT:          0  dMISS:          0  itACCESS:          0  itHIT:          0  itMISS:          0  dtACCESS:          0  dtHIT:          0  dtMISS:          0
cpu0_DTLB PREFETCH     ACCESS:          0  HIT:          0  MISS:          0  iACCESS:          0  iHIT:          0  iMISS:          0  dACCESS:          0  dHIT:          0  dMISS:          0  itACCESS:          0  itHIT:          0  itMISS:          0  dtACCESS:          0  dtHIT:          0  dtMISS:          0
cpu0_DTLB WRITE        ACCESS:          0  HIT:          0  MISS:          0  iACCESS:          0  iHIT:          0  iMISS:          0  dACCESS:          0  dHIT:          0  dMISS:          0  itACCESS:          0  itHIT:          0  itMISS:          0  dtACCESS:          0  dtHIT:          0  dtMISS:          0
cpu0_DTLB TRANSLATION  ACCESS:          0  HIT:          0  MISS:          0  iACCESS:          0  iHIT:          0  iMISS:          0  dACCESS:          0  dHIT:          0  dMISS:          0  itACCESS:          0  itHIT:          0  itMISS:          0  dtACCESS:          0  dtHIT:          0  dtMISS:          0
cpu0_DTLB PREFETCH  REQUESTED:          0  ISSUED:          0  CROSSED:          0  USEFUL:          0  USELESS:          0
cpu0_DTLB AVERAGE iMISS LATENCY: 0 cycles
cpu0_DTLB AVERAGE dMISS LATENCY: 18.8666 cycles
cpu0_DTLB AVERAGE itMISS LATENCY: 0 cycles
cpu0_DTLB AVERAGE dtMISS LATENCY: 0 cycles
cpu0_DTLB PAGE CROSSINGS (TLB HIT):         0 
cpu0_DTLB PAGE CROSSINGS (TLB MISS):         0 
cpu0_DTLB AVERAGE MISS LATENCY: 18.8666 cycles
cpu0_STLB TOTAL       ACCESS:    2581519  HIT:    2215080  MISS:     366439  iACCESS:     472137  iHIT:     418983  iMISS:      53154  dACCESS:    2109382  dHIT:    1796097  dMISS:     313285  itACCESS:          0  itHIT:          0  itMISS:          0  dtACCESS:          0  dtHIT:          0  dtMISS:          0
cpu0_STLB LOAD         ACCESS:    2581519  HIT:    2215080  MISS:     366439  iACCESS:     472137  iHIT:     418983  iMISS:      53154  dACCESS:    2109382  dHIT:    1796097  dMISS:     313285  itACCESS:          0  itHIT:          0  itMISS:          0  dtACCESS:          0  dtHIT:          0  dtMISS:          0
cpu0_STLB RFO          ACCESS:          0  HIT:          0  MISS:          0  iACCESS:          0  iHIT:          0  iMISS:          0  dACCESS:          0  dHIT:          0  dMISS:          0  itACCESS:          0  itHIT:          0  itMISS:          0  dtACCESS:          0  dtHIT:          0  dtMISS:          0
cpu0_STLB PREFETCH     ACCESS:          0  HIT:          0  MISS:          0  iACCESS:          0  iHIT:          0  iMISS:          0  dACCESS:          0  dHIT:          0  dMISS:          0  itACCESS:          0  itHIT:          0  itMISS:          0  dtACCESS:          0  dtHIT:          0  dtMISS:          0
cpu0_STLB WRITE        ACCESS:          0  HIT:          0  MISS:          0  iACCESS:          0  iHIT:          0  iMISS:          0  dACCESS:          0  dHIT:          0  dMISS:          0  itACCESS:          0  itHIT:          0  itMISS:          0  dtACCESS:          0  dtHIT:          0  dtMISS:          0
cpu0_STLB TRANSLATION  ACCESS:          0  HIT:          0  MISS:          0  iACCESS:          0  iHIT:          0  iMISS:          0  dACCESS:          0  dHIT:          0  dMISS:          0  itACCESS:          0  itHIT:          0  itMISS:          0  dtACCESS:          0  dtHIT:          0  dtMISS:          0
cpu0_STLB PREFETCH  REQUESTED:          0  ISSUED:          0  CROSSED:          0  USEFUL:          0  USELESS:          0
cpu0_STLB AVERAGE iMISS LATENCY: 21.653 cycles
cpu0_STLB AVERAGE dMISS LATENCY: 140.73 cycles
cpu0_STLB AVERAGE itMISS LATENCY: 0 cycles
cpu0_STLB AVERAGE dtMISS LATENCY: 0 cycles
cpu0_STLB PAGE CROSSINGS (TLB HIT):         0 
cpu0_STLB PAGE CROSSINGS (TLB MISS):         0 
cpu0_STLB AVERAGE MISS LATENCY: 162.383 cycles
cpu0_L1D TOTAL       ACCESS:   45089732  HIT:   39503971  MISS:    5585761  iACCESS:          0  iHIT:          0  iMISS:          0  dACCESS:   44531151  dHIT:   39473655  dMISS:    5057496  itACCESS:      63938  itHIT:       5542  itMISS:      58396  dtACCESS:     494643  dtHIT:      24774  dtMISS:     469869
cpu0_L1D LOAD         ACCESS:   20388236  HIT:   18107756  MISS:    2280480  iACCESS:          0  iHIT:          0  iMISS:          0  dACCESS:   20388236  dHIT:   18107756  dMISS:    2280480  itACCESS:          0  itHIT:          0  itMISS:          0  dtACCESS:          0  dtHIT:          0  dtMISS:          0
cpu0_L1D RFO          ACCESS:          0  HIT:          0  MISS:          0  iACCESS:          0  iHIT:          0  iMISS:          0  dACCESS:          0  dHIT:          0  dMISS:          0  itACCESS:          0  itHIT:          0  itMISS:          0  dtACCESS:          0  dtHIT:          0  dtMISS:          0
cpu0_L1D PREFETCH     ACCESS:   14007685  HIT:   11815700  MISS:    2191985  iACCESS:          0  iHIT:          0  iMISS:          0  dACCESS:   14007685  dHIT:   11815700  dMISS:    2191985  itACCESS:          0  itHIT:          0  itMISS:          0  dtACCESS:          0  dtHIT:          0  dtMISS:          0
cpu0_L1D WRITE        ACCESS:   10135230  HIT:    9550199  MISS:     585031  iACCESS:          0  iHIT:          0  iMISS:          0  dACCESS:   10135230  dHIT:    9550199  dMISS:     585031  itACCESS:          0  itHIT:          0  itMISS:          0  dtACCESS:          0  dtHIT:          0  dtMISS:          0
cpu0_L1D TRANSLATION  ACCESS:     558581  HIT:      30316  MISS:     528265  iACCESS:          0  iHIT:          0  iMISS:          0  dACCESS:          0  dHIT:          0  dMISS:          0  itACCESS:      63938  itHIT:       5542  itMISS:      58396  dtACCESS:     494643  dtHIT:      24774  dtMISS:     469869
cpu0_L1D PREFETCH  REQUESTED:   20388236  ISSUED:   18717177  CROSSED:          0  USEFUL:     377937  USELESS:     955621
cpu0_L1D AVERAGE iMISS LATENCY: 0 cycles
cpu0_L1D AVERAGE dMISS LATENCY: 51.2859 cycles
cpu0_L1D AVERAGE itMISS LATENCY: 1.32096 cycles
cpu0_L1D AVERAGE dtMISS LATENCY: 8.18617 cycles
cpu0_L1D PAGE CROSSINGS (TLB HIT):         0 
cpu0_L1D PAGE CROSSINGS (TLB MISS):         0 
cpu0_L1D AVERAGE MISS LATENCY: 60.793 cycles
cpu0_L2C TOTAL       ACCESS:    8679707  HIT:    1558294  MISS:    7121413  iACCESS:    3772486  iHIT:     800239  iMISS:    2972247  dACCESS:    4401669  dHIT:     557031  dMISS:    3844638  itACCESS:      57854  itHIT:      15908  itMISS:      41946  dtACCESS:     447698  dtHIT:     185116  dtMISS:     262582
cpu0_L2C LOAD         ACCESS:    2093906  HIT:     216648  MISS:    1877258  iACCESS:     843927  iHIT:     114980  iMISS:     728947  dACCESS:    1249979  dHIT:     101668  dMISS:    1148311  itACCESS:          0  itHIT:          0  itMISS:          0  dtACCESS:          0  dtHIT:          0  dtMISS:          0
cpu0_L2C RFO          ACCESS:     220751  HIT:      30585  MISS:     190166  iACCESS:          0  iHIT:          0  iMISS:          0  dACCESS:     220751  dHIT:      30585  dMISS:     190166  itACCESS:          0  itHIT:          0  itMISS:          0  dtACCESS:          0  dtHIT:          0  dtMISS:          0
cpu0_L2C PREFETCH     ACCESS:    5504897  HIT:     999536  MISS:    4505361  iACCESS:    2928559  iHIT:     685259  iMISS:    2243300  dACCESS:    2576338  dHIT:     314277  dMISS:    2262061  itACCESS:          0  itHIT:          0  itMISS:          0  dtACCESS:          0  dtHIT:          0  dtMISS:          0
cpu0_L2C WRITE        ACCESS:     354601  HIT:     110501  MISS:     244100  iACCESS:          0  iHIT:          0  iMISS:          0  dACCESS:     354601  dHIT:     110501  dMISS:     244100  itACCESS:          0  itHIT:          0  itMISS:          0  dtACCESS:          0  dtHIT:          0  dtMISS:          0
cpu0_L2C TRANSLATION  ACCESS:     505552  HIT:     201024  MISS:     304528  iACCESS:          0  iHIT:          0  iMISS:          0  dACCESS:          0  dHIT:          0  dMISS:          0  itACCESS:      57854  itHIT:      15908  itMISS:      41946  dtACCESS:     447698  dtHIT:     185116  dtMISS:     262582
cpu0_L2C PREFETCH  REQUESTED:    1482138  ISSUED:    1482135  CROSSED:          0  USEFUL:     398476  USELESS:     486922
cpu0_L2C AVERAGE iMISS LATENCY: 25.9988 cycles
cpu0_L2C AVERAGE dMISS LATENCY: 48.9589 cycles
cpu0_L2C AVERAGE itMISS LATENCY: 0.956883 cycles
cpu0_L2C AVERAGE dtMISS LATENCY: 5.81524 cycles
cpu0_L2C PAGE CROSSINGS (TLB HIT):         0 
cpu0_L2C PAGE CROSSINGS (TLB MISS):         0 
cpu0_L2C AVERAGE MISS LATENCY: 81.7298 cycles
LLC TOTAL       ACCESS:    6951875  HIT:    4315321  MISS:    2636554  iACCESS:    2886522  iHIT:    2074320  iMISS:     812202  dACCESS:    3760825  dHIT:    2162624  dMISS:    1598201  itACCESS:      41946  itHIT:       8476  itMISS:      33470  dtACCESS:     262582  dtHIT:      69901  dtMISS:     192681
LLC LOAD         ACCESS:    1870490  HIT:    1226327  MISS:     644163  iACCESS:     727643  iHIT:     558363  iMISS:     169280  dACCESS:    1142847  dHIT:     667964  dMISS:     474883  itACCESS:          0  itHIT:          0  itMISS:          0  dtACCESS:          0  dtHIT:          0  dtMISS:          0
LLC RFO          ACCESS:     190158  HIT:     102850  MISS:      87308  iACCESS:          0  iHIT:          0  iMISS:          0  dACCESS:     190158  dHIT:     102850  dMISS:      87308  itACCESS:          0  itHIT:          0  itMISS:          0  dtACCESS:          0  dtHIT:          0  dtMISS:          0
LLC PREFETCH     ACCESS:    4309614  HIT:    2637499  MISS:    1672115  iACCESS:    2158879  iHIT:    1515957  iMISS:     642922  dACCESS:    2150735  dHIT:    1121542  dMISS:    1029193  itACCESS:          0  itHIT:          0  itMISS:          0  dtACCESS:          0  dtHIT:          0  dtMISS:          0
LLC WRITE        ACCESS:     277085  HIT:     270268  MISS:       6817  iACCESS:          0  iHIT:          0  iMISS:          0  dACCESS:     277085  dHIT:     270268  dMISS:       6817  itACCESS:          0  itHIT:          0  itMISS:          0  dtACCESS:          0  dtHIT:          0  dtMISS:          0
LLC TRANSLATION  ACCESS:     304528  HIT:      78377  MISS:     226151  iACCESS:          0  iHIT:          0  iMISS:          0  dACCESS:          0  dHIT:          0  dMISS:          0  itACCESS:      41946  itHIT:       8476  itMISS:      33470  dtACCESS:     262582  dtHIT:      69901  dtMISS:     192681
LLC PREFETCH  REQUESTED:          0  ISSUED:          0  CROSSED:          0  USEFUL:          0  USELESS:          0
LLC AVERAGE iMISS LATENCY: 48.974 cycles
LLC AVERAGE dMISS LATENCY: 107.11 cycles
LLC AVERAGE itMISS LATENCY: 2.27081 cycles
LLC AVERAGE dtMISS LATENCY: 13.7474 cycles
LLC PAGE CROSSINGS (TLB HIT):         0 
LLC PAGE CROSSINGS (TLB MISS):         0 
LLC AVERAGE MISS LATENCY: 172.102 cycles

PageTableWalker TOTAL       ACCESS:     178894  
PageTableWalker AVERAGE LATENCY: 6.21897 cycles
PageTableWalker TOTAL LATENCY: 1112535 cycles

DRAM Statistics
Channel 0
 RQ ROW_BUFFER_HIT:     583222
  ROW_BUFFER_MISS:    2035954
 AVG DBUS CONGESTED CYCLE:    3.65255
 WQ ROW_BUFFER_HIT:      65213
  ROW_BUFFER_MISS:      60629  FULL:          0

