last_page:0x200000000000000
VMEM_RES_CAP:0x100000
PAGE_SIZE:4096
LOG2_PAGE_SIZE:12
LOG2_PAGE_TABLE_SIZE:9
page_table_levels:5
WARNING: physical memory size is smaller than virtual memory size
FDiP enabled with aggresivity 16

*** ChampSim Multicore Out-of-Order Simulator ***

Warmup Instructions: 50000000
Simulation Instructions: 100000000
Number of CPUs: 1
Small page size: 4096
Large page size: 2097152

CPU 0 Bimodal branch predictor
Basic BTB sets: 1024 ways: 8 indirect buffer size: 4096 RAS size: 64
Instruction page size distrubution: 0
Loading instruction page size distribution from /home/bsc/bsc018186/scratch/itp_asplos25_AE/dump/smt_srv85_ap_srv259_ap_1024i.pdst
Data page size distrubution: 0
Loading data page size distribution from /home/bsc/bsc018186/scratch/itp_asplos25_AE/dump/smt_srv85_ap_srv259_ap_1024i.pdst
cpu0_L2C IP-based stride prefetcher
cpu0_L1D next line prefetcher
cpu0_STLB using iTP with max lru@8
cpu0_STLB using iTP with instr@0 and data@2
Init sat counter with 3 bits (max:50).
cpu0_L1I next line prefetcher
Off-chip DRAM Size: 4 GiB Channels: 1 Width: 64-bit Data Rate: 3200 MT/s
Heartbeat CPU 0 instructions: 10000003 cycles: 2500253 heartbeat IPC: 3.9996 cumulative IPC: 3.9996 (Simulation time: 0 hr 0 min 35 sec) 
Heartbeat CPU 0 instructions: 20000002 cycles: 5000354 heartbeat IPC: 3.99984 cumulative IPC: 3.99972 (Simulation time: 0 hr 1 min 13 sec) 
Heartbeat CPU 0 instructions: 30000001 cycles: 7500413 heartbeat IPC: 3.99991 cumulative IPC: 3.99978 (Simulation time: 0 hr 1 min 51 sec) 
Heartbeat CPU 0 instructions: 40000001 cycles: 10000633 heartbeat IPC: 3.99965 cumulative IPC: 3.99975 (Simulation time: 0 hr 2 min 29 sec) 
Heartbeat CPU 0 instructions: 50000001 cycles: 12500749 heartbeat IPC: 3.99982 cumulative IPC: 3.99977 (Simulation time: 0 hr 3 min 7 sec) 
Warmup finished CPU 0 instructions: 50000001 cycles: 12500750 cumulative IPC: 3.99977 (Simulation time: 0 hr 3 min 7 sec) 

Warmup complete CPU 0 instructions: 50000001 cycles: 12500750 (Simulation time: 0 hr 3 min 7 sec) 

Heartbeat CPU 0 instructions: 60000000 cycles: 40250303 heartbeat IPC: 0.360367 cumulative IPC: 0.360367 (Simulation time: 0 hr 4 min 25 sec) 
Heartbeat CPU 0 instructions: 70000002 cycles: 69741209 heartbeat IPC: 0.339088 cumulative IPC: 0.349404 (Simulation time: 0 hr 5 min 45 sec) 
Heartbeat CPU 0 instructions: 80000002 cycles: 98631977 heartbeat IPC: 0.346132 cumulative IPC: 0.348306 (Simulation time: 0 hr 7 min 5 sec) 
Heartbeat CPU 0 instructions: 90000002 cycles: 126783847 heartbeat IPC: 0.355217 cumulative IPC: 0.350009 (Simulation time: 0 hr 8 min 23 sec) 
Heartbeat CPU 0 instructions: 100000000 cycles: 155915153 heartbeat IPC: 0.343274 cumulative IPC: 0.348641 (Simulation time: 0 hr 9 min 42 sec) 
Heartbeat CPU 0 instructions: 110000002 cycles: 184757940 heartbeat IPC: 0.346708 cumulative IPC: 0.348317 (Simulation time: 0 hr 11 min 1 sec) 
Heartbeat CPU 0 instructions: 120000001 cycles: 213027136 heartbeat IPC: 0.353742 cumulative IPC: 0.349082 (Simulation time: 0 hr 12 min 20 sec) 
Heartbeat CPU 0 instructions: 130000002 cycles: 243168910 heartbeat IPC: 0.331766 cumulative IPC: 0.346819 (Simulation time: 0 hr 13 min 41 sec) 
Heartbeat CPU 0 instructions: 140000004 cycles: 270897829 heartbeat IPC: 0.360635 cumulative IPC: 0.348302 (Simulation time: 0 hr 14 min 58 sec) 
Heartbeat CPU 0 instructions: 150000000 cycles: 300583725 heartbeat IPC: 0.336861 cumulative IPC: 0.347123 (Simulation time: 0 hr 16 min 19 sec) 
Simulation finished CPU 0 instructions: 100000004 cycles: 288082977 cumulative IPC: 0.347123 (Simulation time: 0 hr 16 min 19 sec) 

Simulation complete CPU 0 instructions: 100000004 cycles: 288082977 (Simulation time: 0 hr 16 min 19 sec) 


ChampSim completed all CPUs

Saving instructions large page distribution to /home/bsc/bsc018186/scratch/itp_asplos25_AE/dump/smt_srv85_ap_srv259_ap_1024i.pdst...
Saving data large page distribution to /home/bsc/bsc018186/scratch/itp_asplos25_AE/dump/smt_srv85_ap_srv259_ap_1024i.pdst...
=== Simulation ===
CPU 0 runs /gpfs/projects/bsc18/MN4/bsc18/romol/ChampSim/traces/qualcomm_srv/smt_srv85_ap_srv259_ap_1024i.champsimtrace.xz

Region of Interest Statistics

CPU 0 cumulative IPC: 0.347123 instructions: 100000004 cycles: 288082977
CPU 0 Branch Prediction Accuracy: 76.3208% MPKI: 42.6441 Average ROB Occupancy at Mispredict: 11.6022
Branch type MPKI
BRANCH_DIRECT_JUMP: 1.33389
BRANCH_INDIRECT: 22.7744
BRANCH_CONDITIONAL: 11.6746
BRANCH_DIRECT_CALL: 2.44995
BRANCH_INDIRECT_CALL: 0.99181
BRANCH_RETURN: 3.41944

Instructions large pages: 0
Instructions small pages: 9620
Large page distribution for instructions: 0%

Data large pages: 0
Data small pages: 8501
Large page distribution for data: 0%

cpu0_L1I TOTAL       ACCESS:   38885146  HIT:   30130207  MISS:    8754939  iACCESS:   38885146  iHIT:   30130207  iMISS:    8754939  dACCESS:          0  dHIT:          0  dMISS:          0  itACCESS:          0  itHIT:          0  itMISS:          0  dtACCESS:          0  dtHIT:          0  dtMISS:          0
cpu0_L1I LOAD         ACCESS:   11686862  HIT:    9277792  MISS:    2409070  iACCESS:   11686862  iHIT:    9277792  iMISS:    2409070  dACCESS:          0  dHIT:          0  dMISS:          0  itACCESS:          0  itHIT:          0  itMISS:          0  dtACCESS:          0  dtHIT:          0  dtMISS:          0
cpu0_L1I RFO          ACCESS:          0  HIT:          0  MISS:          0  iACCESS:          0  iHIT:          0  iMISS:          0  dACCESS:          0  dHIT:          0  dMISS:          0  itACCESS:          0  itHIT:          0  itMISS:          0  dtACCESS:          0  dtHIT:          0  dtMISS:          0
cpu0_L1I PREFETCH     ACCESS:   27198284  HIT:   20852415  MISS:    6345869  iACCESS:   27198284  iHIT:   20852415  iMISS:    6345869  dACCESS:          0  dHIT:          0  dMISS:          0  itACCESS:          0  itHIT:          0  itMISS:          0  dtACCESS:          0  dtHIT:          0  dtMISS:          0
cpu0_L1I WRITE        ACCESS:          0  HIT:          0  MISS:          0  iACCESS:          0  iHIT:          0  iMISS:          0  dACCESS:          0  dHIT:          0  dMISS:          0  itACCESS:          0  itHIT:          0  itMISS:          0  dtACCESS:          0  dtHIT:          0  dtMISS:          0
cpu0_L1I TRANSLATION  ACCESS:          0  HIT:          0  MISS:          0  iACCESS:          0  iHIT:          0  iMISS:          0  dACCESS:          0  dHIT:          0  dMISS:          0  itACCESS:          0  itHIT:          0  itMISS:          0  dtACCESS:          0  dtHIT:          0  dtMISS:          0
cpu0_L1I PREFETCH  REQUESTED:   30071611  ISSUED:   30071511  CROSSED:          0  USEFUL:    2203194  USELESS:     766612
cpu0_L1I AVERAGE iMISS LATENCY: 21.9591 cycles
cpu0_L1I AVERAGE dMISS LATENCY: 0 cycles
cpu0_L1I AVERAGE itMISS LATENCY: 0 cycles
cpu0_L1I AVERAGE dtMISS LATENCY: 0 cycles
cpu0_L1I PAGE CROSSINGS (TLB HIT):         0 
cpu0_L1I PAGE CROSSINGS (TLB MISS):         0 
cpu0_L1I AVERAGE MISS LATENCY: 21.9591 cycles
cpu0_ITLB TOTAL       ACCESS:   32818760  HIT:   30556909  MISS:    2261851  iACCESS:   32818760  iHIT:   30556909  iMISS:    2261851  dACCESS:          0  dHIT:          0  dMISS:          0  itACCESS:          0  itHIT:          0  itMISS:          0  dtACCESS:          0  dtHIT:          0  dtMISS:          0
cpu0_ITLB LOAD         ACCESS:   32818760  HIT:   30556909  MISS:    2261851  iACCESS:   32818760  iHIT:   30556909  iMISS:    2261851  dACCESS:          0  dHIT:          0  dMISS:          0  itACCESS:          0  itHIT:          0  itMISS:          0  dtACCESS:          0  dtHIT:          0  dtMISS:          0
cpu0_ITLB RFO          ACCESS:          0  HIT:          0  MISS:          0  iACCESS:          0  iHIT:          0  iMISS:          0  dACCESS:          0  dHIT:          0  dMISS:          0  itACCESS:          0  itHIT:          0  itMISS:          0  dtACCESS:          0  dtHIT:          0  dtMISS:          0
cpu0_ITLB PREFETCH     ACCESS:          0  HIT:          0  MISS:          0  iACCESS:          0  iHIT:          0  iMISS:          0  dACCESS:          0  dHIT:          0  dMISS:          0  itACCESS:          0  itHIT:          0  itMISS:          0  dtACCESS:          0  dtHIT:          0  dtMISS:          0
cpu0_ITLB WRITE        ACCESS:          0  HIT:          0  MISS:          0  iACCESS:          0  iHIT:          0  iMISS:          0  dACCESS:          0  dHIT:          0  dMISS:          0  itACCESS:          0  itHIT:          0  itMISS:          0  dtACCESS:          0  dtHIT:          0  dtMISS:          0
cpu0_ITLB TRANSLATION  ACCESS:          0  HIT:          0  MISS:          0  iACCESS:          0  iHIT:          0  iMISS:          0  dACCESS:          0  dHIT:          0  dMISS:          0  itACCESS:          0  itHIT:          0  itMISS:          0  dtACCESS:          0  dtHIT:          0  dtMISS:          0
cpu0_ITLB PREFETCH  REQUESTED:          0  ISSUED:          0  CROSSED:          0  USEFUL:     386037  USELESS:      82395
cpu0_ITLB AVERAGE iMISS LATENCY: 5.75068 cycles
cpu0_ITLB AVERAGE dMISS LATENCY: 0 cycles
cpu0_ITLB AVERAGE itMISS LATENCY: 0 cycles
cpu0_ITLB AVERAGE dtMISS LATENCY: 0 cycles
cpu0_ITLB PAGE CROSSINGS (TLB HIT):         0 
cpu0_ITLB PAGE CROSSINGS (TLB MISS):         0 
cpu0_ITLB AVERAGE MISS LATENCY: 5.75068 cycles
cpu0_DTLB TOTAL       ACCESS:   28786147  HIT:   25101376  MISS:    3684771  iACCESS:          0  iHIT:          0  iMISS:          0  dACCESS:   28786147  dHIT:   25101376  dMISS:    3684771  itACCESS:          0  itHIT:          0  itMISS:          0  dtACCESS:          0  dtHIT:          0  dtMISS:          0
cpu0_DTLB LOAD         ACCESS:   28786147  HIT:   25101376  MISS:    3684771  iACCESS:          0  iHIT:          0  iMISS:          0  dACCESS:   28786147  dHIT:   25101376  dMISS:    3684771  itACCESS:          0  itHIT:          0  itMISS:          0  dtACCESS:          0  dtHIT:          0  dtMISS:          0
cpu0_DTLB RFO          ACCESS:          0  HIT:          0  MISS:          0  iACCESS:          0  iHIT:          0  iMISS:          0  dACCESS:          0  dHIT:          0  dMISS:          0  itACCESS:          0  itHIT:          0  itMISS:          0  dtACCESS:          0  dtHIT:          0  dtMISS:          0
cpu0_DTLB PREFETCH     ACCESS:          0  HIT:          0  MISS:          0  iACCESS:          0  iHIT:          0  iMISS:          0  dACCESS:          0  dHIT:          0  dMISS:          0  itACCESS:          0  itHIT:          0  itMISS:          0  dtACCESS:          0  dtHIT:          0  dtMISS:          0
cpu0_DTLB WRITE        ACCESS:          0  HIT:          0  MISS:          0  iACCESS:          0  iHIT:          0  iMISS:          0  dACCESS:          0  dHIT:          0  dMISS:          0  itACCESS:          0  itHIT:          0  itMISS:          0  dtACCESS:          0  dtHIT:          0  dtMISS:          0
cpu0_DTLB TRANSLATION  ACCESS:          0  HIT:          0  MISS:          0  iACCESS:          0  iHIT:          0  iMISS:          0  dACCESS:          0  dHIT:          0  dMISS:          0  itACCESS:          0  itHIT:          0  itMISS:          0  dtACCESS:          0  dtHIT:          0  dtMISS:          0
cpu0_DTLB PREFETCH  REQUESTED:          0  ISSUED:          0  CROSSED:          0  USEFUL:          0  USELESS:          0
cpu0_DTLB AVERAGE iMISS LATENCY: 0 cycles
cpu0_DTLB AVERAGE dMISS LATENCY: 27.8054 cycles
cpu0_DTLB AVERAGE itMISS LATENCY: 0 cycles
cpu0_DTLB AVERAGE dtMISS LATENCY: 0 cycles
cpu0_DTLB PAGE CROSSINGS (TLB HIT):         0 
cpu0_DTLB PAGE CROSSINGS (TLB MISS):         0 
cpu0_DTLB AVERAGE MISS LATENCY: 27.8054 cycles
cpu0_STLB TOTAL       ACCESS:    2599658  HIT:    2234665  MISS:     364993  iACCESS:     468435  iHIT:     422079  iMISS:      46356  dACCESS:    2131223  dHIT:    1812586  dMISS:     318637  itACCESS:          0  itHIT:          0  itMISS:          0  dtACCESS:          0  dtHIT:          0  dtMISS:          0
cpu0_STLB LOAD         ACCESS:    2599658  HIT:    2234665  MISS:     364993  iACCESS:     468435  iHIT:     422079  iMISS:      46356  dACCESS:    2131223  dHIT:    1812586  dMISS:     318637  itACCESS:          0  itHIT:          0  itMISS:          0  dtACCESS:          0  dtHIT:          0  dtMISS:          0
cpu0_STLB RFO          ACCESS:          0  HIT:          0  MISS:          0  iACCESS:          0  iHIT:          0  iMISS:          0  dACCESS:          0  dHIT:          0  dMISS:          0  itACCESS:          0  itHIT:          0  itMISS:          0  dtACCESS:          0  dtHIT:          0  dtMISS:          0
cpu0_STLB PREFETCH     ACCESS:          0  HIT:          0  MISS:          0  iACCESS:          0  iHIT:          0  iMISS:          0  dACCESS:          0  dHIT:          0  dMISS:          0  itACCESS:          0  itHIT:          0  itMISS:          0  dtACCESS:          0  dtHIT:          0  dtMISS:          0
cpu0_STLB WRITE        ACCESS:          0  HIT:          0  MISS:          0  iACCESS:          0  iHIT:          0  iMISS:          0  dACCESS:          0  dHIT:          0  dMISS:          0  itACCESS:          0  itHIT:          0  itMISS:          0  dtACCESS:          0  dtHIT:          0  dtMISS:          0
cpu0_STLB TRANSLATION  ACCESS:          0  HIT:          0  MISS:          0  iACCESS:          0  iHIT:          0  iMISS:          0  dACCESS:          0  dHIT:          0  dMISS:          0  itACCESS:          0  itHIT:          0  itMISS:          0  dtACCESS:          0  dtHIT:          0  dtMISS:          0
cpu0_STLB PREFETCH  REQUESTED:          0  ISSUED:          0  CROSSED:          0  USEFUL:          0  USELESS:          0
cpu0_STLB AVERAGE iMISS LATENCY: 25.5789 cycles
cpu0_STLB AVERAGE dMISS LATENCY: 233.555 cycles
cpu0_STLB AVERAGE itMISS LATENCY: 0 cycles
cpu0_STLB AVERAGE dtMISS LATENCY: 0 cycles
cpu0_STLB PAGE CROSSINGS (TLB HIT):         0 
cpu0_STLB PAGE CROSSINGS (TLB MISS):         0 
cpu0_STLB AVERAGE MISS LATENCY: 259.134 cycles
cpu0_L1D TOTAL       ACCESS:   44916760  HIT:   39026176  MISS:    5890584  iACCESS:          0  iHIT:          0  iMISS:          0  dACCESS:   44340336  dHIT:   38999529  dMISS:    5340807  itACCESS:      56691  itHIT:       3545  itMISS:      53146  dtACCESS:     519733  dtHIT:      23102  dtMISS:     496631
cpu0_L1D LOAD         ACCESS:   20261299  HIT:   17851403  MISS:    2409896  iACCESS:          0  iHIT:          0  iMISS:          0  dACCESS:   20261299  dHIT:   17851403  dMISS:    2409896  itACCESS:          0  itHIT:          0  itMISS:          0  dtACCESS:          0  dtHIT:          0  dtMISS:          0
cpu0_L1D RFO          ACCESS:          0  HIT:          0  MISS:          0  iACCESS:          0  iHIT:          0  iMISS:          0  dACCESS:          0  dHIT:          0  dMISS:          0  itACCESS:          0  itHIT:          0  itMISS:          0  dtACCESS:          0  dtHIT:          0  dtMISS:          0
cpu0_L1D PREFETCH     ACCESS:   13956304  HIT:   11608663  MISS:    2347641  iACCESS:          0  iHIT:          0  iMISS:          0  dACCESS:   13956304  dHIT:   11608663  dMISS:    2347641  itACCESS:          0  itHIT:          0  itMISS:          0  dtACCESS:          0  dtHIT:          0  dtMISS:          0
cpu0_L1D WRITE        ACCESS:   10122733  HIT:    9539463  MISS:     583270  iACCESS:          0  iHIT:          0  iMISS:          0  dACCESS:   10122733  dHIT:    9539463  dMISS:     583270  itACCESS:          0  itHIT:          0  itMISS:          0  dtACCESS:          0  dtHIT:          0  dtMISS:          0
cpu0_L1D TRANSLATION  ACCESS:     576424  HIT:      26647  MISS:     549777  iACCESS:          0  iHIT:          0  iMISS:          0  dACCESS:          0  dHIT:          0  dMISS:          0  itACCESS:      56691  itHIT:       3545  itMISS:      53146  dtACCESS:     519733  dtHIT:      23102  dtMISS:     496631
cpu0_L1D PREFETCH  REQUESTED:   20261299  ISSUED:   18424411  CROSSED:          0  USEFUL:     355096  USELESS:     935841
cpu0_L1D AVERAGE iMISS LATENCY: 0 cycles
cpu0_L1D AVERAGE dMISS LATENCY: 49.1074 cycles
cpu0_L1D AVERAGE itMISS LATENCY: 1.49968 cycles
cpu0_L1D AVERAGE dtMISS LATENCY: 13.5805 cycles
cpu0_L1D PAGE CROSSINGS (TLB HIT):         0 
cpu0_L1D PAGE CROSSINGS (TLB MISS):         0 
cpu0_L1D AVERAGE MISS LATENCY: 64.1876 cycles
cpu0_L2C TOTAL       ACCESS:    8630071  HIT:    4216274  MISS:    4413797  iACCESS:    3790123  iHIT:    2334298  iMISS:    1455825  dACCESS:    4331099  dHIT:    1816322  dMISS:    2514777  itACCESS:      52594  itHIT:       7344  itMISS:      45250  dtACCESS:     456255  dtHIT:      58310  dtMISS:     397945
cpu0_L2C LOAD         ACCESS:    2079825  HIT:    1014361  MISS:    1065464  iACCESS:     858560  iHIT:     551722  iMISS:     306838  dACCESS:    1221265  dHIT:     462639  dMISS:     758626  itACCESS:          0  itHIT:          0  itMISS:          0  dtACCESS:          0  dtHIT:          0  dtMISS:          0
cpu0_L2C RFO          ACCESS:     215908  HIT:      82088  MISS:     133820  iACCESS:          0  iHIT:          0  iMISS:          0  dACCESS:     215908  dHIT:      82088  dMISS:     133820  itACCESS:          0  itHIT:          0  itMISS:          0  dtACCESS:          0  dtHIT:          0  dtMISS:          0
cpu0_L2C PREFETCH     ACCESS:    5483011  HIT:    2715728  MISS:    2767283  iACCESS:    2931563  iHIT:    1782576  iMISS:    1148987  dACCESS:    2551448  dHIT:     933152  dMISS:    1618296  itACCESS:          0  itHIT:          0  itMISS:          0  dtACCESS:          0  dtHIT:          0  dtMISS:          0
cpu0_L2C WRITE        ACCESS:     342478  HIT:     338443  MISS:       4035  iACCESS:          0  iHIT:          0  iMISS:          0  dACCESS:     342478  dHIT:     338443  dMISS:       4035  itACCESS:          0  itHIT:          0  itMISS:          0  dtACCESS:          0  dtHIT:          0  dtMISS:          0
cpu0_L2C TRANSLATION  ACCESS:     508849  HIT:      65654  MISS:     443195  iACCESS:          0  iHIT:          0  iMISS:          0  dACCESS:          0  dHIT:          0  dMISS:          0  itACCESS:      52594  itHIT:       7344  itMISS:      45250  dtACCESS:     456255  dtHIT:      58310  dtMISS:     397945
cpu0_L2C PREFETCH  REQUESTED:    1525014  ISSUED:    1525007  CROSSED:          0  USEFUL:     360906  USELESS:     303533
cpu0_L2C AVERAGE iMISS LATENCY: 36.2254 cycles
cpu0_L2C AVERAGE dMISS LATENCY: 78.4963 cycles
cpu0_L2C AVERAGE itMISS LATENCY: 1.88353 cycles
cpu0_L2C AVERAGE dtMISS LATENCY: 17.0973 cycles
cpu0_L2C PAGE CROSSINGS (TLB HIT):         0 
cpu0_L2C PAGE CROSSINGS (TLB MISS):         0 
cpu0_L2C AVERAGE MISS LATENCY: 133.703 cycles
LLC TOTAL       ACCESS:    4434345  HIT:    1528256  MISS:    2906089  iACCESS:    1377849  iHIT:     542728  iMISS:     835121  dACCESS:    2613301  dHIT:     930550  dMISS:    1682751  itACCESS:      45250  itHIT:       3569  itMISS:      41681  dtACCESS:     397945  dtHIT:      51409  dtMISS:     346536
LLC LOAD         ACCESS:    1057464  HIT:     360670  MISS:     696794  iACCESS:     305608  iHIT:     126471  iMISS:     179137  dACCESS:     751856  dHIT:     234199  dMISS:     517657  itACCESS:          0  itHIT:          0  itMISS:          0  dtACCESS:          0  dtHIT:          0  dtMISS:          0
LLC RFO          ACCESS:     133806  HIT:      41514  MISS:      92292  iACCESS:          0  iHIT:          0  iMISS:          0  dACCESS:     133806  dHIT:      41514  dMISS:      92292  itACCESS:          0  itHIT:          0  itMISS:          0  dtACCESS:          0  dtHIT:          0  dtMISS:          0
LLC PREFETCH     ACCESS:    2587237  HIT:     868226  MISS:    1719011  iACCESS:    1072241  iHIT:     416257  iMISS:     655984  dACCESS:    1514996  dHIT:     451969  dMISS:    1063027  itACCESS:          0  itHIT:          0  itMISS:          0  dtACCESS:          0  dtHIT:          0  dtMISS:          0
LLC WRITE        ACCESS:     212643  HIT:     202868  MISS:       9775  iACCESS:          0  iHIT:          0  iMISS:          0  dACCESS:     212643  dHIT:     202868  dMISS:       9775  itACCESS:          0  itHIT:          0  itMISS:          0  dtACCESS:          0  dtHIT:          0  dtMISS:          0
LLC TRANSLATION  ACCESS:     443195  HIT:      54978  MISS:     388217  iACCESS:          0  iHIT:          0  iMISS:          0  dACCESS:          0  dHIT:          0  dMISS:          0  itACCESS:      45250  itHIT:       3569  itMISS:      41681  dtACCESS:     397945  dtHIT:      51409  dtMISS:     346536
LLC PREFETCH  REQUESTED:          0  ISSUED:          0  CROSSED:          0  USEFUL:          0  USELESS:          0
LLC AVERAGE iMISS LATENCY: 45.7135 cycles
LLC AVERAGE dMISS LATENCY: 103.941 cycles
LLC AVERAGE itMISS LATENCY: 2.55198 cycles
LLC AVERAGE dtMISS LATENCY: 23.2619 cycles
LLC PAGE CROSSINGS (TLB HIT):         0 
LLC PAGE CROSSINGS (TLB MISS):         0 
LLC AVERAGE MISS LATENCY: 175.468 cycles

PageTableWalker TOTAL       ACCESS:     181369  
PageTableWalker AVERAGE LATENCY: 6.81024 cycles
PageTableWalker TOTAL LATENCY: 1235166 cycles

DRAM Statistics
Channel 0
 RQ ROW_BUFFER_HIT:     595803
  ROW_BUFFER_MISS:    2280256
 AVG DBUS CONGESTED CYCLE:    3.64968
 WQ ROW_BUFFER_HIT:      67854
  ROW_BUFFER_MISS:      56473  FULL:          0

