last_page:0x200000000000000
VMEM_RES_CAP:0x100000
PAGE_SIZE:4096
LOG2_PAGE_SIZE:12
LOG2_PAGE_TABLE_SIZE:9
page_table_levels:5
WARNING: physical memory size is smaller than virtual memory size
FDiP enabled with aggresivity 16

*** ChampSim Multicore Out-of-Order Simulator ***

Warmup Instructions: 50000000
Simulation Instructions: 100000000
Number of CPUs: 1
Small page size: 4096
Large page size: 2097152

CPU 0 Bimodal branch predictor
Basic BTB sets: 1024 ways: 8 indirect buffer size: 4096 RAS size: 64
Instruction page size distrubution: 0
Loading instruction page size distribution from /home/bsc/bsc018186/scratch/itp_asplos25_AE/dump/smt_srv537_ap_srv180_ap_1024i.pdst
Data page size distrubution: 0
Loading data page size distribution from /home/bsc/bsc018186/scratch/itp_asplos25_AE/dump/smt_srv537_ap_srv180_ap_1024i.pdst
cpu0_L2C IP-based stride prefetcher
cpu0_L1D next line prefetcher
CHiRPing...
cpu0_L1I next line prefetcher
Off-chip DRAM Size: 4 GiB Channels: 1 Width: 64-bit Data Rate: 3200 MT/s
Heartbeat CPU 0 instructions: 10000001 cycles: 2500692 heartbeat IPC: 3.9989 cumulative IPC: 3.9989 (Simulation time: 0 hr 0 min 46 sec) 
Heartbeat CPU 0 instructions: 20000003 cycles: 5000839 heartbeat IPC: 3.99977 cumulative IPC: 3.99933 (Simulation time: 0 hr 1 min 34 sec) 
Heartbeat CPU 0 instructions: 30000003 cycles: 7501098 heartbeat IPC: 3.99959 cumulative IPC: 3.99942 (Simulation time: 0 hr 2 min 22 sec) 
Heartbeat CPU 0 instructions: 40000001 cycles: 10001359 heartbeat IPC: 3.99959 cumulative IPC: 3.99946 (Simulation time: 0 hr 3 min 9 sec) 
Heartbeat CPU 0 instructions: 50000001 cycles: 12501518 heartbeat IPC: 3.99975 cumulative IPC: 3.99952 (Simulation time: 0 hr 3 min 53 sec) 
Warmup finished CPU 0 instructions: 50000001 cycles: 12501519 cumulative IPC: 3.99952 (Simulation time: 0 hr 3 min 53 sec) 

Warmup complete CPU 0 instructions: 50000001 cycles: 12501519 (Simulation time: 0 hr 3 min 53 sec) 

Heartbeat CPU 0 instructions: 60000001 cycles: 41639483 heartbeat IPC: 0.343195 cumulative IPC: 0.343195 (Simulation time: 0 hr 5 min 20 sec) 
Heartbeat CPU 0 instructions: 70000003 cycles: 69824510 heartbeat IPC: 0.354799 cumulative IPC: 0.348901 (Simulation time: 0 hr 6 min 46 sec) 
Heartbeat CPU 0 instructions: 80000003 cycles: 98771775 heartbeat IPC: 0.345456 cumulative IPC: 0.347745 (Simulation time: 0 hr 8 min 13 sec) 
Heartbeat CPU 0 instructions: 90000000 cycles: 126983360 heartbeat IPC: 0.354465 cumulative IPC: 0.349401 (Simulation time: 0 hr 9 min 39 sec) 
Heartbeat CPU 0 instructions: 100000003 cycles: 155198361 heartbeat IPC: 0.354422 cumulative IPC: 0.350394 (Simulation time: 0 hr 11 min 5 sec) 
Heartbeat CPU 0 instructions: 110000000 cycles: 184861586 heartbeat IPC: 0.337118 cumulative IPC: 0.348109 (Simulation time: 0 hr 12 min 32 sec) 
Heartbeat CPU 0 instructions: 120000000 cycles: 213032597 heartbeat IPC: 0.354975 cumulative IPC: 0.349074 (Simulation time: 0 hr 13 min 58 sec) 
Heartbeat CPU 0 instructions: 130000000 cycles: 240035088 heartbeat IPC: 0.370337 cumulative IPC: 0.351597 (Simulation time: 0 hr 15 min 22 sec) 
Heartbeat CPU 0 instructions: 140000003 cycles: 269036010 heartbeat IPC: 0.344817 cumulative IPC: 0.350831 (Simulation time: 0 hr 16 min 49 sec) 
Heartbeat CPU 0 instructions: 150000002 cycles: 296971353 heartbeat IPC: 0.35797 cumulative IPC: 0.351532 (Simulation time: 0 hr 18 min 14 sec) 
Simulation finished CPU 0 instructions: 100000001 cycles: 284469835 cumulative IPC: 0.351532 (Simulation time: 0 hr 18 min 14 sec) 

Simulation complete CPU 0 instructions: 100000001 cycles: 284469835 (Simulation time: 0 hr 18 min 14 sec) 


ChampSim completed all CPUs

Saving instructions large page distribution to /home/bsc/bsc018186/scratch/itp_asplos25_AE/dump/smt_srv537_ap_srv180_ap_1024i.pdst...
Saving data large page distribution to /home/bsc/bsc018186/scratch/itp_asplos25_AE/dump/smt_srv537_ap_srv180_ap_1024i.pdst...
=== Simulation ===
CPU 0 runs /gpfs/projects/bsc18/MN4/bsc18/romol/ChampSim/traces/qualcomm_srv/smt_srv537_ap_srv180_ap_1024i.champsimtrace.xz

Region of Interest Statistics

CPU 0 cumulative IPC: 0.351532 instructions: 100000001 cycles: 284469835
CPU 0 Branch Prediction Accuracy: 76.1345% MPKI: 42.9765 Average ROB Occupancy at Mispredict: 11.4314
Branch type MPKI
BRANCH_DIRECT_JUMP: 1.28044
BRANCH_INDIRECT: 22.3442
BRANCH_CONDITIONAL: 12.5476
BRANCH_DIRECT_CALL: 2.47422
BRANCH_INDIRECT_CALL: 0.92457
BRANCH_RETURN: 3.40554

Instructions large pages: 0
Instructions small pages: 13692
Large page distribution for instructions: 0%

Data large pages: 0
Data small pages: 12405
Large page distribution for data: 0%

cpu0_L1I TOTAL       ACCESS:   39054048  HIT:   30377306  MISS:    8676742  iACCESS:   39054048  iHIT:   30377306  iMISS:    8676742  dACCESS:          0  dHIT:          0  dMISS:          0  itACCESS:          0  itHIT:          0  itMISS:          0  dtACCESS:          0  dtHIT:          0  dtMISS:          0
cpu0_L1I LOAD         ACCESS:   11747446  HIT:    9376409  MISS:    2371037  iACCESS:   11747446  iHIT:    9376409  iMISS:    2371037  dACCESS:          0  dHIT:          0  dMISS:          0  itACCESS:          0  itHIT:          0  itMISS:          0  dtACCESS:          0  dtHIT:          0  dtMISS:          0
cpu0_L1I RFO          ACCESS:          0  HIT:          0  MISS:          0  iACCESS:          0  iHIT:          0  iMISS:          0  dACCESS:          0  dHIT:          0  dMISS:          0  itACCESS:          0  itHIT:          0  itMISS:          0  dtACCESS:          0  dtHIT:          0  dtMISS:          0
cpu0_L1I PREFETCH     ACCESS:   27306602  HIT:   21000897  MISS:    6305705  iACCESS:   27306602  iHIT:   21000897  iMISS:    6305705  dACCESS:          0  dHIT:          0  dMISS:          0  itACCESS:          0  itHIT:          0  itMISS:          0  dtACCESS:          0  dtHIT:          0  dtMISS:          0
cpu0_L1I WRITE        ACCESS:          0  HIT:          0  MISS:          0  iACCESS:          0  iHIT:          0  iMISS:          0  dACCESS:          0  dHIT:          0  dMISS:          0  itACCESS:          0  itHIT:          0  itMISS:          0  dtACCESS:          0  dtHIT:          0  dtMISS:          0
cpu0_L1I TRANSLATION  ACCESS:          0  HIT:          0  MISS:          0  iACCESS:          0  iHIT:          0  iMISS:          0  dACCESS:          0  dHIT:          0  dMISS:          0  itACCESS:          0  itHIT:          0  itMISS:          0  dtACCESS:          0  dtHIT:          0  dtMISS:          0
cpu0_L1I PREFETCH  REQUESTED:   30189223  ISSUED:   30189213  CROSSED:          0  USEFUL:    2195706  USELESS:     751965
cpu0_L1I AVERAGE iMISS LATENCY: 22.9371 cycles
cpu0_L1I AVERAGE dMISS LATENCY: 0 cycles
cpu0_L1I AVERAGE itMISS LATENCY: 0 cycles
cpu0_L1I AVERAGE dtMISS LATENCY: 0 cycles
cpu0_L1I PAGE CROSSINGS (TLB HIT):         0 
cpu0_L1I PAGE CROSSINGS (TLB MISS):         0 
cpu0_L1I AVERAGE MISS LATENCY: 22.9371 cycles
cpu0_ITLB TOTAL       ACCESS:   32948840  HIT:   30742384  MISS:    2206456  iACCESS:   32948840  iHIT:   30742384  iMISS:    2206456  dACCESS:          0  dHIT:          0  dMISS:          0  itACCESS:          0  itHIT:          0  itMISS:          0  dtACCESS:          0  dtHIT:          0  dtMISS:          0
cpu0_ITLB LOAD         ACCESS:   32948840  HIT:   30742384  MISS:    2206456  iACCESS:   32948840  iHIT:   30742384  iMISS:    2206456  dACCESS:          0  dHIT:          0  dMISS:          0  itACCESS:          0  itHIT:          0  itMISS:          0  dtACCESS:          0  dtHIT:          0  dtMISS:          0
cpu0_ITLB RFO          ACCESS:          0  HIT:          0  MISS:          0  iACCESS:          0  iHIT:          0  iMISS:          0  dACCESS:          0  dHIT:          0  dMISS:          0  itACCESS:          0  itHIT:          0  itMISS:          0  dtACCESS:          0  dtHIT:          0  dtMISS:          0
cpu0_ITLB PREFETCH     ACCESS:          0  HIT:          0  MISS:          0  iACCESS:          0  iHIT:          0  iMISS:          0  dACCESS:          0  dHIT:          0  dMISS:          0  itACCESS:          0  itHIT:          0  itMISS:          0  dtACCESS:          0  dtHIT:          0  dtMISS:          0
cpu0_ITLB WRITE        ACCESS:          0  HIT:          0  MISS:          0  iACCESS:          0  iHIT:          0  iMISS:          0  dACCESS:          0  dHIT:          0  dMISS:          0  itACCESS:          0  itHIT:          0  itMISS:          0  dtACCESS:          0  dtHIT:          0  dtMISS:          0
cpu0_ITLB TRANSLATION  ACCESS:          0  HIT:          0  MISS:          0  iACCESS:          0  iHIT:          0  iMISS:          0  dACCESS:          0  dHIT:          0  dMISS:          0  itACCESS:          0  itHIT:          0  itMISS:          0  dtACCESS:          0  dtHIT:          0  dtMISS:          0
cpu0_ITLB PREFETCH  REQUESTED:          0  ISSUED:          0  CROSSED:          0  USEFUL:     383430  USELESS:      77521
cpu0_ITLB AVERAGE iMISS LATENCY: 9.43049 cycles
cpu0_ITLB AVERAGE dMISS LATENCY: 0 cycles
cpu0_ITLB AVERAGE itMISS LATENCY: 0 cycles
cpu0_ITLB AVERAGE dtMISS LATENCY: 0 cycles
cpu0_ITLB PAGE CROSSINGS (TLB HIT):         0 
cpu0_ITLB PAGE CROSSINGS (TLB MISS):         0 
cpu0_ITLB AVERAGE MISS LATENCY: 9.43049 cycles
cpu0_DTLB TOTAL       ACCESS:   28720381  HIT:   25280388  MISS:    3439993  iACCESS:          0  iHIT:          0  iMISS:          0  dACCESS:   28720381  dHIT:   25280388  dMISS:    3439993  itACCESS:          0  itHIT:          0  itMISS:          0  dtACCESS:          0  dtHIT:          0  dtMISS:          0
cpu0_DTLB LOAD         ACCESS:   28720381  HIT:   25280388  MISS:    3439993  iACCESS:          0  iHIT:          0  iMISS:          0  dACCESS:   28720381  dHIT:   25280388  dMISS:    3439993  itACCESS:          0  itHIT:          0  itMISS:          0  dtACCESS:          0  dtHIT:          0  dtMISS:          0
cpu0_DTLB RFO          ACCESS:          0  HIT:          0  MISS:          0  iACCESS:          0  iHIT:          0  iMISS:          0  dACCESS:          0  dHIT:          0  dMISS:          0  itACCESS:          0  itHIT:          0  itMISS:          0  dtACCESS:          0  dtHIT:          0  dtMISS:          0
cpu0_DTLB PREFETCH     ACCESS:          0  HIT:          0  MISS:          0  iACCESS:          0  iHIT:          0  iMISS:          0  dACCESS:          0  dHIT:          0  dMISS:          0  itACCESS:          0  itHIT:          0  itMISS:          0  dtACCESS:          0  dtHIT:          0  dtMISS:          0
cpu0_DTLB WRITE        ACCESS:          0  HIT:          0  MISS:          0  iACCESS:          0  iHIT:          0  iMISS:          0  dACCESS:          0  dHIT:          0  dMISS:          0  itACCESS:          0  itHIT:          0  itMISS:          0  dtACCESS:          0  dtHIT:          0  dtMISS:          0
cpu0_DTLB TRANSLATION  ACCESS:          0  HIT:          0  MISS:          0  iACCESS:          0  iHIT:          0  iMISS:          0  dACCESS:          0  dHIT:          0  dMISS:          0  itACCESS:          0  itHIT:          0  itMISS:          0  dtACCESS:          0  dtHIT:          0  dtMISS:          0
cpu0_DTLB PREFETCH  REQUESTED:          0  ISSUED:          0  CROSSED:          0  USEFUL:          0  USELESS:          0
cpu0_DTLB AVERAGE iMISS LATENCY: 0 cycles
cpu0_DTLB AVERAGE dMISS LATENCY: 24.7191 cycles
cpu0_DTLB AVERAGE itMISS LATENCY: 0 cycles
cpu0_DTLB AVERAGE dtMISS LATENCY: 0 cycles
cpu0_DTLB PAGE CROSSINGS (TLB HIT):         0 
cpu0_DTLB PAGE CROSSINGS (TLB MISS):         0 
cpu0_DTLB AVERAGE MISS LATENCY: 24.7191 cycles
cpu0_STLB TOTAL       ACCESS:    2425488  HIT:    2077935  MISS:     347553  iACCESS:     460952  iHIT:     354821  iMISS:     106131  dACCESS:    1964536  dHIT:    1723114  dMISS:     241422  itACCESS:          0  itHIT:          0  itMISS:          0  dtACCESS:          0  dtHIT:          0  dtMISS:          0
cpu0_STLB LOAD         ACCESS:    2425488  HIT:    2077935  MISS:     347553  iACCESS:     460952  iHIT:     354821  iMISS:     106131  dACCESS:    1964536  dHIT:    1723114  dMISS:     241422  itACCESS:          0  itHIT:          0  itMISS:          0  dtACCESS:          0  dtHIT:          0  dtMISS:          0
cpu0_STLB RFO          ACCESS:          0  HIT:          0  MISS:          0  iACCESS:          0  iHIT:          0  iMISS:          0  dACCESS:          0  dHIT:          0  dMISS:          0  itACCESS:          0  itHIT:          0  itMISS:          0  dtACCESS:          0  dtHIT:          0  dtMISS:          0
cpu0_STLB PREFETCH     ACCESS:          0  HIT:          0  MISS:          0  iACCESS:          0  iHIT:          0  iMISS:          0  dACCESS:          0  dHIT:          0  dMISS:          0  itACCESS:          0  itHIT:          0  itMISS:          0  dtACCESS:          0  dtHIT:          0  dtMISS:          0
cpu0_STLB WRITE        ACCESS:          0  HIT:          0  MISS:          0  iACCESS:          0  iHIT:          0  iMISS:          0  dACCESS:          0  dHIT:          0  dMISS:          0  itACCESS:          0  itHIT:          0  itMISS:          0  dtACCESS:          0  dtHIT:          0  dtMISS:          0
cpu0_STLB TRANSLATION  ACCESS:          0  HIT:          0  MISS:          0  iACCESS:          0  iHIT:          0  iMISS:          0  dACCESS:          0  dHIT:          0  dMISS:          0  itACCESS:          0  itHIT:          0  itMISS:          0  dtACCESS:          0  dtHIT:          0  dtMISS:          0
cpu0_STLB PREFETCH  REQUESTED:          0  ISSUED:          0  CROSSED:          0  USEFUL:          0  USELESS:          0
cpu0_STLB AVERAGE iMISS LATENCY: 49.2811 cycles
cpu0_STLB AVERAGE dMISS LATENCY: 199.227 cycles
cpu0_STLB AVERAGE itMISS LATENCY: 0 cycles
cpu0_STLB AVERAGE dtMISS LATENCY: 0 cycles
cpu0_STLB PAGE CROSSINGS (TLB HIT):         0 
cpu0_STLB PAGE CROSSINGS (TLB MISS):         0 
cpu0_STLB AVERAGE MISS LATENCY: 248.508 cycles
cpu0_L1D TOTAL       ACCESS:   44259901  HIT:   39042283  MISS:    5217618  iACCESS:          0  iHIT:          0  iMISS:          0  dACCESS:   43736559  dHIT:   39008413  dMISS:    4728146  itACCESS:     118591  itHIT:      15539  itMISS:     103052  dtACCESS:     404751  dtHIT:      18331  dtMISS:     386420
cpu0_L1D LOAD         ACCESS:   19950525  HIT:   17837619  MISS:    2112906  iACCESS:          0  iHIT:          0  iMISS:          0  dACCESS:   19950525  dHIT:   17837619  dMISS:    2112906  itACCESS:          0  itHIT:          0  itMISS:          0  dtACCESS:          0  dtHIT:          0  dtMISS:          0
cpu0_L1D RFO          ACCESS:          0  HIT:          0  MISS:          0  iACCESS:          0  iHIT:          0  iMISS:          0  dACCESS:          0  dHIT:          0  dMISS:          0  itACCESS:          0  itHIT:          0  itMISS:          0  dtACCESS:          0  dtHIT:          0  dtMISS:          0
cpu0_L1D PREFETCH     ACCESS:   13625384  HIT:   11549808  MISS:    2075576  iACCESS:          0  iHIT:          0  iMISS:          0  dACCESS:   13625384  dHIT:   11549808  dMISS:    2075576  itACCESS:          0  itHIT:          0  itMISS:          0  dtACCESS:          0  dtHIT:          0  dtMISS:          0
cpu0_L1D WRITE        ACCESS:   10160650  HIT:    9620986  MISS:     539664  iACCESS:          0  iHIT:          0  iMISS:          0  dACCESS:   10160650  dHIT:    9620986  dMISS:     539664  itACCESS:          0  itHIT:          0  itMISS:          0  dtACCESS:          0  dtHIT:          0  dtMISS:          0
cpu0_L1D TRANSLATION  ACCESS:     523342  HIT:      33870  MISS:     489472  iACCESS:          0  iHIT:          0  iMISS:          0  dACCESS:          0  dHIT:          0  dMISS:          0  itACCESS:     118591  itHIT:      15539  itMISS:     103052  dtACCESS:     404751  dtHIT:      18331  dtMISS:     386420
cpu0_L1D PREFETCH  REQUESTED:   19950525  ISSUED:   18206219  CROSSED:          0  USEFUL:     370707  USELESS:     906091
cpu0_L1D AVERAGE iMISS LATENCY: 0 cycles
cpu0_L1D AVERAGE dMISS LATENCY: 50.8113 cycles
cpu0_L1D AVERAGE itMISS LATENCY: 3.0919 cycles
cpu0_L1D AVERAGE dtMISS LATENCY: 12.2641 cycles
cpu0_L1D PAGE CROSSINGS (TLB HIT):         0 
cpu0_L1D PAGE CROSSINGS (TLB MISS):         0 
cpu0_L1D AVERAGE MISS LATENCY: 66.1672 cycles
cpu0_L2C TOTAL       ACCESS:    8487967  HIT:    4210819  MISS:    4277148  iACCESS:    3754460  iHIT:    2322023  iMISS:    1432437  dACCESS:    4281239  dHIT:    1832957  dMISS:    2448282  itACCESS:     102580  itHIT:      19556  itMISS:      83024  dtACCESS:     349688  dtHIT:      36283  dtMISS:     313405
cpu0_L2C LOAD         ACCESS:    2038623  HIT:    1025332  MISS:    1013291  iACCESS:     845942  iHIT:     550375  iMISS:     295567  dACCESS:    1192681  dHIT:     474957  dMISS:     717724  itACCESS:          0  itHIT:          0  itMISS:          0  dtACCESS:          0  dtHIT:          0  dtMISS:          0
cpu0_L2C RFO          ACCESS:     208253  HIT:      80620  MISS:     127633  iACCESS:          0  iHIT:          0  iMISS:          0  dACCESS:     208253  dHIT:      80620  dMISS:     127633  itACCESS:          0  itHIT:          0  itMISS:          0  dtACCESS:          0  dtHIT:          0  dtMISS:          0
cpu0_L2C PREFETCH     ACCESS:    5441971  HIT:    2706577  MISS:    2735394  iACCESS:    2908518  iHIT:    1771648  iMISS:    1136870  dACCESS:    2533453  dHIT:     934929  dMISS:    1598524  itACCESS:          0  itHIT:          0  itMISS:          0  dtACCESS:          0  dtHIT:          0  dtMISS:          0
cpu0_L2C WRITE        ACCESS:     346852  HIT:     342451  MISS:       4401  iACCESS:          0  iHIT:          0  iMISS:          0  dACCESS:     346852  dHIT:     342451  dMISS:       4401  itACCESS:          0  itHIT:          0  itMISS:          0  dtACCESS:          0  dtHIT:          0  dtMISS:          0
cpu0_L2C TRANSLATION  ACCESS:     452268  HIT:      55839  MISS:     396429  iACCESS:          0  iHIT:          0  iMISS:          0  dACCESS:          0  dHIT:          0  dMISS:          0  itACCESS:     102580  itHIT:      19556  itMISS:      83024  dtACCESS:     349688  dtHIT:      36283  dtMISS:     313405
cpu0_L2C PREFETCH  REQUESTED:    1502775  ISSUED:    1502772  CROSSED:          0  USEFUL:     357339  USELESS:     314822
cpu0_L2C AVERAGE iMISS LATENCY: 39.0131 cycles
cpu0_L2C AVERAGE dMISS LATENCY: 77.1156 cycles
cpu0_L2C AVERAGE itMISS LATENCY: 3.53583 cycles
cpu0_L2C AVERAGE dtMISS LATENCY: 14.1469 cycles
cpu0_L2C PAGE CROSSINGS (TLB HIT):         0 
cpu0_L2C PAGE CROSSINGS (TLB MISS):         0 
cpu0_L2C AVERAGE MISS LATENCY: 133.812 cycles
LLC TOTAL       ACCESS:    4276692  HIT:    1391133  MISS:    2885559  iACCESS:    1341585  iHIT:     450006  iMISS:     891579  dACCESS:    2538678  dHIT:     901396  dMISS:    1637282  itACCESS:      83024  itHIT:       7603  itMISS:      75421  dtACCESS:     313405  dtHIT:      32128  dtMISS:     281277
LLC LOAD         ACCESS:    1008507  HIT:     348103  MISS:     660404  iACCESS:     294405  iHIT:     105250  iMISS:     189155  dACCESS:     714102  dHIT:     242853  dMISS:     471249  itACCESS:          0  itHIT:          0  itMISS:          0  dtACCESS:          0  dtHIT:          0  dtMISS:          0
LLC RFO          ACCESS:     127621  HIT:      41192  MISS:      86429  iACCESS:          0  iHIT:          0  iMISS:          0  dACCESS:     127621  dHIT:      41192  dMISS:      86429  itACCESS:          0  itHIT:          0  itMISS:          0  dtACCESS:          0  dtHIT:          0  dtMISS:          0
LLC PREFETCH     ACCESS:    2530524  HIT:     759607  MISS:    1770917  iACCESS:    1047180  iHIT:     344756  iMISS:     702424  dACCESS:    1483344  dHIT:     414851  dMISS:    1068493  itACCESS:          0  itHIT:          0  itMISS:          0  dtACCESS:          0  dtHIT:          0  dtMISS:          0
LLC WRITE        ACCESS:     213611  HIT:     202500  MISS:      11111  iACCESS:          0  iHIT:          0  iMISS:          0  dACCESS:     213611  dHIT:     202500  dMISS:      11111  itACCESS:          0  itHIT:          0  itMISS:          0  dtACCESS:          0  dtHIT:          0  dtMISS:          0
LLC TRANSLATION  ACCESS:     396429  HIT:      39731  MISS:     356698  iACCESS:          0  iHIT:          0  iMISS:          0  dACCESS:          0  dHIT:          0  dMISS:          0  itACCESS:      83024  itHIT:       7603  itMISS:      75421  dtACCESS:     313405  dtHIT:      32128  dtMISS:     281277
LLC PREFETCH  REQUESTED:          0  ISSUED:          0  CROSSED:          0  USEFUL:          0  USELESS:          0
LLC AVERAGE iMISS LATENCY: 48.6762 cycles
LLC AVERAGE dMISS LATENCY: 99.0127 cycles
LLC AVERAGE itMISS LATENCY: 4.67089 cycles
LLC AVERAGE dtMISS LATENCY: 18.822 cycles
LLC PAGE CROSSINGS (TLB HIT):         0 
LLC PAGE CROSSINGS (TLB MISS):         0 
LLC AVERAGE MISS LATENCY: 171.182 cycles

PageTableWalker TOTAL       ACCESS:     170328  
PageTableWalker AVERAGE LATENCY: 6.56189 cycles
PageTableWalker TOTAL LATENCY: 1117673 cycles

DRAM Statistics
Channel 0
 RQ ROW_BUFFER_HIT:     618323
  ROW_BUFFER_MISS:    2246781
 AVG DBUS CONGESTED CYCLE:    3.64968
 WQ ROW_BUFFER_HIT:      63530
  ROW_BUFFER_MISS:      54750  FULL:          0

