last_page:0x200000000000000
VMEM_RES_CAP:0x100000
PAGE_SIZE:4096
LOG2_PAGE_SIZE:12
LOG2_PAGE_TABLE_SIZE:9
page_table_levels:5
WARNING: physical memory size is smaller than virtual memory size
FDiP enabled with aggresivity 16

*** ChampSim Multicore Out-of-Order Simulator ***

Warmup Instructions: 50000000
Simulation Instructions: 100000000
Number of CPUs: 1
Small page size: 4096
Large page size: 2097152

CPU 0 Bimodal branch predictor
Basic BTB sets: 1024 ways: 8 indirect buffer size: 4096 RAS size: 64
Instruction page size distrubution: 0
Loading instruction page size distribution from /home/bsc/bsc018186/scratch/itp_asplos25_AE/dump/smt_srv207_ap_srv194_ap_1024i.pdst
Data page size distrubution: 0
Loading data page size distribution from /home/bsc/bsc018186/scratch/itp_asplos25_AE/dump/smt_srv207_ap_srv194_ap_1024i.pdst
cpu0_L2C IP-based stride prefetcher
cpu0_L1D next line prefetcher
CHiRPing...
cpu0_L1I next line prefetcher
Off-chip DRAM Size: 4 GiB Channels: 1 Width: 64-bit Data Rate: 3200 MT/s
Heartbeat CPU 0 instructions: 10000003 cycles: 2500517 heartbeat IPC: 3.99918 cumulative IPC: 3.99918 (Simulation time: 0 hr 0 min 40 sec) 
Heartbeat CPU 0 instructions: 20000000 cycles: 5001387 heartbeat IPC: 3.99861 cumulative IPC: 3.9989 (Simulation time: 0 hr 1 min 22 sec) 
Heartbeat CPU 0 instructions: 30000002 cycles: 7501964 heartbeat IPC: 3.99908 cumulative IPC: 3.99896 (Simulation time: 0 hr 2 min 4 sec) 
Heartbeat CPU 0 instructions: 40000001 cycles: 10002945 heartbeat IPC: 3.99844 cumulative IPC: 3.99883 (Simulation time: 0 hr 2 min 47 sec) 
Heartbeat CPU 0 instructions: 50000002 cycles: 12580947 heartbeat IPC: 3.87898 cumulative IPC: 3.97427 (Simulation time: 0 hr 3 min 29 sec) 
Warmup finished CPU 0 instructions: 50000002 cycles: 12580948 cumulative IPC: 3.97427 (Simulation time: 0 hr 3 min 29 sec) 

Warmup complete CPU 0 instructions: 50000002 cycles: 12580948 (Simulation time: 0 hr 3 min 29 sec) 

Heartbeat CPU 0 instructions: 60000003 cycles: 29650579 heartbeat IPC: 0.585836 cumulative IPC: 0.585836 (Simulation time: 0 hr 4 min 44 sec) 
Heartbeat CPU 0 instructions: 70000002 cycles: 50712426 heartbeat IPC: 0.474793 cumulative IPC: 0.524502 (Simulation time: 0 hr 6 min 1 sec) 
Heartbeat CPU 0 instructions: 80000002 cycles: 81107123 heartbeat IPC: 0.329005 cumulative IPC: 0.437789 (Simulation time: 0 hr 7 min 30 sec) 
Heartbeat CPU 0 instructions: 90000000 cycles: 111443386 heartbeat IPC: 0.329639 cumulative IPC: 0.404603 (Simulation time: 0 hr 8 min 58 sec) 
Heartbeat CPU 0 instructions: 100000004 cycles: 140767632 heartbeat IPC: 0.341015 cumulative IPC: 0.390057 (Simulation time: 0 hr 10 min 25 sec) 
Heartbeat CPU 0 instructions: 110000000 cycles: 169569947 heartbeat IPC: 0.347195 cumulative IPC: 0.382193 (Simulation time: 0 hr 11 min 51 sec) 
Heartbeat CPU 0 instructions: 120000003 cycles: 199424299 heartbeat IPC: 0.33496 cumulative IPC: 0.374646 (Simulation time: 0 hr 13 min 19 sec) 
Heartbeat CPU 0 instructions: 130000000 cycles: 229299963 heartbeat IPC: 0.334721 cumulative IPC: 0.369142 (Simulation time: 0 hr 14 min 47 sec) 
Heartbeat CPU 0 instructions: 140000003 cycles: 260689308 heartbeat IPC: 0.31858 cumulative IPC: 0.362745 (Simulation time: 0 hr 16 min 17 sec) 
Heartbeat CPU 0 instructions: 150000000 cycles: 290548354 heartbeat IPC: 0.334907 cumulative IPC: 0.359755 (Simulation time: 0 hr 17 min 44 sec) 
Simulation finished CPU 0 instructions: 100000003 cycles: 277967408 cumulative IPC: 0.359755 (Simulation time: 0 hr 17 min 44 sec) 

Simulation complete CPU 0 instructions: 100000003 cycles: 277967408 (Simulation time: 0 hr 17 min 44 sec) 


ChampSim completed all CPUs

Saving instructions large page distribution to /home/bsc/bsc018186/scratch/itp_asplos25_AE/dump/smt_srv207_ap_srv194_ap_1024i.pdst...
Saving data large page distribution to /home/bsc/bsc018186/scratch/itp_asplos25_AE/dump/smt_srv207_ap_srv194_ap_1024i.pdst...
=== Simulation ===
CPU 0 runs /gpfs/projects/bsc18/MN4/bsc18/romol/ChampSim/traces/qualcomm_srv/smt_srv207_ap_srv194_ap_1024i.champsimtrace.xz

Region of Interest Statistics

CPU 0 cumulative IPC: 0.359755 instructions: 100000003 cycles: 277967408
CPU 0 Branch Prediction Accuracy: 76.7047% MPKI: 44.3035 Average ROB Occupancy at Mispredict: 10.7948
Branch type MPKI
BRANCH_DIRECT_JUMP: 1.35564
BRANCH_INDIRECT: 23.884
BRANCH_CONDITIONAL: 11.9395
BRANCH_DIRECT_CALL: 2.55225
BRANCH_INDIRECT_CALL: 1.1185
BRANCH_RETURN: 3.45359

Instructions large pages: 0
Instructions small pages: 12690
Large page distribution for instructions: 0%

Data large pages: 0
Data small pages: 10928
Large page distribution for data: 0%

cpu0_L1I TOTAL       ACCESS:   39887719  HIT:   31070385  MISS:    8817334  iACCESS:   39887719  iHIT:   31070385  iMISS:    8817334  dACCESS:          0  dHIT:          0  dMISS:          0  itACCESS:          0  itHIT:          0  itMISS:          0  dtACCESS:          0  dtHIT:          0  dtMISS:          0
cpu0_L1I LOAD         ACCESS:   11327806  HIT:    8914838  MISS:    2412968  iACCESS:   11327806  iHIT:    8914838  iMISS:    2412968  dACCESS:          0  dHIT:          0  dMISS:          0  itACCESS:          0  itHIT:          0  itMISS:          0  dtACCESS:          0  dtHIT:          0  dtMISS:          0
cpu0_L1I RFO          ACCESS:          0  HIT:          0  MISS:          0  iACCESS:          0  iHIT:          0  iMISS:          0  dACCESS:          0  dHIT:          0  dMISS:          0  itACCESS:          0  itHIT:          0  itMISS:          0  dtACCESS:          0  dtHIT:          0  dtMISS:          0
cpu0_L1I PREFETCH     ACCESS:   28559913  HIT:   22155547  MISS:    6404366  iACCESS:   28559913  iHIT:   22155547  iMISS:    6404366  dACCESS:          0  dHIT:          0  dMISS:          0  itACCESS:          0  itHIT:          0  itMISS:          0  dtACCESS:          0  dtHIT:          0  dtMISS:          0
cpu0_L1I WRITE        ACCESS:          0  HIT:          0  MISS:          0  iACCESS:          0  iHIT:          0  iMISS:          0  dACCESS:          0  dHIT:          0  dMISS:          0  itACCESS:          0  itHIT:          0  itMISS:          0  dtACCESS:          0  dtHIT:          0  dtMISS:          0
cpu0_L1I TRANSLATION  ACCESS:          0  HIT:          0  MISS:          0  iACCESS:          0  iHIT:          0  iMISS:          0  dACCESS:          0  dHIT:          0  dMISS:          0  itACCESS:          0  itHIT:          0  itMISS:          0  dtACCESS:          0  dtHIT:          0  dtMISS:          0
cpu0_L1I PREFETCH  REQUESTED:   30898402  ISSUED:   30896734  CROSSED:          0  USEFUL:    2076680  USELESS:     771316
cpu0_L1I AVERAGE iMISS LATENCY: 24.4083 cycles
cpu0_L1I AVERAGE dMISS LATENCY: 0 cycles
cpu0_L1I AVERAGE itMISS LATENCY: 0 cycles
cpu0_L1I AVERAGE dtMISS LATENCY: 0 cycles
cpu0_L1I PAGE CROSSINGS (TLB HIT):         0 
cpu0_L1I PAGE CROSSINGS (TLB MISS):         0 
cpu0_L1I AVERAGE MISS LATENCY: 24.4083 cycles
cpu0_ITLB TOTAL       ACCESS:   33573160  HIT:   31391597  MISS:    2181563  iACCESS:   33573160  iHIT:   31391597  iMISS:    2181563  dACCESS:          0  dHIT:          0  dMISS:          0  itACCESS:          0  itHIT:          0  itMISS:          0  dtACCESS:          0  dtHIT:          0  dtMISS:          0
cpu0_ITLB LOAD         ACCESS:   33573160  HIT:   31391597  MISS:    2181563  iACCESS:   33573160  iHIT:   31391597  iMISS:    2181563  dACCESS:          0  dHIT:          0  dMISS:          0  itACCESS:          0  itHIT:          0  itMISS:          0  dtACCESS:          0  dtHIT:          0  dtMISS:          0
cpu0_ITLB RFO          ACCESS:          0  HIT:          0  MISS:          0  iACCESS:          0  iHIT:          0  iMISS:          0  dACCESS:          0  dHIT:          0  dMISS:          0  itACCESS:          0  itHIT:          0  itMISS:          0  dtACCESS:          0  dtHIT:          0  dtMISS:          0
cpu0_ITLB PREFETCH     ACCESS:          0  HIT:          0  MISS:          0  iACCESS:          0  iHIT:          0  iMISS:          0  dACCESS:          0  dHIT:          0  dMISS:          0  itACCESS:          0  itHIT:          0  itMISS:          0  dtACCESS:          0  dtHIT:          0  dtMISS:          0
cpu0_ITLB WRITE        ACCESS:          0  HIT:          0  MISS:          0  iACCESS:          0  iHIT:          0  iMISS:          0  dACCESS:          0  dHIT:          0  dMISS:          0  itACCESS:          0  itHIT:          0  itMISS:          0  dtACCESS:          0  dtHIT:          0  dtMISS:          0
cpu0_ITLB TRANSLATION  ACCESS:          0  HIT:          0  MISS:          0  iACCESS:          0  iHIT:          0  iMISS:          0  dACCESS:          0  dHIT:          0  dMISS:          0  itACCESS:          0  itHIT:          0  itMISS:          0  dtACCESS:          0  dtHIT:          0  dtMISS:          0
cpu0_ITLB PREFETCH  REQUESTED:          0  ISSUED:          0  CROSSED:          0  USEFUL:     384768  USELESS:      83892
cpu0_ITLB AVERAGE iMISS LATENCY: 8.32405 cycles
cpu0_ITLB AVERAGE dMISS LATENCY: 0 cycles
cpu0_ITLB AVERAGE itMISS LATENCY: 0 cycles
cpu0_ITLB AVERAGE dtMISS LATENCY: 0 cycles
cpu0_ITLB PAGE CROSSINGS (TLB HIT):         0 
cpu0_ITLB PAGE CROSSINGS (TLB MISS):         0 
cpu0_ITLB AVERAGE MISS LATENCY: 8.32405 cycles
cpu0_DTLB TOTAL       ACCESS:   30677300  HIT:   25576323  MISS:    5100977  iACCESS:          0  iHIT:          0  iMISS:          0  dACCESS:   30677300  dHIT:   25576323  dMISS:    5100977  itACCESS:          0  itHIT:          0  itMISS:          0  dtACCESS:          0  dtHIT:          0  dtMISS:          0
cpu0_DTLB LOAD         ACCESS:   30677300  HIT:   25576323  MISS:    5100977  iACCESS:          0  iHIT:          0  iMISS:          0  dACCESS:   30677300  dHIT:   25576323  dMISS:    5100977  itACCESS:          0  itHIT:          0  itMISS:          0  dtACCESS:          0  dtHIT:          0  dtMISS:          0
cpu0_DTLB RFO          ACCESS:          0  HIT:          0  MISS:          0  iACCESS:          0  iHIT:          0  iMISS:          0  dACCESS:          0  dHIT:          0  dMISS:          0  itACCESS:          0  itHIT:          0  itMISS:          0  dtACCESS:          0  dtHIT:          0  dtMISS:          0
cpu0_DTLB PREFETCH     ACCESS:          0  HIT:          0  MISS:          0  iACCESS:          0  iHIT:          0  iMISS:          0  dACCESS:          0  dHIT:          0  dMISS:          0  itACCESS:          0  itHIT:          0  itMISS:          0  dtACCESS:          0  dtHIT:          0  dtMISS:          0
cpu0_DTLB WRITE        ACCESS:          0  HIT:          0  MISS:          0  iACCESS:          0  iHIT:          0  iMISS:          0  dACCESS:          0  dHIT:          0  dMISS:          0  itACCESS:          0  itHIT:          0  itMISS:          0  dtACCESS:          0  dtHIT:          0  dtMISS:          0
cpu0_DTLB TRANSLATION  ACCESS:          0  HIT:          0  MISS:          0  iACCESS:          0  iHIT:          0  iMISS:          0  dACCESS:          0  dHIT:          0  dMISS:          0  itACCESS:          0  itHIT:          0  itMISS:          0  dtACCESS:          0  dtHIT:          0  dtMISS:          0
cpu0_DTLB PREFETCH  REQUESTED:          0  ISSUED:          0  CROSSED:          0  USEFUL:          0  USELESS:          0
cpu0_DTLB AVERAGE iMISS LATENCY: 0 cycles
cpu0_DTLB AVERAGE dMISS LATENCY: 13.322 cycles
cpu0_DTLB AVERAGE itMISS LATENCY: 0 cycles
cpu0_DTLB AVERAGE dtMISS LATENCY: 0 cycles
cpu0_DTLB PAGE CROSSINGS (TLB HIT):         0 
cpu0_DTLB PAGE CROSSINGS (TLB MISS):         0 
cpu0_DTLB AVERAGE MISS LATENCY: 13.322 cycles
cpu0_STLB TOTAL       ACCESS:    3302761  HIT:    2937354  MISS:     365407  iACCESS:     468663  iHIT:     356106  iMISS:     112557  dACCESS:    2834098  dHIT:    2581248  dMISS:     252850  itACCESS:          0  itHIT:          0  itMISS:          0  dtACCESS:          0  dtHIT:          0  dtMISS:          0
cpu0_STLB LOAD         ACCESS:    3302761  HIT:    2937354  MISS:     365407  iACCESS:     468663  iHIT:     356106  iMISS:     112557  dACCESS:    2834098  dHIT:    2581248  dMISS:     252850  itACCESS:          0  itHIT:          0  itMISS:          0  dtACCESS:          0  dtHIT:          0  dtMISS:          0
cpu0_STLB RFO          ACCESS:          0  HIT:          0  MISS:          0  iACCESS:          0  iHIT:          0  iMISS:          0  dACCESS:          0  dHIT:          0  dMISS:          0  itACCESS:          0  itHIT:          0  itMISS:          0  dtACCESS:          0  dtHIT:          0  dtMISS:          0
cpu0_STLB PREFETCH     ACCESS:          0  HIT:          0  MISS:          0  iACCESS:          0  iHIT:          0  iMISS:          0  dACCESS:          0  dHIT:          0  dMISS:          0  itACCESS:          0  itHIT:          0  itMISS:          0  dtACCESS:          0  dtHIT:          0  dtMISS:          0
cpu0_STLB WRITE        ACCESS:          0  HIT:          0  MISS:          0  iACCESS:          0  iHIT:          0  iMISS:          0  dACCESS:          0  dHIT:          0  dMISS:          0  itACCESS:          0  itHIT:          0  itMISS:          0  dtACCESS:          0  dtHIT:          0  dtMISS:          0
cpu0_STLB TRANSLATION  ACCESS:          0  HIT:          0  MISS:          0  iACCESS:          0  iHIT:          0  iMISS:          0  dACCESS:          0  dHIT:          0  dMISS:          0  itACCESS:          0  itHIT:          0  itMISS:          0  dtACCESS:          0  dtHIT:          0  dtMISS:          0
cpu0_STLB PREFETCH  REQUESTED:          0  ISSUED:          0  CROSSED:          0  USEFUL:          0  USELESS:          0
cpu0_STLB AVERAGE iMISS LATENCY: 39.452 cycles
cpu0_STLB AVERAGE dMISS LATENCY: 123.298 cycles
cpu0_STLB AVERAGE itMISS LATENCY: 0 cycles
cpu0_STLB AVERAGE dtMISS LATENCY: 0 cycles
cpu0_STLB PAGE CROSSINGS (TLB HIT):         0 
cpu0_STLB PAGE CROSSINGS (TLB MISS):         0 
cpu0_STLB AVERAGE MISS LATENCY: 162.75 cycles
cpu0_L1D TOTAL       ACCESS:   48919890  HIT:   40192439  MISS:    8727451  iACCESS:          0  iHIT:          0  iMISS:          0  dACCESS:   48388069  dHIT:   40162398  dMISS:    8225671  itACCESS:     126608  itHIT:      12649  itMISS:     113959  dtACCESS:     405213  dtHIT:      17392  dtMISS:     387821
cpu0_L1D LOAD         ACCESS:   22903781  HIT:   18554795  MISS:    4348986  iACCESS:          0  iHIT:          0  iMISS:          0  dACCESS:   22903781  dHIT:   18554795  dMISS:    4348986  itACCESS:          0  itHIT:          0  itMISS:          0  dtACCESS:          0  dtHIT:          0  dtMISS:          0
cpu0_L1D RFO          ACCESS:          0  HIT:          0  MISS:          0  iACCESS:          0  iHIT:          0  iMISS:          0  dACCESS:          0  dHIT:          0  dMISS:          0  itACCESS:          0  itHIT:          0  itMISS:          0  dtACCESS:          0  dtHIT:          0  dtMISS:          0
cpu0_L1D PREFETCH     ACCESS:   15449875  HIT:   12224371  MISS:    3225504  iACCESS:          0  iHIT:          0  iMISS:          0  dACCESS:   15449875  dHIT:   12224371  dMISS:    3225504  itACCESS:          0  itHIT:          0  itMISS:          0  dtACCESS:          0  dtHIT:          0  dtMISS:          0
cpu0_L1D WRITE        ACCESS:   10034413  HIT:    9383232  MISS:     651181  iACCESS:          0  iHIT:          0  iMISS:          0  dACCESS:   10034413  dHIT:    9383232  dMISS:     651181  itACCESS:          0  itHIT:          0  itMISS:          0  dtACCESS:          0  dtHIT:          0  dtMISS:          0
cpu0_L1D TRANSLATION  ACCESS:     531821  HIT:      30041  MISS:     501780  iACCESS:          0  iHIT:          0  iMISS:          0  dACCESS:          0  dHIT:          0  dMISS:          0  itACCESS:     126608  itHIT:      12649  itMISS:     113959  dtACCESS:     405213  dtHIT:      17392  dtMISS:     387821
cpu0_L1D PREFETCH  REQUESTED:   22903781  ISSUED:   19256770  CROSSED:          0  USEFUL:     351129  USELESS:    1012566
cpu0_L1D AVERAGE iMISS LATENCY: 0 cycles
cpu0_L1D AVERAGE dMISS LATENCY: 36.6728 cycles
cpu0_L1D AVERAGE itMISS LATENCY: 1.53047 cycles
cpu0_L1D AVERAGE dtMISS LATENCY: 4.67256 cycles
cpu0_L1D PAGE CROSSINGS (TLB HIT):         0 
cpu0_L1D PAGE CROSSINGS (TLB MISS):         0 
cpu0_L1D AVERAGE MISS LATENCY: 42.8758 cycles
cpu0_L2C TOTAL       ACCESS:    9584546  HIT:    1895050  MISS:    7689496  iACCESS:    3641353  iHIT:     723674  iMISS:    2917679  dACCESS:    5473569  dHIT:     999101  dMISS:    4474468  itACCESS:     113574  itHIT:      36621  itMISS:      76953  dtACCESS:     356050  dtHIT:     135654  dtMISS:     220396
cpu0_L2C LOAD         ACCESS:    3176589  HIT:     622931  MISS:    2553658  iACCESS:     821513  iHIT:     106797  iMISS:     714716  dACCESS:    2355076  dHIT:     516134  dMISS:    1838942  itACCESS:          0  itHIT:          0  itMISS:          0  dtACCESS:          0  dtHIT:          0  dtMISS:          0
cpu0_L2C RFO          ACCESS:     247449  HIT:      40812  MISS:     206637  iACCESS:          0  iHIT:          0  iMISS:          0  dACCESS:     247449  dHIT:      40812  dMISS:     206637  itACCESS:          0  itHIT:          0  itMISS:          0  dtACCESS:          0  dtHIT:          0  dtMISS:          0
cpu0_L2C PREFETCH     ACCESS:    5352377  HIT:     955125  MISS:    4397252  iACCESS:    2819840  iHIT:     616877  iMISS:    2202963  dACCESS:    2532537  dHIT:     338248  dMISS:    2194289  itACCESS:          0  itHIT:          0  itMISS:          0  dtACCESS:          0  dtHIT:          0  dtMISS:          0
cpu0_L2C WRITE        ACCESS:     338507  HIT:     103907  MISS:     234600  iACCESS:          0  iHIT:          0  iMISS:          0  dACCESS:     338507  dHIT:     103907  dMISS:     234600  itACCESS:          0  itHIT:          0  itMISS:          0  dtACCESS:          0  dtHIT:          0  dtMISS:          0
cpu0_L2C TRANSLATION  ACCESS:     469624  HIT:     172275  MISS:     297349  iACCESS:          0  iHIT:          0  iMISS:          0  dACCESS:          0  dHIT:          0  dMISS:          0  itACCESS:     113574  itHIT:      36621  itMISS:      76953  dtACCESS:     356050  dtHIT:     135654  dtMISS:     220396
cpu0_L2C PREFETCH  REQUESTED:    1380975  ISSUED:    1380975  CROSSED:          0  USEFUL:     360722  USELESS:     459914
cpu0_L2C AVERAGE iMISS LATENCY: 23.9711 cycles
cpu0_L2C AVERAGE dMISS LATENCY: 47.6227 cycles
cpu0_L2C AVERAGE itMISS LATENCY: 1.59373 cycles
cpu0_L2C AVERAGE dtMISS LATENCY: 4.85579 cycles
cpu0_L2C PAGE CROSSINGS (TLB HIT):         0 
cpu0_L2C PAGE CROSSINGS (TLB MISS):         0 
cpu0_L2C AVERAGE MISS LATENCY: 78.0432 cycles
LLC TOTAL       ACCESS:    7528350  HIT:    4875700  MISS:    2652650  iACCESS:    2841982  iHIT:    2027219  iMISS:     814763  dACCESS:    4389019  dHIT:    2782188  dMISS:    1606831  itACCESS:      76953  itHIT:      17063  itMISS:      59890  dtACCESS:     220396  dtHIT:      49230  dtMISS:     171166
LLC LOAD         ACCESS:    2545229  HIT:    1885021  MISS:     660208  iACCESS:     713523  iHIT:     542441  iMISS:     171082  dACCESS:    1831706  dHIT:    1342580  dMISS:     489126  itACCESS:          0  itHIT:          0  itMISS:          0  dtACCESS:          0  dtHIT:          0  dtMISS:          0
LLC RFO          ACCESS:     206622  HIT:     111559  MISS:      95063  iACCESS:          0  iHIT:          0  iMISS:          0  dACCESS:     206622  dHIT:     111559  dMISS:      95063  itACCESS:          0  itHIT:          0  itMISS:          0  dtACCESS:          0  dtHIT:          0  dtMISS:          0
LLC PREFETCH     ACCESS:    4214818  HIT:    2554050  MISS:    1660768  iACCESS:    2128459  iHIT:    1484778  iMISS:     643681  dACCESS:    2086359  dHIT:    1069272  dMISS:    1017087  itACCESS:          0  itHIT:          0  itMISS:          0  dtACCESS:          0  dtHIT:          0  dtMISS:          0
LLC WRITE        ACCESS:     264332  HIT:     258777  MISS:       5555  iACCESS:          0  iHIT:          0  iMISS:          0  dACCESS:     264332  dHIT:     258777  dMISS:       5555  itACCESS:          0  itHIT:          0  itMISS:          0  dtACCESS:          0  dtHIT:          0  dtMISS:          0
LLC TRANSLATION  ACCESS:     297349  HIT:      66293  MISS:     231056  iACCESS:          0  iHIT:          0  iMISS:          0  dACCESS:          0  dHIT:          0  dMISS:          0  itACCESS:      76953  itHIT:      17063  itMISS:      59890  dtACCESS:     220396  dtHIT:      49230  dtMISS:     171166
LLC PREFETCH  REQUESTED:          0  ISSUED:          0  CROSSED:          0  USEFUL:          0  USELESS:          0
LLC AVERAGE iMISS LATENCY: 48.6837 cycles
LLC AVERAGE dMISS LATENCY: 108.611 cycles
LLC AVERAGE itMISS LATENCY: 4.04805 cycles
LLC AVERAGE dtMISS LATENCY: 12.4394 cycles
LLC PAGE CROSSINGS (TLB HIT):         0 
LLC PAGE CROSSINGS (TLB MISS):         0 
LLC AVERAGE MISS LATENCY: 173.783 cycles

PageTableWalker TOTAL       ACCESS:     175604  
PageTableWalker AVERAGE LATENCY: 6.02705 cycles
PageTableWalker TOTAL LATENCY: 1058374 cycles

DRAM Statistics
Channel 0
 RQ ROW_BUFFER_HIT:     566399
  ROW_BUFFER_MISS:    2063517
 AVG DBUS CONGESTED CYCLE:    3.65502
 WQ ROW_BUFFER_HIT:      64701
  ROW_BUFFER_MISS:      63003  FULL:          0

