last_page:0x200000000000000
VMEM_RES_CAP:0x100000
PAGE_SIZE:4096
LOG2_PAGE_SIZE:12
LOG2_PAGE_TABLE_SIZE:9
page_table_levels:5
WARNING: physical memory size is smaller than virtual memory size
FDiP enabled with aggresivity 16

*** ChampSim Multicore Out-of-Order Simulator ***

Warmup Instructions: 50000000
Simulation Instructions: 100000000
Number of CPUs: 1
Small page size: 4096
Large page size: 2097152

CPU 0 Bimodal branch predictor
Basic BTB sets: 1024 ways: 8 indirect buffer size: 4096 RAS size: 64
Instruction page size distrubution: 0
Loading instruction page size distribution from /home/bsc/bsc018186/scratch/itp_asplos25_AE/dump/smt_srv85_ap_srv727_ap_1024i.pdst
Data page size distrubution: 0
Loading data page size distribution from /home/bsc/bsc018186/scratch/itp_asplos25_AE/dump/smt_srv85_ap_srv727_ap_1024i.pdst
cpu0_L2C IP-based stride prefetcher
cpu0_L2C is using PTP replacement policy:
	TLB_STRESS_THRESHOLD:0
	PTE_EVICTION_RATIO:0
cpu0_L1D next line prefetcher
CHiRPing...
cpu0_L1I next line prefetcher
Off-chip DRAM Size: 4 GiB Channels: 1 Width: 64-bit Data Rate: 3200 MT/s
Heartbeat CPU 0 instructions: 10000002 cycles: 2500716 heartbeat IPC: 3.99886 cumulative IPC: 3.99886 (Simulation time: 0 hr 0 min 36 sec) 
Heartbeat CPU 0 instructions: 20000001 cycles: 5000934 heartbeat IPC: 3.99966 cumulative IPC: 3.99926 (Simulation time: 0 hr 1 min 14 sec) 
Heartbeat CPU 0 instructions: 30000002 cycles: 7501611 heartbeat IPC: 3.99892 cumulative IPC: 3.99915 (Simulation time: 0 hr 1 min 52 sec) 
Heartbeat CPU 0 instructions: 40000001 cycles: 10001861 heartbeat IPC: 3.9996 cumulative IPC: 3.99926 (Simulation time: 0 hr 2 min 31 sec) 
Heartbeat CPU 0 instructions: 50000000 cycles: 12502041 heartbeat IPC: 3.99972 cumulative IPC: 3.99935 (Simulation time: 0 hr 3 min 10 sec) 
Warmup finished CPU 0 instructions: 50000000 cycles: 12502042 cumulative IPC: 3.99935 (Simulation time: 0 hr 3 min 10 sec) 

Warmup complete CPU 0 instructions: 50000000 cycles: 12502042 (Simulation time: 0 hr 3 min 10 sec) 

Heartbeat CPU 0 instructions: 60000004 cycles: 42430186 heartbeat IPC: 0.334134 cumulative IPC: 0.334134 (Simulation time: 0 hr 4 min 31 sec) 
Heartbeat CPU 0 instructions: 70000004 cycles: 73011351 heartbeat IPC: 0.326999 cumulative IPC: 0.330528 (Simulation time: 0 hr 5 min 56 sec) 
Heartbeat CPU 0 instructions: 80000003 cycles: 103778661 heartbeat IPC: 0.325021 cumulative IPC: 0.328672 (Simulation time: 0 hr 7 min 23 sec) 
Heartbeat CPU 0 instructions: 90000002 cycles: 134560864 heartbeat IPC: 0.324864 cumulative IPC: 0.327711 (Simulation time: 0 hr 8 min 46 sec) 
Heartbeat CPU 0 instructions: 100000000 cycles: 165587403 heartbeat IPC: 0.322305 cumulative IPC: 0.326616 (Simulation time: 0 hr 10 min 9 sec) 
Heartbeat CPU 0 instructions: 110000000 cycles: 197186084 heartbeat IPC: 0.316469 cumulative IPC: 0.32488 (Simulation time: 0 hr 11 min 33 sec) 
Heartbeat CPU 0 instructions: 120000002 cycles: 227846245 heartbeat IPC: 0.326157 cumulative IPC: 0.325062 (Simulation time: 0 hr 12 min 56 sec) 
Heartbeat CPU 0 instructions: 130000000 cycles: 259091692 heartbeat IPC: 0.320047 cumulative IPC: 0.324426 (Simulation time: 0 hr 14 min 19 sec) 
Heartbeat CPU 0 instructions: 140000003 cycles: 290218919 heartbeat IPC: 0.321263 cumulative IPC: 0.324072 (Simulation time: 0 hr 15 min 43 sec) 
Heartbeat CPU 0 instructions: 150000002 cycles: 320910564 heartbeat IPC: 0.325822 cumulative IPC: 0.324246 (Simulation time: 0 hr 17 min 6 sec) 
Simulation finished CPU 0 instructions: 100000002 cycles: 308408523 cumulative IPC: 0.324246 (Simulation time: 0 hr 17 min 6 sec) 

Simulation complete CPU 0 instructions: 100000002 cycles: 308408523 (Simulation time: 0 hr 17 min 6 sec) 


ChampSim completed all CPUs

Saving instructions large page distribution to /home/bsc/bsc018186/scratch/itp_asplos25_AE/dump/smt_srv85_ap_srv727_ap_1024i.pdst...
Saving data large page distribution to /home/bsc/bsc018186/scratch/itp_asplos25_AE/dump/smt_srv85_ap_srv727_ap_1024i.pdst...
=== Simulation ===
CPU 0 runs /gpfs/projects/bsc18/MN4/bsc18/romol/ChampSim/traces/qualcomm_srv/smt_srv85_ap_srv727_ap_1024i.champsimtrace.xz

Region of Interest Statistics

CPU 0 cumulative IPC: 0.324246 instructions: 100000002 cycles: 308408523
CPU 0 Branch Prediction Accuracy: 74.8933% MPKI: 45.2026 Average ROB Occupancy at Mispredict: 10.7729
Branch type MPKI
BRANCH_DIRECT_JUMP: 1.40749
BRANCH_INDIRECT: 23.4058
BRANCH_CONDITIONAL: 13.133
BRANCH_DIRECT_CALL: 2.6974
BRANCH_INDIRECT_CALL: 1.0062
BRANCH_RETURN: 3.55269

Instructions large pages: 0
Instructions small pages: 9809
Large page distribution for instructions: 0%

Data large pages: 0
Data small pages: 8446
Large page distribution for data: 0%

cpu0_L1I TOTAL       ACCESS:   39206283  HIT:   30484490  MISS:    8721793  iACCESS:   39206283  iHIT:   30484490  iMISS:    8721793  dACCESS:          0  dHIT:          0  dMISS:          0  itACCESS:          0  itHIT:          0  itMISS:          0  dtACCESS:          0  dtHIT:          0  dtMISS:          0
cpu0_L1I LOAD         ACCESS:   11717974  HIT:    9348998  MISS:    2368976  iACCESS:   11717974  iHIT:    9348998  iMISS:    2368976  dACCESS:          0  dHIT:          0  dMISS:          0  itACCESS:          0  itHIT:          0  itMISS:          0  dtACCESS:          0  dtHIT:          0  dtMISS:          0
cpu0_L1I RFO          ACCESS:          0  HIT:          0  MISS:          0  iACCESS:          0  iHIT:          0  iMISS:          0  dACCESS:          0  dHIT:          0  dMISS:          0  itACCESS:          0  itHIT:          0  itMISS:          0  dtACCESS:          0  dtHIT:          0  dtMISS:          0
cpu0_L1I PREFETCH     ACCESS:   27488309  HIT:   21135492  MISS:    6352817  iACCESS:   27488309  iHIT:   21135492  iMISS:    6352817  dACCESS:          0  dHIT:          0  dMISS:          0  itACCESS:          0  itHIT:          0  itMISS:          0  dtACCESS:          0  dtHIT:          0  dtMISS:          0
cpu0_L1I WRITE        ACCESS:          0  HIT:          0  MISS:          0  iACCESS:          0  iHIT:          0  iMISS:          0  dACCESS:          0  dHIT:          0  dMISS:          0  itACCESS:          0  itHIT:          0  itMISS:          0  dtACCESS:          0  dtHIT:          0  dtMISS:          0
cpu0_L1I TRANSLATION  ACCESS:          0  HIT:          0  MISS:          0  iACCESS:          0  iHIT:          0  iMISS:          0  dACCESS:          0  dHIT:          0  dMISS:          0  itACCESS:          0  itHIT:          0  itMISS:          0  dtACCESS:          0  dtHIT:          0  dtMISS:          0
cpu0_L1I PREFETCH  REQUESTED:   30279763  ISSUED:   30279733  CROSSED:          0  USEFUL:    2212760  USELESS:     768760
cpu0_L1I AVERAGE iMISS LATENCY: 25.0644 cycles
cpu0_L1I AVERAGE dMISS LATENCY: 0 cycles
cpu0_L1I AVERAGE itMISS LATENCY: 0 cycles
cpu0_L1I AVERAGE dtMISS LATENCY: 0 cycles
cpu0_L1I PAGE CROSSINGS (TLB HIT):         0 
cpu0_L1I PAGE CROSSINGS (TLB MISS):         0 
cpu0_L1I AVERAGE MISS LATENCY: 25.0644 cycles
cpu0_ITLB TOTAL       ACCESS:   33221859  HIT:   30975853  MISS:    2246006  iACCESS:   33221859  iHIT:   30975853  iMISS:    2246006  dACCESS:          0  dHIT:          0  dMISS:          0  itACCESS:          0  itHIT:          0  itMISS:          0  dtACCESS:          0  dtHIT:          0  dtMISS:          0
cpu0_ITLB LOAD         ACCESS:   33221859  HIT:   30975853  MISS:    2246006  iACCESS:   33221859  iHIT:   30975853  iMISS:    2246006  dACCESS:          0  dHIT:          0  dMISS:          0  itACCESS:          0  itHIT:          0  itMISS:          0  dtACCESS:          0  dtHIT:          0  dtMISS:          0
cpu0_ITLB RFO          ACCESS:          0  HIT:          0  MISS:          0  iACCESS:          0  iHIT:          0  iMISS:          0  dACCESS:          0  dHIT:          0  dMISS:          0  itACCESS:          0  itHIT:          0  itMISS:          0  dtACCESS:          0  dtHIT:          0  dtMISS:          0
cpu0_ITLB PREFETCH     ACCESS:          0  HIT:          0  MISS:          0  iACCESS:          0  iHIT:          0  iMISS:          0  dACCESS:          0  dHIT:          0  dMISS:          0  itACCESS:          0  itHIT:          0  itMISS:          0  dtACCESS:          0  dtHIT:          0  dtMISS:          0
cpu0_ITLB WRITE        ACCESS:          0  HIT:          0  MISS:          0  iACCESS:          0  iHIT:          0  iMISS:          0  dACCESS:          0  dHIT:          0  dMISS:          0  itACCESS:          0  itHIT:          0  itMISS:          0  dtACCESS:          0  dtHIT:          0  dtMISS:          0
cpu0_ITLB TRANSLATION  ACCESS:          0  HIT:          0  MISS:          0  iACCESS:          0  iHIT:          0  iMISS:          0  dACCESS:          0  dHIT:          0  dMISS:          0  itACCESS:          0  itHIT:          0  itMISS:          0  dtACCESS:          0  dtHIT:          0  dtMISS:          0
cpu0_ITLB PREFETCH  REQUESTED:          0  ISSUED:          0  CROSSED:          0  USEFUL:     391096  USELESS:      80667
cpu0_ITLB AVERAGE iMISS LATENCY: 10.5987 cycles
cpu0_ITLB AVERAGE dMISS LATENCY: 0 cycles
cpu0_ITLB AVERAGE itMISS LATENCY: 0 cycles
cpu0_ITLB AVERAGE dtMISS LATENCY: 0 cycles
cpu0_ITLB PAGE CROSSINGS (TLB HIT):         0 
cpu0_ITLB PAGE CROSSINGS (TLB MISS):         0 
cpu0_ITLB AVERAGE MISS LATENCY: 10.5987 cycles
cpu0_DTLB TOTAL       ACCESS:   28877745  HIT:   25273337  MISS:    3604408  iACCESS:          0  iHIT:          0  iMISS:          0  dACCESS:   28877745  dHIT:   25273337  dMISS:    3604408  itACCESS:          0  itHIT:          0  itMISS:          0  dtACCESS:          0  dtHIT:          0  dtMISS:          0
cpu0_DTLB LOAD         ACCESS:   28877745  HIT:   25273337  MISS:    3604408  iACCESS:          0  iHIT:          0  iMISS:          0  dACCESS:   28877745  dHIT:   25273337  dMISS:    3604408  itACCESS:          0  itHIT:          0  itMISS:          0  dtACCESS:          0  dtHIT:          0  dtMISS:          0
cpu0_DTLB RFO          ACCESS:          0  HIT:          0  MISS:          0  iACCESS:          0  iHIT:          0  iMISS:          0  dACCESS:          0  dHIT:          0  dMISS:          0  itACCESS:          0  itHIT:          0  itMISS:          0  dtACCESS:          0  dtHIT:          0  dtMISS:          0
cpu0_DTLB PREFETCH     ACCESS:          0  HIT:          0  MISS:          0  iACCESS:          0  iHIT:          0  iMISS:          0  dACCESS:          0  dHIT:          0  dMISS:          0  itACCESS:          0  itHIT:          0  itMISS:          0  dtACCESS:          0  dtHIT:          0  dtMISS:          0
cpu0_DTLB WRITE        ACCESS:          0  HIT:          0  MISS:          0  iACCESS:          0  iHIT:          0  iMISS:          0  dACCESS:          0  dHIT:          0  dMISS:          0  itACCESS:          0  itHIT:          0  itMISS:          0  dtACCESS:          0  dtHIT:          0  dtMISS:          0
cpu0_DTLB TRANSLATION  ACCESS:          0  HIT:          0  MISS:          0  iACCESS:          0  iHIT:          0  iMISS:          0  dACCESS:          0  dHIT:          0  dMISS:          0  itACCESS:          0  itHIT:          0  itMISS:          0  dtACCESS:          0  dtHIT:          0  dtMISS:          0
cpu0_DTLB PREFETCH  REQUESTED:          0  ISSUED:          0  CROSSED:          0  USEFUL:          0  USELESS:          0
cpu0_DTLB AVERAGE iMISS LATENCY: 0 cycles
cpu0_DTLB AVERAGE dMISS LATENCY: 25.7671 cycles
cpu0_DTLB AVERAGE itMISS LATENCY: 0 cycles
cpu0_DTLB AVERAGE dtMISS LATENCY: 0 cycles
cpu0_DTLB PAGE CROSSINGS (TLB HIT):         0 
cpu0_DTLB PAGE CROSSINGS (TLB MISS):         0 
cpu0_DTLB AVERAGE MISS LATENCY: 25.7671 cycles
cpu0_STLB TOTAL       ACCESS:    2595847  HIT:    2204382  MISS:     391465  iACCESS:     471769  iHIT:     352700  iMISS:     119069  dACCESS:    2124078  dHIT:    1851682  dMISS:     272396  itACCESS:          0  itHIT:          0  itMISS:          0  dtACCESS:          0  dtHIT:          0  dtMISS:          0
cpu0_STLB LOAD         ACCESS:    2595847  HIT:    2204382  MISS:     391465  iACCESS:     471769  iHIT:     352700  iMISS:     119069  dACCESS:    2124078  dHIT:    1851682  dMISS:     272396  itACCESS:          0  itHIT:          0  itMISS:          0  dtACCESS:          0  dtHIT:          0  dtMISS:          0
cpu0_STLB RFO          ACCESS:          0  HIT:          0  MISS:          0  iACCESS:          0  iHIT:          0  iMISS:          0  dACCESS:          0  dHIT:          0  dMISS:          0  itACCESS:          0  itHIT:          0  itMISS:          0  dtACCESS:          0  dtHIT:          0  dtMISS:          0
cpu0_STLB PREFETCH     ACCESS:          0  HIT:          0  MISS:          0  iACCESS:          0  iHIT:          0  iMISS:          0  dACCESS:          0  dHIT:          0  dMISS:          0  itACCESS:          0  itHIT:          0  itMISS:          0  dtACCESS:          0  dtHIT:          0  dtMISS:          0
cpu0_STLB WRITE        ACCESS:          0  HIT:          0  MISS:          0  iACCESS:          0  iHIT:          0  iMISS:          0  dACCESS:          0  dHIT:          0  dMISS:          0  itACCESS:          0  itHIT:          0  itMISS:          0  dtACCESS:          0  dtHIT:          0  dtMISS:          0
cpu0_STLB TRANSLATION  ACCESS:          0  HIT:          0  MISS:          0  iACCESS:          0  iHIT:          0  iMISS:          0  dACCESS:          0  dHIT:          0  dMISS:          0  itACCESS:          0  itHIT:          0  itMISS:          0  dtACCESS:          0  dtHIT:          0  dtMISS:          0
cpu0_STLB PREFETCH  REQUESTED:          0  ISSUED:          0  CROSSED:          0  USEFUL:          0  USELESS:          0
cpu0_STLB AVERAGE iMISS LATENCY: 51.1533 cycles
cpu0_STLB AVERAGE dMISS LATENCY: 193.559 cycles
cpu0_STLB AVERAGE itMISS LATENCY: 0 cycles
cpu0_STLB AVERAGE dtMISS LATENCY: 0 cycles
cpu0_STLB PAGE CROSSINGS (TLB HIT):         0 
cpu0_STLB PAGE CROSSINGS (TLB MISS):         0 
cpu0_STLB AVERAGE MISS LATENCY: 244.712 cycles
cpu0_L1D TOTAL       ACCESS:   45356040  HIT:   39244716  MISS:    6111324  iACCESS:          0  iHIT:          0  iMISS:          0  dACCESS:   44776220  dHIT:   39211295  dMISS:    5564925  itACCESS:     133040  itHIT:      14661  itMISS:     118379  dtACCESS:     446780  dtHIT:      18760  dtMISS:     428020
cpu0_L1D LOAD         ACCESS:   20445058  HIT:   17939950  MISS:    2505108  iACCESS:          0  iHIT:          0  iMISS:          0  dACCESS:   20445058  dHIT:   17939950  dMISS:    2505108  itACCESS:          0  itHIT:          0  itMISS:          0  dtACCESS:          0  dtHIT:          0  dtMISS:          0
cpu0_L1D RFO          ACCESS:          0  HIT:          0  MISS:          0  iACCESS:          0  iHIT:          0  iMISS:          0  dACCESS:          0  dHIT:          0  dMISS:          0  itACCESS:          0  itHIT:          0  itMISS:          0  dtACCESS:          0  dtHIT:          0  dtMISS:          0
cpu0_L1D PREFETCH     ACCESS:   14178747  HIT:   11710534  MISS:    2468213  iACCESS:          0  iHIT:          0  iMISS:          0  dACCESS:   14178747  dHIT:   11710534  dMISS:    2468213  itACCESS:          0  itHIT:          0  itMISS:          0  dtACCESS:          0  dtHIT:          0  dtMISS:          0
cpu0_L1D WRITE        ACCESS:   10152415  HIT:    9560811  MISS:     591604  iACCESS:          0  iHIT:          0  iMISS:          0  dACCESS:   10152415  dHIT:    9560811  dMISS:     591604  itACCESS:          0  itHIT:          0  itMISS:          0  dtACCESS:          0  dtHIT:          0  dtMISS:          0
cpu0_L1D TRANSLATION  ACCESS:     579820  HIT:      33421  MISS:     546399  iACCESS:          0  iHIT:          0  iMISS:          0  dACCESS:          0  dHIT:          0  dMISS:          0  itACCESS:     133040  itHIT:      14661  itMISS:     118379  dtACCESS:     446780  dtHIT:      18760  dtMISS:     428020
cpu0_L1D PREFETCH  REQUESTED:   20445058  ISSUED:   18549019  CROSSED:          0  USEFUL:     361131  USELESS:     941390
cpu0_L1D AVERAGE iMISS LATENCY: 0 cycles
cpu0_L1D AVERAGE dMISS LATENCY: 48.2556 cycles
cpu0_L1D AVERAGE itMISS LATENCY: 3.09612 cycles
cpu0_L1D AVERAGE dtMISS LATENCY: 11.6332 cycles
cpu0_L1D PAGE CROSSINGS (TLB HIT):         0 
cpu0_L1D PAGE CROSSINGS (TLB MISS):         0 
cpu0_L1D AVERAGE MISS LATENCY: 62.9849 cycles
cpu0_L2C TOTAL       ACCESS:    8690205  HIT:    4096816  MISS:    4593389  iACCESS:    3790690  iHIT:    2246271  iMISS:    1544419  dACCESS:    4393250  dHIT:    1785363  dMISS:    2607887  itACCESS:     117847  itHIT:      22032  itMISS:      95815  dtACCESS:     388418  dtHIT:      43150  dtMISS:     345268
cpu0_L2C LOAD         ACCESS:    2073269  HIT:     978309  MISS:    1094960  iACCESS:     846952  iHIT:     519921  iMISS:     327031  dACCESS:    1226317  dHIT:     458388  dMISS:     767929  itACCESS:          0  itHIT:          0  itMISS:          0  dtACCESS:          0  dtHIT:          0  dtMISS:          0
cpu0_L2C RFO          ACCESS:     216751  HIT:      79483  MISS:     137268  iACCESS:          0  iHIT:          0  iMISS:          0  dACCESS:     216751  dHIT:      79483  dMISS:     137268  itACCESS:          0  itHIT:          0  itMISS:          0  dtACCESS:          0  dtHIT:          0  dtMISS:          0
cpu0_L2C PREFETCH     ACCESS:    5546853  HIT:    2640728  MISS:    2906125  iACCESS:    2943738  iHIT:    1726350  iMISS:    1217388  dACCESS:    2603115  dHIT:     914378  dMISS:    1688737  itACCESS:          0  itHIT:          0  itMISS:          0  dtACCESS:          0  dtHIT:          0  dtMISS:          0
cpu0_L2C WRITE        ACCESS:     347067  HIT:     333114  MISS:      13953  iACCESS:          0  iHIT:          0  iMISS:          0  dACCESS:     347067  dHIT:     333114  dMISS:      13953  itACCESS:          0  itHIT:          0  itMISS:          0  dtACCESS:          0  dtHIT:          0  dtMISS:          0
cpu0_L2C TRANSLATION  ACCESS:     506265  HIT:      65182  MISS:     441083  iACCESS:          0  iHIT:          0  iMISS:          0  dACCESS:          0  dHIT:          0  dMISS:          0  itACCESS:     117847  itHIT:      22032  itMISS:      95815  dtACCESS:     388418  dtHIT:      43150  dtMISS:     345268
cpu0_L2C PREFETCH  REQUESTED:    1543581  ISSUED:    1543574  CROSSED:          0  USEFUL:     361006  USELESS:     333387
cpu0_L2C AVERAGE iMISS LATENCY: 40.6968 cycles
cpu0_L2C AVERAGE dMISS LATENCY: 79.9907 cycles
cpu0_L2C AVERAGE itMISS LATENCY: 3.86673 cycles
cpu0_L2C AVERAGE dtMISS LATENCY: 14.6366 cycles
cpu0_L2C PAGE CROSSINGS (TLB HIT):         0 
cpu0_L2C PAGE CROSSINGS (TLB MISS):         0 
cpu0_L2C AVERAGE MISS LATENCY: 139.191 cycles
LLC TOTAL       ACCESS:    4573602  HIT:    1367622  MISS:    3205980  iACCESS:    1451271  iHIT:     453735  iMISS:     997536  dACCESS:    2681248  dHIT:     872557  dMISS:    1808691  itACCESS:      95815  itHIT:       7297  itMISS:      88518  dtACCESS:     345268  dtHIT:      34033  dtMISS:     311235
LLC LOAD         ACCESS:    1087254  HIT:     348014  MISS:     739240  iACCESS:     325740  iHIT:     112714  iMISS:     213026  dACCESS:     761514  dHIT:     235300  dMISS:     526214  itACCESS:          0  itHIT:          0  itMISS:          0  dtACCESS:          0  dtHIT:          0  dtMISS:          0
LLC RFO          ACCESS:     137261  HIT:      42207  MISS:      95054  iACCESS:          0  iHIT:          0  iMISS:          0  dACCESS:     137261  dHIT:      42207  dMISS:      95054  itACCESS:          0  itHIT:          0  itMISS:          0  dtACCESS:          0  dtHIT:          0  dtMISS:          0
LLC PREFETCH     ACCESS:    2688752  HIT:     727035  MISS:    1961717  iACCESS:    1125531  iHIT:     341021  iMISS:     784510  dACCESS:    1563221  dHIT:     386014  dMISS:    1177207  itACCESS:          0  itHIT:          0  itMISS:          0  dtACCESS:          0  dtHIT:          0  dtMISS:          0
LLC WRITE        ACCESS:     219252  HIT:     209036  MISS:      10216  iACCESS:          0  iHIT:          0  iMISS:          0  dACCESS:     219252  dHIT:     209036  dMISS:      10216  itACCESS:          0  itHIT:          0  itMISS:          0  dtACCESS:          0  dtHIT:          0  dtMISS:          0
LLC TRANSLATION  ACCESS:     441083  HIT:      41330  MISS:     399753  iACCESS:          0  iHIT:          0  iMISS:          0  dACCESS:          0  dHIT:          0  dMISS:          0  itACCESS:      95815  itHIT:       7297  itMISS:      88518  dtACCESS:     345268  dtHIT:      34033  dtMISS:     311235
LLC PREFETCH  REQUESTED:          0  ISSUED:          0  CROSSED:          0  USEFUL:          0  USELESS:          0
LLC AVERAGE iMISS LATENCY: 49.3873 cycles
LLC AVERAGE dMISS LATENCY: 100.559 cycles
LLC AVERAGE itMISS LATENCY: 4.94738 cycles
LLC AVERAGE dtMISS LATENCY: 18.8409 cycles
LLC PAGE CROSSINGS (TLB HIT):         0 
LLC PAGE CROSSINGS (TLB MISS):         0 
LLC AVERAGE MISS LATENCY: 173.735 cycles

PageTableWalker TOTAL       ACCESS:     198526  
PageTableWalker AVERAGE LATENCY: 6.4187 cycles
PageTableWalker TOTAL LATENCY: 1274277 cycles

DRAM Statistics
Channel 0
 RQ ROW_BUFFER_HIT:     662733
  ROW_BUFFER_MISS:    2511133
 AVG DBUS CONGESTED CYCLE:    3.65249
 WQ ROW_BUFFER_HIT:      68859
  ROW_BUFFER_MISS:      59808  FULL:          0

