last_page:0x200000000000000
VMEM_RES_CAP:0x100000
PAGE_SIZE:4096
LOG2_PAGE_SIZE:12
LOG2_PAGE_TABLE_SIZE:9
page_table_levels:5
WARNING: physical memory size is smaller than virtual memory size
FDiP enabled with aggresivity 16

*** ChampSim Multicore Out-of-Order Simulator ***

Warmup Instructions: 50000000
Simulation Instructions: 100000000
Number of CPUs: 1
Small page size: 4096
Large page size: 2097152

CPU 0 Bimodal branch predictor
Basic BTB sets: 1024 ways: 8 indirect buffer size: 4096 RAS size: 64
Instruction page size distrubution: 0
Loading instruction page size distribution from /home/bsc/bsc018186/scratch/itp_asplos25_AE/dump/smt_srv207_ap_srv128_ap_1024i.pdst
Data page size distrubution: 0
Loading data page size distribution from /home/bsc/bsc018186/scratch/itp_asplos25_AE/dump/smt_srv207_ap_srv128_ap_1024i.pdst
cpu0_L2C IP-based stride prefetcher
cpu0_L1D next line prefetcher
cpu0_STLB using iTP with max lru@8
cpu0_STLB using iTP with instr@0 and data@2
Init sat counter with 3 bits (max:50).
cpu0_L1I next line prefetcher
Off-chip DRAM Size: 4 GiB Channels: 1 Width: 64-bit Data Rate: 3200 MT/s
Heartbeat CPU 0 instructions: 10000000 cycles: 2500573 heartbeat IPC: 3.99909 cumulative IPC: 3.99909 (Simulation time: 0 hr 0 min 36 sec) 
Heartbeat CPU 0 instructions: 20000001 cycles: 5090217 heartbeat IPC: 3.86154 cumulative IPC: 3.92911 (Simulation time: 0 hr 1 min 15 sec) 
Heartbeat CPU 0 instructions: 30000003 cycles: 7655551 heartbeat IPC: 3.89813 cumulative IPC: 3.91873 (Simulation time: 0 hr 1 min 54 sec) 
Heartbeat CPU 0 instructions: 40000003 cycles: 10210547 heartbeat IPC: 3.91391 cumulative IPC: 3.91752 (Simulation time: 0 hr 2 min 35 sec) 
Heartbeat CPU 0 instructions: 50000001 cycles: 12710718 heartbeat IPC: 3.99973 cumulative IPC: 3.93369 (Simulation time: 0 hr 3 min 14 sec) 
Warmup finished CPU 0 instructions: 50000001 cycles: 12710719 cumulative IPC: 3.93369 (Simulation time: 0 hr 3 min 14 sec) 

Warmup complete CPU 0 instructions: 50000001 cycles: 12710719 (Simulation time: 0 hr 3 min 14 sec) 

Heartbeat CPU 0 instructions: 60000000 cycles: 41474786 heartbeat IPC: 0.347656 cumulative IPC: 0.347656 (Simulation time: 0 hr 4 min 34 sec) 
Heartbeat CPU 0 instructions: 70000000 cycles: 70090122 heartbeat IPC: 0.349463 cumulative IPC: 0.348558 (Simulation time: 0 hr 5 min 55 sec) 
Heartbeat CPU 0 instructions: 80000000 cycles: 99947583 heartbeat IPC: 0.334925 cumulative IPC: 0.343892 (Simulation time: 0 hr 7 min 17 sec) 
Heartbeat CPU 0 instructions: 90000000 cycles: 128162471 heartbeat IPC: 0.354423 cumulative IPC: 0.346466 (Simulation time: 0 hr 8 min 37 sec) 
Heartbeat CPU 0 instructions: 100000004 cycles: 157069080 heartbeat IPC: 0.345942 cumulative IPC: 0.346361 (Simulation time: 0 hr 9 min 57 sec) 
Heartbeat CPU 0 instructions: 110000000 cycles: 185569744 heartbeat IPC: 0.350869 cumulative IPC: 0.347104 (Simulation time: 0 hr 11 min 18 sec) 
Heartbeat CPU 0 instructions: 120000000 cycles: 214520086 heartbeat IPC: 0.34542 cumulative IPC: 0.346862 (Simulation time: 0 hr 12 min 38 sec) 
Heartbeat CPU 0 instructions: 130000000 cycles: 242151747 heartbeat IPC: 0.361904 cumulative IPC: 0.348674 (Simulation time: 0 hr 13 min 57 sec) 
Heartbeat CPU 0 instructions: 140000002 cycles: 271946810 heartbeat IPC: 0.335627 cumulative IPC: 0.347174 (Simulation time: 0 hr 15 min 19 sec) 
Heartbeat CPU 0 instructions: 150000000 cycles: 300761321 heartbeat IPC: 0.347048 cumulative IPC: 0.347162 (Simulation time: 0 hr 16 min 40 sec) 
Simulation finished CPU 0 instructions: 100000004 cycles: 288050604 cumulative IPC: 0.347162 (Simulation time: 0 hr 16 min 40 sec) 

Simulation complete CPU 0 instructions: 100000004 cycles: 288050604 (Simulation time: 0 hr 16 min 40 sec) 


ChampSim completed all CPUs

Saving instructions large page distribution to /home/bsc/bsc018186/scratch/itp_asplos25_AE/dump/smt_srv207_ap_srv128_ap_1024i.pdst...
Saving data large page distribution to /home/bsc/bsc018186/scratch/itp_asplos25_AE/dump/smt_srv207_ap_srv128_ap_1024i.pdst...
=== Simulation ===
CPU 0 runs /gpfs/projects/bsc18/MN4/bsc18/romol/ChampSim/traces/qualcomm_srv/smt_srv207_ap_srv128_ap_1024i.champsimtrace.xz

Region of Interest Statistics

CPU 0 cumulative IPC: 0.347162 instructions: 100000004 cycles: 288050604
CPU 0 Branch Prediction Accuracy: 74.6378% MPKI: 45.7035 Average ROB Occupancy at Mispredict: 10.6234
Branch type MPKI
BRANCH_DIRECT_JUMP: 1.4268
BRANCH_INDIRECT: 24.0043
BRANCH_CONDITIONAL: 12.9435
BRANCH_DIRECT_CALL: 2.70895
BRANCH_INDIRECT_CALL: 1.0328
BRANCH_RETURN: 3.58727

Instructions large pages: 0
Instructions small pages: 11526
Large page distribution for instructions: 0%

Data large pages: 0
Data small pages: 9998
Large page distribution for data: 0%

cpu0_L1I TOTAL       ACCESS:   39526497  HIT:   30265827  MISS:    9260670  iACCESS:   39526497  iHIT:   30265827  iMISS:    9260670  dACCESS:          0  dHIT:          0  dMISS:          0  itACCESS:          0  itHIT:          0  itMISS:          0  dtACCESS:          0  dtHIT:          0  dtMISS:          0
cpu0_L1I LOAD         ACCESS:   11685393  HIT:    9171622  MISS:    2513771  iACCESS:   11685393  iHIT:    9171622  iMISS:    2513771  dACCESS:          0  dHIT:          0  dMISS:          0  itACCESS:          0  itHIT:          0  itMISS:          0  dtACCESS:          0  dtHIT:          0  dtMISS:          0
cpu0_L1I RFO          ACCESS:          0  HIT:          0  MISS:          0  iACCESS:          0  iHIT:          0  iMISS:          0  dACCESS:          0  dHIT:          0  dMISS:          0  itACCESS:          0  itHIT:          0  itMISS:          0  dtACCESS:          0  dtHIT:          0  dtMISS:          0
cpu0_L1I PREFETCH     ACCESS:   27841104  HIT:   21094205  MISS:    6746899  iACCESS:   27841104  iHIT:   21094205  iMISS:    6746899  dACCESS:          0  dHIT:          0  dMISS:          0  itACCESS:          0  itHIT:          0  itMISS:          0  dtACCESS:          0  dtHIT:          0  dtMISS:          0
cpu0_L1I WRITE        ACCESS:          0  HIT:          0  MISS:          0  iACCESS:          0  iHIT:          0  iMISS:          0  dACCESS:          0  dHIT:          0  dMISS:          0  itACCESS:          0  itHIT:          0  itMISS:          0  dtACCESS:          0  dtHIT:          0  dtMISS:          0
cpu0_L1I TRANSLATION  ACCESS:          0  HIT:          0  MISS:          0  iACCESS:          0  iHIT:          0  iMISS:          0  dACCESS:          0  dHIT:          0  dMISS:          0  itACCESS:          0  itHIT:          0  itMISS:          0  dtACCESS:          0  dtHIT:          0  dtMISS:          0
cpu0_L1I PREFETCH  REQUESTED:   30360442  ISSUED:   30358873  CROSSED:          0  USEFUL:    2215760  USELESS:     793808
cpu0_L1I AVERAGE iMISS LATENCY: 24.9496 cycles
cpu0_L1I AVERAGE dMISS LATENCY: 0 cycles
cpu0_L1I AVERAGE itMISS LATENCY: 0 cycles
cpu0_L1I AVERAGE dtMISS LATENCY: 0 cycles
cpu0_L1I PAGE CROSSINGS (TLB HIT):         0 
cpu0_L1I PAGE CROSSINGS (TLB MISS):         0 
cpu0_L1I AVERAGE MISS LATENCY: 24.9496 cycles
cpu0_ITLB TOTAL       ACCESS:   33330262  HIT:   31063292  MISS:    2266970  iACCESS:   33330262  iHIT:   31063292  iMISS:    2266970  dACCESS:          0  dHIT:          0  dMISS:          0  itACCESS:          0  itHIT:          0  itMISS:          0  dtACCESS:          0  dtHIT:          0  dtMISS:          0
cpu0_ITLB LOAD         ACCESS:   33330262  HIT:   31063292  MISS:    2266970  iACCESS:   33330262  iHIT:   31063292  iMISS:    2266970  dACCESS:          0  dHIT:          0  dMISS:          0  itACCESS:          0  itHIT:          0  itMISS:          0  dtACCESS:          0  dtHIT:          0  dtMISS:          0
cpu0_ITLB RFO          ACCESS:          0  HIT:          0  MISS:          0  iACCESS:          0  iHIT:          0  iMISS:          0  dACCESS:          0  dHIT:          0  dMISS:          0  itACCESS:          0  itHIT:          0  itMISS:          0  dtACCESS:          0  dtHIT:          0  dtMISS:          0
cpu0_ITLB PREFETCH     ACCESS:          0  HIT:          0  MISS:          0  iACCESS:          0  iHIT:          0  iMISS:          0  dACCESS:          0  dHIT:          0  dMISS:          0  itACCESS:          0  itHIT:          0  itMISS:          0  dtACCESS:          0  dtHIT:          0  dtMISS:          0
cpu0_ITLB WRITE        ACCESS:          0  HIT:          0  MISS:          0  iACCESS:          0  iHIT:          0  iMISS:          0  dACCESS:          0  dHIT:          0  dMISS:          0  itACCESS:          0  itHIT:          0  itMISS:          0  dtACCESS:          0  dtHIT:          0  dtMISS:          0
cpu0_ITLB TRANSLATION  ACCESS:          0  HIT:          0  MISS:          0  iACCESS:          0  iHIT:          0  iMISS:          0  dACCESS:          0  dHIT:          0  dMISS:          0  itACCESS:          0  itHIT:          0  itMISS:          0  dtACCESS:          0  dtHIT:          0  dtMISS:          0
cpu0_ITLB PREFETCH  REQUESTED:          0  ISSUED:          0  CROSSED:          0  USEFUL:     400336  USELESS:      82425
cpu0_ITLB AVERAGE iMISS LATENCY: 6.09137 cycles
cpu0_ITLB AVERAGE dMISS LATENCY: 0 cycles
cpu0_ITLB AVERAGE itMISS LATENCY: 0 cycles
cpu0_ITLB AVERAGE dtMISS LATENCY: 0 cycles
cpu0_ITLB PAGE CROSSINGS (TLB HIT):         0 
cpu0_ITLB PAGE CROSSINGS (TLB MISS):         0 
cpu0_ITLB AVERAGE MISS LATENCY: 6.09137 cycles
cpu0_DTLB TOTAL       ACCESS:   29239371  HIT:   25736143  MISS:    3503228  iACCESS:          0  iHIT:          0  iMISS:          0  dACCESS:   29239371  dHIT:   25736143  dMISS:    3503228  itACCESS:          0  itHIT:          0  itMISS:          0  dtACCESS:          0  dtHIT:          0  dtMISS:          0
cpu0_DTLB LOAD         ACCESS:   29239371  HIT:   25736143  MISS:    3503228  iACCESS:          0  iHIT:          0  iMISS:          0  dACCESS:   29239371  dHIT:   25736143  dMISS:    3503228  itACCESS:          0  itHIT:          0  itMISS:          0  dtACCESS:          0  dtHIT:          0  dtMISS:          0
cpu0_DTLB RFO          ACCESS:          0  HIT:          0  MISS:          0  iACCESS:          0  iHIT:          0  iMISS:          0  dACCESS:          0  dHIT:          0  dMISS:          0  itACCESS:          0  itHIT:          0  itMISS:          0  dtACCESS:          0  dtHIT:          0  dtMISS:          0
cpu0_DTLB PREFETCH     ACCESS:          0  HIT:          0  MISS:          0  iACCESS:          0  iHIT:          0  iMISS:          0  dACCESS:          0  dHIT:          0  dMISS:          0  itACCESS:          0  itHIT:          0  itMISS:          0  dtACCESS:          0  dtHIT:          0  dtMISS:          0
cpu0_DTLB WRITE        ACCESS:          0  HIT:          0  MISS:          0  iACCESS:          0  iHIT:          0  iMISS:          0  dACCESS:          0  dHIT:          0  dMISS:          0  itACCESS:          0  itHIT:          0  itMISS:          0  dtACCESS:          0  dtHIT:          0  dtMISS:          0
cpu0_DTLB TRANSLATION  ACCESS:          0  HIT:          0  MISS:          0  iACCESS:          0  iHIT:          0  iMISS:          0  dACCESS:          0  dHIT:          0  dMISS:          0  itACCESS:          0  itHIT:          0  itMISS:          0  dtACCESS:          0  dtHIT:          0  dtMISS:          0
cpu0_DTLB PREFETCH  REQUESTED:          0  ISSUED:          0  CROSSED:          0  USEFUL:          0  USELESS:          0
cpu0_DTLB AVERAGE iMISS LATENCY: 0 cycles
cpu0_DTLB AVERAGE dMISS LATENCY: 20.1878 cycles
cpu0_DTLB AVERAGE itMISS LATENCY: 0 cycles
cpu0_DTLB AVERAGE dtMISS LATENCY: 0 cycles
cpu0_DTLB PAGE CROSSINGS (TLB HIT):         0 
cpu0_DTLB PAGE CROSSINGS (TLB MISS):         0 
cpu0_DTLB AVERAGE MISS LATENCY: 20.1878 cycles
cpu0_STLB TOTAL       ACCESS:    2556769  HIT:    2172258  MISS:     384511  iACCESS:     482769  iHIT:     418130  iMISS:      64639  dACCESS:    2074000  dHIT:    1754128  dMISS:     319872  itACCESS:          0  itHIT:          0  itMISS:          0  dtACCESS:          0  dtHIT:          0  dtMISS:          0
cpu0_STLB LOAD         ACCESS:    2556769  HIT:    2172258  MISS:     384511  iACCESS:     482769  iHIT:     418130  iMISS:      64639  dACCESS:    2074000  dHIT:    1754128  dMISS:     319872  itACCESS:          0  itHIT:          0  itMISS:          0  dtACCESS:          0  dtHIT:          0  dtMISS:          0
cpu0_STLB RFO          ACCESS:          0  HIT:          0  MISS:          0  iACCESS:          0  iHIT:          0  iMISS:          0  dACCESS:          0  dHIT:          0  dMISS:          0  itACCESS:          0  itHIT:          0  itMISS:          0  dtACCESS:          0  dtHIT:          0  dtMISS:          0
cpu0_STLB PREFETCH     ACCESS:          0  HIT:          0  MISS:          0  iACCESS:          0  iHIT:          0  iMISS:          0  dACCESS:          0  dHIT:          0  dMISS:          0  itACCESS:          0  itHIT:          0  itMISS:          0  dtACCESS:          0  dtHIT:          0  dtMISS:          0
cpu0_STLB WRITE        ACCESS:          0  HIT:          0  MISS:          0  iACCESS:          0  iHIT:          0  iMISS:          0  dACCESS:          0  dHIT:          0  dMISS:          0  itACCESS:          0  itHIT:          0  itMISS:          0  dtACCESS:          0  dtHIT:          0  dtMISS:          0
cpu0_STLB TRANSLATION  ACCESS:          0  HIT:          0  MISS:          0  iACCESS:          0  iHIT:          0  iMISS:          0  dACCESS:          0  dHIT:          0  dMISS:          0  itACCESS:          0  itHIT:          0  itMISS:          0  dtACCESS:          0  dtHIT:          0  dtMISS:          0
cpu0_STLB PREFETCH  REQUESTED:          0  ISSUED:          0  CROSSED:          0  USEFUL:          0  USELESS:          0
cpu0_STLB AVERAGE iMISS LATENCY: 26.0324 cycles
cpu0_STLB AVERAGE dMISS LATENCY: 140.438 cycles
cpu0_STLB AVERAGE itMISS LATENCY: 0 cycles
cpu0_STLB AVERAGE dtMISS LATENCY: 0 cycles
cpu0_STLB PAGE CROSSINGS (TLB HIT):         0 
cpu0_STLB PAGE CROSSINGS (TLB MISS):         0 
cpu0_STLB AVERAGE MISS LATENCY: 166.471 cycles
cpu0_L1D TOTAL       ACCESS:   45742130  HIT:   39676272  MISS:    6065858  iACCESS:          0  iHIT:          0  iMISS:          0  dACCESS:   45159190  dHIT:   39646771  dMISS:    5512419  itACCESS:      75321  itHIT:       5672  itMISS:      69649  dtACCESS:     507619  dtHIT:      23829  dtMISS:     483790
cpu0_L1D LOAD         ACCESS:   20678989  HIT:   18190509  MISS:    2488480  iACCESS:          0  iHIT:          0  iMISS:          0  dACCESS:   20678989  dHIT:   18190509  dMISS:    2488480  itACCESS:          0  itHIT:          0  itMISS:          0  dtACCESS:          0  dtHIT:          0  dtMISS:          0
cpu0_L1D RFO          ACCESS:          0  HIT:          0  MISS:          0  iACCESS:          0  iHIT:          0  iMISS:          0  dACCESS:          0  dHIT:          0  dMISS:          0  itACCESS:          0  itHIT:          0  itMISS:          0  dtACCESS:          0  dtHIT:          0  dtMISS:          0
cpu0_L1D PREFETCH     ACCESS:   14341566  HIT:   11927145  MISS:    2414421  iACCESS:          0  iHIT:          0  iMISS:          0  dACCESS:   14341566  dHIT:   11927145  dMISS:    2414421  itACCESS:          0  itHIT:          0  itMISS:          0  dtACCESS:          0  dtHIT:          0  dtMISS:          0
cpu0_L1D WRITE        ACCESS:   10138635  HIT:    9529117  MISS:     609518  iACCESS:          0  iHIT:          0  iMISS:          0  dACCESS:   10138635  dHIT:    9529117  dMISS:     609518  itACCESS:          0  itHIT:          0  itMISS:          0  dtACCESS:          0  dtHIT:          0  dtMISS:          0
cpu0_L1D TRANSLATION  ACCESS:     582940  HIT:      29501  MISS:     553439  iACCESS:          0  iHIT:          0  iMISS:          0  dACCESS:          0  dHIT:          0  dMISS:          0  itACCESS:      75321  itHIT:       5672  itMISS:      69649  dtACCESS:     507619  dtHIT:      23829  dtMISS:     483790
cpu0_L1D PREFETCH  REQUESTED:   20678989  ISSUED:   18884059  CROSSED:          0  USEFUL:     378331  USELESS:     959975
cpu0_L1D AVERAGE iMISS LATENCY: 0 cycles
cpu0_L1D AVERAGE dMISS LATENCY: 50.5453 cycles
cpu0_L1D AVERAGE itMISS LATENCY: 1.54176 cycles
cpu0_L1D AVERAGE dtMISS LATENCY: 8.05997 cycles
cpu0_L1D PAGE CROSSINGS (TLB HIT):         0 
cpu0_L1D PAGE CROSSINGS (TLB MISS):         0 
cpu0_L1D AVERAGE MISS LATENCY: 60.147 cycles
cpu0_L2C TOTAL       ACCESS:    8809247  HIT:    1527686  MISS:    7281561  iACCESS:    3828940  iHIT:     772459  iMISS:    3056481  dACCESS:    4456373  dHIT:     557499  dMISS:    3898874  itACCESS:      69477  itHIT:      16195  itMISS:      53282  dtACCESS:     454457  dtHIT:     181533  dtMISS:     272924
cpu0_L2C LOAD         ACCESS:    2107940  HIT:     201686  MISS:    1906254  iACCESS:     852266  iHIT:     104774  iMISS:     747492  dACCESS:    1255674  dHIT:      96912  dMISS:    1158762  itACCESS:          0  itHIT:          0  itMISS:          0  dtACCESS:          0  dtHIT:          0  dtMISS:          0
cpu0_L2C RFO          ACCESS:     226228  HIT:      31057  MISS:     195171  iACCESS:          0  iHIT:          0  iMISS:          0  dACCESS:     226228  dHIT:      31057  dMISS:     195171  itACCESS:          0  itHIT:          0  itMISS:          0  dtACCESS:          0  dtHIT:          0  dtMISS:          0
cpu0_L2C PREFETCH     ACCESS:    5601131  HIT:     991364  MISS:    4609767  iACCESS:    2976674  iHIT:     667685  iMISS:    2308989  dACCESS:    2624457  dHIT:     323679  dMISS:    2300778  itACCESS:          0  itHIT:          0  itMISS:          0  dtACCESS:          0  dtHIT:          0  dtMISS:          0
cpu0_L2C WRITE        ACCESS:     350014  HIT:     105851  MISS:     244163  iACCESS:          0  iHIT:          0  iMISS:          0  dACCESS:     350014  dHIT:     105851  dMISS:     244163  itACCESS:          0  itHIT:          0  itMISS:          0  dtACCESS:          0  dtHIT:          0  dtMISS:          0
cpu0_L2C TRANSLATION  ACCESS:     523934  HIT:     197728  MISS:     326206  iACCESS:          0  iHIT:          0  iMISS:          0  dACCESS:          0  dHIT:          0  dMISS:          0  itACCESS:      69477  itHIT:      16195  itMISS:      53282  dtACCESS:     454457  dtHIT:     181533  dtMISS:     272924
cpu0_L2C PREFETCH  REQUESTED:    1524056  ISSUED:    1524055  CROSSED:          0  USEFUL:     403107  USELESS:     497448
cpu0_L2C AVERAGE iMISS LATENCY: 27.2756 cycles
cpu0_L2C AVERAGE dMISS LATENCY: 51.4417 cycles
cpu0_L2C AVERAGE itMISS LATENCY: 1.19086 cycles
cpu0_L2C AVERAGE dtMISS LATENCY: 6.11218 cycles
cpu0_L2C PAGE CROSSINGS (TLB HIT):         0 
cpu0_L2C PAGE CROSSINGS (TLB MISS):         0 
cpu0_L2C AVERAGE MISS LATENCY: 86.0203 cycles
LLC TOTAL       ACCESS:    7097066  HIT:    4236868  MISS:    2860198  iACCESS:    2968357  iHIT:    2082949  iMISS:     885408  dACCESS:    3802503  dHIT:    2076005  dMISS:    1726498  itACCESS:      53282  itHIT:      10485  itMISS:      42797  dtACCESS:     272924  dtHIT:      67429  dtMISS:     205495
LLC LOAD         ACCESS:    1898353  HIT:    1198867  MISS:     699486  iACCESS:     746230  iHIT:     560368  iMISS:     185862  dACCESS:    1152123  dHIT:     638499  dMISS:     513624  itACCESS:          0  itHIT:          0  itMISS:          0  dtACCESS:          0  dtHIT:          0  dtMISS:          0
LLC RFO          ACCESS:     195160  HIT:      99402  MISS:      95758  iACCESS:          0  iHIT:          0  iMISS:          0  dACCESS:     195160  dHIT:      99402  dMISS:      95758  itACCESS:          0  itHIT:          0  itMISS:          0  dtACCESS:          0  dtHIT:          0  dtMISS:          0
LLC PREFETCH     ACCESS:    4400035  HIT:    2591111  MISS:    1808924  iACCESS:    2222127  iHIT:    1522581  iMISS:     699546  dACCESS:    2177908  dHIT:    1068530  dMISS:    1109378  itACCESS:          0  itHIT:          0  itMISS:          0  dtACCESS:          0  dtHIT:          0  dtMISS:          0
LLC WRITE        ACCESS:     277312  HIT:     269574  MISS:       7738  iACCESS:          0  iHIT:          0  iMISS:          0  dACCESS:     277312  dHIT:     269574  dMISS:       7738  itACCESS:          0  itHIT:          0  itMISS:          0  dtACCESS:          0  dtHIT:          0  dtMISS:          0
LLC TRANSLATION  ACCESS:     326206  HIT:      77914  MISS:     248292  iACCESS:          0  iHIT:          0  iMISS:          0  dACCESS:          0  dHIT:          0  dMISS:          0  itACCESS:      53282  itHIT:      10485  itMISS:      42797  dtACCESS:     272924  dtHIT:      67429  dtMISS:     205495
LLC PREFETCH  REQUESTED:          0  ISSUED:          0  CROSSED:          0  USEFUL:          0  USELESS:          0
LLC AVERAGE iMISS LATENCY: 49.2834 cycles
LLC AVERAGE dMISS LATENCY: 107.867 cycles
LLC AVERAGE itMISS LATENCY: 2.66416 cycles
LLC AVERAGE dtMISS LATENCY: 13.682 cycles
LLC PAGE CROSSINGS (TLB HIT):         0 
LLC PAGE CROSSINGS (TLB MISS):         0 
LLC AVERAGE MISS LATENCY: 173.497 cycles

PageTableWalker TOTAL       ACCESS:     139407  
PageTableWalker AVERAGE LATENCY: 6.23307 cycles
PageTableWalker TOTAL LATENCY: 868933 cycles

DRAM Statistics
Channel 0
 RQ ROW_BUFFER_HIT:     618950
  ROW_BUFFER_MISS:    2214233
 AVG DBUS CONGESTED CYCLE:    3.65633
 WQ ROW_BUFFER_HIT:      68292
  ROW_BUFFER_MISS:      65148  FULL:          0

