last_page:0x200000000000000
VMEM_RES_CAP:0x100000
PAGE_SIZE:4096
LOG2_PAGE_SIZE:12
LOG2_PAGE_TABLE_SIZE:9
page_table_levels:5
WARNING: physical memory size is smaller than virtual memory size
FDiP enabled with aggresivity 16

*** ChampSim Multicore Out-of-Order Simulator ***

Warmup Instructions: 50000000
Simulation Instructions: 100000000
Number of CPUs: 1
Small page size: 4096
Large page size: 2097152

CPU 0 Bimodal branch predictor
Basic BTB sets: 1024 ways: 8 indirect buffer size: 4096 RAS size: 64
Instruction page size distrubution: 0
Loading instruction page size distribution from /home/bsc/bsc018186/scratch/itp_asplos25_AE/dump/smt_srv12_ap_srv582_ap_1024i.pdst
Data page size distrubution: 0
Loading data page size distribution from /home/bsc/bsc018186/scratch/itp_asplos25_AE/dump/smt_srv12_ap_srv582_ap_1024i.pdst
cpu0_L2C IP-based stride prefetcher
cpu0_L1D next line prefetcher
CHiRPing...
cpu0_L1I next line prefetcher
Off-chip DRAM Size: 4 GiB Channels: 1 Width: 64-bit Data Rate: 3200 MT/s
Heartbeat CPU 0 instructions: 10000001 cycles: 2500493 heartbeat IPC: 3.99922 cumulative IPC: 3.99922 (Simulation time: 0 hr 0 min 42 sec) 
Heartbeat CPU 0 instructions: 20000001 cycles: 5000780 heartbeat IPC: 3.99955 cumulative IPC: 3.99938 (Simulation time: 0 hr 1 min 27 sec) 
Heartbeat CPU 0 instructions: 30000001 cycles: 7501556 heartbeat IPC: 3.99876 cumulative IPC: 3.99918 (Simulation time: 0 hr 2 min 13 sec) 
Heartbeat CPU 0 instructions: 40000003 cycles: 10001810 heartbeat IPC: 3.9996 cumulative IPC: 3.99928 (Simulation time: 0 hr 2 min 58 sec) 
Heartbeat CPU 0 instructions: 50000003 cycles: 12502028 heartbeat IPC: 3.99966 cumulative IPC: 3.99936 (Simulation time: 0 hr 3 min 43 sec) 
Warmup finished CPU 0 instructions: 50000003 cycles: 12502029 cumulative IPC: 3.99936 (Simulation time: 0 hr 3 min 43 sec) 

Warmup complete CPU 0 instructions: 50000003 cycles: 12502029 (Simulation time: 0 hr 3 min 43 sec) 

Heartbeat CPU 0 instructions: 60000002 cycles: 41479026 heartbeat IPC: 0.345102 cumulative IPC: 0.345102 (Simulation time: 0 hr 5 min 11 sec) 
Heartbeat CPU 0 instructions: 70000000 cycles: 70541747 heartbeat IPC: 0.344084 cumulative IPC: 0.344592 (Simulation time: 0 hr 6 min 40 sec) 
Heartbeat CPU 0 instructions: 80000001 cycles: 98896571 heartbeat IPC: 0.352674 cumulative IPC: 0.347245 (Simulation time: 0 hr 8 min 8 sec) 
Heartbeat CPU 0 instructions: 90000000 cycles: 125317163 heartbeat IPC: 0.378493 cumulative IPC: 0.354563 (Simulation time: 0 hr 9 min 32 sec) 
Heartbeat CPU 0 instructions: 100000000 cycles: 154065292 heartbeat IPC: 0.347849 cumulative IPC: 0.353199 (Simulation time: 0 hr 11 min 2 sec) 
Heartbeat CPU 0 instructions: 110000004 cycles: 182196191 heartbeat IPC: 0.355482 cumulative IPC: 0.353578 (Simulation time: 0 hr 12 min 32 sec) 
Heartbeat CPU 0 instructions: 120000004 cycles: 210472878 heartbeat IPC: 0.353649 cumulative IPC: 0.353588 (Simulation time: 0 hr 14 min 3 sec) 
Heartbeat CPU 0 instructions: 130000000 cycles: 239410455 heartbeat IPC: 0.345572 cumulative IPC: 0.352566 (Simulation time: 0 hr 15 min 34 sec) 
Heartbeat CPU 0 instructions: 140000000 cycles: 268101885 heartbeat IPC: 0.348537 cumulative IPC: 0.352113 (Simulation time: 0 hr 17 min 5 sec) 
Heartbeat CPU 0 instructions: 150000002 cycles: 296163441 heartbeat IPC: 0.35636 cumulative IPC: 0.352533 (Simulation time: 0 hr 18 min 35 sec) 
Simulation finished CPU 0 instructions: 100000004 cycles: 283661414 cumulative IPC: 0.352533 (Simulation time: 0 hr 18 min 35 sec) 

Simulation complete CPU 0 instructions: 100000004 cycles: 283661414 (Simulation time: 0 hr 18 min 35 sec) 


ChampSim completed all CPUs

Saving instructions large page distribution to /home/bsc/bsc018186/scratch/itp_asplos25_AE/dump/smt_srv12_ap_srv582_ap_1024i.pdst...
Saving data large page distribution to /home/bsc/bsc018186/scratch/itp_asplos25_AE/dump/smt_srv12_ap_srv582_ap_1024i.pdst...
=== Simulation ===
CPU 0 runs /gpfs/projects/bsc18/MN4/bsc18/romol/ChampSim/traces/qualcomm_srv/smt_srv12_ap_srv582_ap_1024i.champsimtrace.xz

Region of Interest Statistics

CPU 0 cumulative IPC: 0.352533 instructions: 100000004 cycles: 283661414
CPU 0 Branch Prediction Accuracy: 74.5831% MPKI: 46.0686 Average ROB Occupancy at Mispredict: 10.1823
Branch type MPKI
BRANCH_DIRECT_JUMP: 1.46673
BRANCH_INDIRECT: 23.5042
BRANCH_CONDITIONAL: 13.5504
BRANCH_DIRECT_CALL: 2.81825
BRANCH_INDIRECT_CALL: 1.14927
BRANCH_RETURN: 3.57978

Instructions large pages: 0
Instructions small pages: 11403
Large page distribution for instructions: 0%

Data large pages: 0
Data small pages: 9565
Large page distribution for data: 0%

cpu0_L1I TOTAL       ACCESS:   39761529  HIT:   30528439  MISS:    9233090  iACCESS:   39761529  iHIT:   30528439  iMISS:    9233090  dACCESS:          0  dHIT:          0  dMISS:          0  itACCESS:          0  itHIT:          0  itMISS:          0  dtACCESS:          0  dtHIT:          0  dtMISS:          0
cpu0_L1I LOAD         ACCESS:   11825125  HIT:    9326018  MISS:    2499107  iACCESS:   11825125  iHIT:    9326018  iMISS:    2499107  dACCESS:          0  dHIT:          0  dMISS:          0  itACCESS:          0  itHIT:          0  itMISS:          0  dtACCESS:          0  dtHIT:          0  dtMISS:          0
cpu0_L1I RFO          ACCESS:          0  HIT:          0  MISS:          0  iACCESS:          0  iHIT:          0  iMISS:          0  dACCESS:          0  dHIT:          0  dMISS:          0  itACCESS:          0  itHIT:          0  itMISS:          0  dtACCESS:          0  dtHIT:          0  dtMISS:          0
cpu0_L1I PREFETCH     ACCESS:   27936404  HIT:   21202421  MISS:    6733983  iACCESS:   27936404  iHIT:   21202421  iMISS:    6733983  dACCESS:          0  dHIT:          0  dMISS:          0  itACCESS:          0  itHIT:          0  itMISS:          0  dtACCESS:          0  dtHIT:          0  dtMISS:          0
cpu0_L1I WRITE        ACCESS:          0  HIT:          0  MISS:          0  iACCESS:          0  iHIT:          0  iMISS:          0  dACCESS:          0  dHIT:          0  dMISS:          0  itACCESS:          0  itHIT:          0  itMISS:          0  dtACCESS:          0  dtHIT:          0  dtMISS:          0
cpu0_L1I TRANSLATION  ACCESS:          0  HIT:          0  MISS:          0  iACCESS:          0  iHIT:          0  iMISS:          0  dACCESS:          0  dHIT:          0  dMISS:          0  itACCESS:          0  itHIT:          0  itMISS:          0  dtACCESS:          0  dtHIT:          0  dtMISS:          0
cpu0_L1I PREFETCH  REQUESTED:   30517502  ISSUED:   30515600  CROSSED:          0  USEFUL:    2228239  USELESS:     777655
cpu0_L1I AVERAGE iMISS LATENCY: 24.84 cycles
cpu0_L1I AVERAGE dMISS LATENCY: 0 cycles
cpu0_L1I AVERAGE itMISS LATENCY: 0 cycles
cpu0_L1I AVERAGE dtMISS LATENCY: 0 cycles
cpu0_L1I PAGE CROSSINGS (TLB HIT):         0 
cpu0_L1I PAGE CROSSINGS (TLB MISS):         0 
cpu0_L1I AVERAGE MISS LATENCY: 24.84 cycles
cpu0_ITLB TOTAL       ACCESS:   33523884  HIT:   31271145  MISS:    2252739  iACCESS:   33523884  iHIT:   31271145  iMISS:    2252739  dACCESS:          0  dHIT:          0  dMISS:          0  itACCESS:          0  itHIT:          0  itMISS:          0  dtACCESS:          0  dtHIT:          0  dtMISS:          0
cpu0_ITLB LOAD         ACCESS:   33523884  HIT:   31271145  MISS:    2252739  iACCESS:   33523884  iHIT:   31271145  iMISS:    2252739  dACCESS:          0  dHIT:          0  dMISS:          0  itACCESS:          0  itHIT:          0  itMISS:          0  dtACCESS:          0  dtHIT:          0  dtMISS:          0
cpu0_ITLB RFO          ACCESS:          0  HIT:          0  MISS:          0  iACCESS:          0  iHIT:          0  iMISS:          0  dACCESS:          0  dHIT:          0  dMISS:          0  itACCESS:          0  itHIT:          0  itMISS:          0  dtACCESS:          0  dtHIT:          0  dtMISS:          0
cpu0_ITLB PREFETCH     ACCESS:          0  HIT:          0  MISS:          0  iACCESS:          0  iHIT:          0  iMISS:          0  dACCESS:          0  dHIT:          0  dMISS:          0  itACCESS:          0  itHIT:          0  itMISS:          0  dtACCESS:          0  dtHIT:          0  dtMISS:          0
cpu0_ITLB WRITE        ACCESS:          0  HIT:          0  MISS:          0  iACCESS:          0  iHIT:          0  iMISS:          0  dACCESS:          0  dHIT:          0  dMISS:          0  itACCESS:          0  itHIT:          0  itMISS:          0  dtACCESS:          0  dtHIT:          0  dtMISS:          0
cpu0_ITLB TRANSLATION  ACCESS:          0  HIT:          0  MISS:          0  iACCESS:          0  iHIT:          0  iMISS:          0  dACCESS:          0  dHIT:          0  dMISS:          0  itACCESS:          0  itHIT:          0  itMISS:          0  dtACCESS:          0  dtHIT:          0  dtMISS:          0
cpu0_ITLB PREFETCH  REQUESTED:          0  ISSUED:          0  CROSSED:          0  USEFUL:     398653  USELESS:      81620
cpu0_ITLB AVERAGE iMISS LATENCY: 8.16974 cycles
cpu0_ITLB AVERAGE dMISS LATENCY: 0 cycles
cpu0_ITLB AVERAGE itMISS LATENCY: 0 cycles
cpu0_ITLB AVERAGE dtMISS LATENCY: 0 cycles
cpu0_ITLB PAGE CROSSINGS (TLB HIT):         0 
cpu0_ITLB PAGE CROSSINGS (TLB MISS):         0 
cpu0_ITLB AVERAGE MISS LATENCY: 8.16974 cycles
cpu0_DTLB TOTAL       ACCESS:   29019051  HIT:   25529502  MISS:    3489549  iACCESS:          0  iHIT:          0  iMISS:          0  dACCESS:   29019051  dHIT:   25529502  dMISS:    3489549  itACCESS:          0  itHIT:          0  itMISS:          0  dtACCESS:          0  dtHIT:          0  dtMISS:          0
cpu0_DTLB LOAD         ACCESS:   29019051  HIT:   25529502  MISS:    3489549  iACCESS:          0  iHIT:          0  iMISS:          0  dACCESS:   29019051  dHIT:   25529502  dMISS:    3489549  itACCESS:          0  itHIT:          0  itMISS:          0  dtACCESS:          0  dtHIT:          0  dtMISS:          0
cpu0_DTLB RFO          ACCESS:          0  HIT:          0  MISS:          0  iACCESS:          0  iHIT:          0  iMISS:          0  dACCESS:          0  dHIT:          0  dMISS:          0  itACCESS:          0  itHIT:          0  itMISS:          0  dtACCESS:          0  dtHIT:          0  dtMISS:          0
cpu0_DTLB PREFETCH     ACCESS:          0  HIT:          0  MISS:          0  iACCESS:          0  iHIT:          0  iMISS:          0  dACCESS:          0  dHIT:          0  dMISS:          0  itACCESS:          0  itHIT:          0  itMISS:          0  dtACCESS:          0  dtHIT:          0  dtMISS:          0
cpu0_DTLB WRITE        ACCESS:          0  HIT:          0  MISS:          0  iACCESS:          0  iHIT:          0  iMISS:          0  dACCESS:          0  dHIT:          0  dMISS:          0  itACCESS:          0  itHIT:          0  itMISS:          0  dtACCESS:          0  dtHIT:          0  dtMISS:          0
cpu0_DTLB TRANSLATION  ACCESS:          0  HIT:          0  MISS:          0  iACCESS:          0  iHIT:          0  iMISS:          0  dACCESS:          0  dHIT:          0  dMISS:          0  itACCESS:          0  itHIT:          0  itMISS:          0  dtACCESS:          0  dtHIT:          0  dtMISS:          0
cpu0_DTLB PREFETCH  REQUESTED:          0  ISSUED:          0  CROSSED:          0  USEFUL:          0  USELESS:          0
cpu0_DTLB AVERAGE iMISS LATENCY: 0 cycles
cpu0_DTLB AVERAGE dMISS LATENCY: 17.6524 cycles
cpu0_DTLB AVERAGE itMISS LATENCY: 0 cycles
cpu0_DTLB AVERAGE dtMISS LATENCY: 0 cycles
cpu0_DTLB PAGE CROSSINGS (TLB HIT):         0 
cpu0_DTLB PAGE CROSSINGS (TLB MISS):         0 
cpu0_DTLB AVERAGE MISS LATENCY: 17.6524 cycles
cpu0_STLB TOTAL       ACCESS:    2542946  HIT:    2161709  MISS:     381237  iACCESS:     480288  iHIT:     359001  iMISS:     121287  dACCESS:    2062658  dHIT:    1802708  dMISS:     259950  itACCESS:          0  itHIT:          0  itMISS:          0  dtACCESS:          0  dtHIT:          0  dtMISS:          0
cpu0_STLB LOAD         ACCESS:    2542946  HIT:    2161709  MISS:     381237  iACCESS:     480288  iHIT:     359001  iMISS:     121287  dACCESS:    2062658  dHIT:    1802708  dMISS:     259950  itACCESS:          0  itHIT:          0  itMISS:          0  dtACCESS:          0  dtHIT:          0  dtMISS:          0
cpu0_STLB RFO          ACCESS:          0  HIT:          0  MISS:          0  iACCESS:          0  iHIT:          0  iMISS:          0  dACCESS:          0  dHIT:          0  dMISS:          0  itACCESS:          0  itHIT:          0  itMISS:          0  dtACCESS:          0  dtHIT:          0  dtMISS:          0
cpu0_STLB PREFETCH     ACCESS:          0  HIT:          0  MISS:          0  iACCESS:          0  iHIT:          0  iMISS:          0  dACCESS:          0  dHIT:          0  dMISS:          0  itACCESS:          0  itHIT:          0  itMISS:          0  dtACCESS:          0  dtHIT:          0  dtMISS:          0
cpu0_STLB WRITE        ACCESS:          0  HIT:          0  MISS:          0  iACCESS:          0  iHIT:          0  iMISS:          0  dACCESS:          0  dHIT:          0  dMISS:          0  itACCESS:          0  itHIT:          0  itMISS:          0  dtACCESS:          0  dtHIT:          0  dtMISS:          0
cpu0_STLB TRANSLATION  ACCESS:          0  HIT:          0  MISS:          0  iACCESS:          0  iHIT:          0  iMISS:          0  dACCESS:          0  dHIT:          0  dMISS:          0  itACCESS:          0  itHIT:          0  itMISS:          0  dtACCESS:          0  dtHIT:          0  dtMISS:          0
cpu0_STLB PREFETCH  REQUESTED:          0  ISSUED:          0  CROSSED:          0  USEFUL:          0  USELESS:          0
cpu0_STLB AVERAGE iMISS LATENCY: 38.1948 cycles
cpu0_STLB AVERAGE dMISS LATENCY: 118.087 cycles
cpu0_STLB AVERAGE itMISS LATENCY: 0 cycles
cpu0_STLB AVERAGE dtMISS LATENCY: 0 cycles
cpu0_STLB PAGE CROSSINGS (TLB HIT):         0 
cpu0_STLB PAGE CROSSINGS (TLB MISS):         0 
cpu0_STLB AVERAGE MISS LATENCY: 156.281 cycles
cpu0_L1D TOTAL       ACCESS:   45122402  HIT:   39389799  MISS:    5732603  iACCESS:          0  iHIT:          0  iMISS:          0  dACCESS:   44560065  dHIT:   39356052  dMISS:    5204013  itACCESS:     135505  itHIT:      15358  itMISS:     120147  dtACCESS:     426832  dtHIT:      18389  dtMISS:     408443
cpu0_L1D LOAD         ACCESS:   20351310  HIT:   18038142  MISS:    2313168  iACCESS:          0  iHIT:          0  iMISS:          0  dACCESS:   20351310  dHIT:   18038142  dMISS:    2313168  itACCESS:          0  itHIT:          0  itMISS:          0  dtACCESS:          0  dtHIT:          0  dtMISS:          0
cpu0_L1D RFO          ACCESS:          0  HIT:          0  MISS:          0  iACCESS:          0  iHIT:          0  iMISS:          0  dACCESS:          0  dHIT:          0  dMISS:          0  itACCESS:          0  itHIT:          0  itMISS:          0  dtACCESS:          0  dtHIT:          0  dtMISS:          0
cpu0_L1D PREFETCH     ACCESS:   14030681  HIT:   11720385  MISS:    2310296  iACCESS:          0  iHIT:          0  iMISS:          0  dACCESS:   14030681  dHIT:   11720385  dMISS:    2310296  itACCESS:          0  itHIT:          0  itMISS:          0  dtACCESS:          0  dtHIT:          0  dtMISS:          0
cpu0_L1D WRITE        ACCESS:   10178074  HIT:    9597525  MISS:     580549  iACCESS:          0  iHIT:          0  iMISS:          0  dACCESS:   10178074  dHIT:    9597525  dMISS:     580549  itACCESS:          0  itHIT:          0  itMISS:          0  dtACCESS:          0  dtHIT:          0  dtMISS:          0
cpu0_L1D TRANSLATION  ACCESS:     562337  HIT:      33747  MISS:     528590  iACCESS:          0  iHIT:          0  iMISS:          0  dACCESS:          0  dHIT:          0  dMISS:          0  itACCESS:     135505  itHIT:      15358  itMISS:     120147  dtACCESS:     426832  dtHIT:      18389  dtMISS:     408443
cpu0_L1D PREFETCH  REQUESTED:   20351310  ISSUED:   18597465  CROSSED:          0  USEFUL:     362758  USELESS:     930395
cpu0_L1D AVERAGE iMISS LATENCY: 0 cycles
cpu0_L1D AVERAGE dMISS LATENCY: 51.3498 cycles
cpu0_L1D AVERAGE itMISS LATENCY: 2.32859 cycles
cpu0_L1D AVERAGE dtMISS LATENCY: 7.04311 cycles
cpu0_L1D PAGE CROSSINGS (TLB HIT):         0 
cpu0_L1D PAGE CROSSINGS (TLB MISS):         0 
cpu0_L1D AVERAGE MISS LATENCY: 60.7215 cycles
cpu0_L2C TOTAL       ACCESS:    8672181  HIT:    1522849  MISS:    7149332  iACCESS:    3815436  iHIT:     798044  iMISS:    3017392  dACCESS:    4366379  dHIT:     529505  dMISS:    3836874  itACCESS:     119685  itHIT:      42717  itMISS:      76968  dtACCESS:     370681  dtHIT:     152583  dtMISS:     218098
cpu0_L2C LOAD         ACCESS:    2049273  HIT:     203583  MISS:    1845690  iACCESS:     844855  iHIT:     109758  iMISS:     735097  dACCESS:    1204418  dHIT:      93825  dMISS:    1110593  itACCESS:          0  itHIT:          0  itMISS:          0  dtACCESS:          0  dtHIT:          0  dtMISS:          0
cpu0_L2C RFO          ACCESS:     214998  HIT:      25005  MISS:     189993  iACCESS:          0  iHIT:          0  iMISS:          0  dACCESS:     214998  dHIT:      25005  dMISS:     189993  itACCESS:          0  itHIT:          0  itMISS:          0  dtACCESS:          0  dtHIT:          0  dtMISS:          0
cpu0_L2C PREFETCH     ACCESS:    5578593  HIT:    1004212  MISS:    4574381  iACCESS:    2970581  iHIT:     688286  iMISS:    2282295  dACCESS:    2608012  dHIT:     315926  dMISS:    2292086  itACCESS:          0  itHIT:          0  itMISS:          0  dtACCESS:          0  dtHIT:          0  dtMISS:          0
cpu0_L2C WRITE        ACCESS:     338951  HIT:      94749  MISS:     244202  iACCESS:          0  iHIT:          0  iMISS:          0  dACCESS:     338951  dHIT:      94749  dMISS:     244202  itACCESS:          0  itHIT:          0  itMISS:          0  dtACCESS:          0  dtHIT:          0  dtMISS:          0
cpu0_L2C TRANSLATION  ACCESS:     490366  HIT:     195300  MISS:     295066  iACCESS:          0  iHIT:          0  iMISS:          0  dACCESS:          0  dHIT:          0  dMISS:          0  itACCESS:     119685  itHIT:      42717  itMISS:      76968  dtACCESS:     370681  dtHIT:     152583  dtMISS:     218098
cpu0_L2C PREFETCH  REQUESTED:    1552281  ISSUED:    1552277  CROSSED:          0  USEFUL:     416810  USELESS:     501589
cpu0_L2C AVERAGE iMISS LATENCY: 27.5162 cycles
cpu0_L2C AVERAGE dMISS LATENCY: 51.1149 cycles
cpu0_L2C AVERAGE itMISS LATENCY: 1.70529 cycles
cpu0_L2C AVERAGE dtMISS LATENCY: 5.14811 cycles
cpu0_L2C PAGE CROSSINGS (TLB HIT):         0 
cpu0_L2C PAGE CROSSINGS (TLB MISS):         0 
cpu0_L2C AVERAGE MISS LATENCY: 85.4844 cycles
LLC TOTAL       ACCESS:    6948124  HIT:    4123563  MISS:    2824561  iACCESS:    2922740  iHIT:    2025618  iMISS:     897122  dACCESS:    3730318  dHIT:    2032125  dMISS:    1698193  itACCESS:      76968  itHIT:      17070  itMISS:      59898  dtACCESS:     218098  dtHIT:      48750  dtMISS:     169348
LLC LOAD         ACCESS:    1838338  HIT:    1160560  MISS:     677778  iACCESS:     733666  iHIT:     544268  iMISS:     189398  dACCESS:    1104672  dHIT:     616292  dMISS:     488380  itACCESS:          0  itHIT:          0  itMISS:          0  dtACCESS:          0  dtHIT:          0  dtMISS:          0
LLC RFO          ACCESS:     189988  HIT:      93191  MISS:      96797  iACCESS:          0  iHIT:          0  iMISS:          0  dACCESS:     189988  dHIT:      93191  dMISS:      96797  itACCESS:          0  itHIT:          0  itMISS:          0  dtACCESS:          0  dtHIT:          0  dtMISS:          0
LLC PREFETCH     ACCESS:    4351738  HIT:    2537302  MISS:    1814436  iACCESS:    2189074  iHIT:    1481350  iMISS:     707724  dACCESS:    2162664  dHIT:    1055952  dMISS:    1106712  itACCESS:          0  itHIT:          0  itMISS:          0  dtACCESS:          0  dtHIT:          0  dtMISS:          0
LLC WRITE        ACCESS:     272994  HIT:     266690  MISS:       6304  iACCESS:          0  iHIT:          0  iMISS:          0  dACCESS:     272994  dHIT:     266690  dMISS:       6304  itACCESS:          0  itHIT:          0  itMISS:          0  dtACCESS:          0  dtHIT:          0  dtMISS:          0
LLC TRANSLATION  ACCESS:     295066  HIT:      65820  MISS:     229246  iACCESS:          0  iHIT:          0  iMISS:          0  dACCESS:          0  dHIT:          0  dMISS:          0  itACCESS:      76968  itHIT:      17070  itMISS:      59898  dtACCESS:     218098  dtHIT:      48750  dtMISS:     169348
LLC PREFETCH  REQUESTED:          0  ISSUED:          0  CROSSED:          0  USEFUL:          0  USELESS:          0
LLC AVERAGE iMISS LATENCY: 49.5435 cycles
LLC AVERAGE dMISS LATENCY: 106.494 cycles
LLC AVERAGE itMISS LATENCY: 3.77911 cycles
LLC AVERAGE dtMISS LATENCY: 11.5095 cycles
LLC PAGE CROSSINGS (TLB HIT):         0 
LLC PAGE CROSSINGS (TLB MISS):         0 
LLC AVERAGE MISS LATENCY: 171.326 cycles

PageTableWalker TOTAL       ACCESS:     187564  
PageTableWalker AVERAGE LATENCY: 5.87176 cycles
PageTableWalker TOTAL LATENCY: 1101329 cycles

DRAM Statistics
Channel 0
 RQ ROW_BUFFER_HIT:     647141
  ROW_BUFFER_MISS:    2153146
 AVG DBUS CONGESTED CYCLE:    3.65662
 WQ ROW_BUFFER_HIT:      68684
  ROW_BUFFER_MISS:      63391  FULL:          0

