last_page:0x200000000000000
VMEM_RES_CAP:0x100000
PAGE_SIZE:4096
LOG2_PAGE_SIZE:12
LOG2_PAGE_TABLE_SIZE:9
page_table_levels:5
WARNING: physical memory size is smaller than virtual memory size
FDiP enabled with aggresivity 16

*** ChampSim Multicore Out-of-Order Simulator ***

Warmup Instructions: 50000000
Simulation Instructions: 100000000
Number of CPUs: 1
Small page size: 4096
Large page size: 2097152

CPU 0 Bimodal branch predictor
Basic BTB sets: 1024 ways: 8 indirect buffer size: 4096 RAS size: 64
Instruction page size distrubution: 0
Loading instruction page size distribution from /home/bsc/bsc018186/scratch/itp_asplos25_AE/dump/smt_srv540_ap_srv551_ap_1024i.pdst
Data page size distrubution: 0
Loading data page size distribution from /home/bsc/bsc018186/scratch/itp_asplos25_AE/dump/smt_srv540_ap_srv551_ap_1024i.pdst
cpu0_L2C IP-based stride prefetcher
cpu0_L1D next line prefetcher
CHiRPing...
cpu0_L1I next line prefetcher
Off-chip DRAM Size: 4 GiB Channels: 1 Width: 64-bit Data Rate: 3200 MT/s
Heartbeat CPU 0 instructions: 10000003 cycles: 2500445 heartbeat IPC: 3.99929 cumulative IPC: 3.99929 (Simulation time: 0 hr 0 min 42 sec) 
Heartbeat CPU 0 instructions: 20000003 cycles: 5000658 heartbeat IPC: 3.99966 cumulative IPC: 3.99948 (Simulation time: 0 hr 1 min 27 sec) 
Heartbeat CPU 0 instructions: 30000000 cycles: 7500970 heartbeat IPC: 3.9995 cumulative IPC: 3.99949 (Simulation time: 0 hr 2 min 12 sec) 
Heartbeat CPU 0 instructions: 40000003 cycles: 10001225 heartbeat IPC: 3.9996 cumulative IPC: 3.99952 (Simulation time: 0 hr 2 min 57 sec) 
Heartbeat CPU 0 instructions: 50000001 cycles: 12501703 heartbeat IPC: 3.99924 cumulative IPC: 3.99946 (Simulation time: 0 hr 3 min 42 sec) 
Warmup finished CPU 0 instructions: 50000001 cycles: 12501704 cumulative IPC: 3.99946 (Simulation time: 0 hr 3 min 42 sec) 

Warmup complete CPU 0 instructions: 50000001 cycles: 12501704 (Simulation time: 0 hr 3 min 42 sec) 

Heartbeat CPU 0 instructions: 60000000 cycles: 40546526 heartbeat IPC: 0.356573 cumulative IPC: 0.356573 (Simulation time: 0 hr 5 min 9 sec) 
Heartbeat CPU 0 instructions: 70000000 cycles: 68932405 heartbeat IPC: 0.352288 cumulative IPC: 0.354417 (Simulation time: 0 hr 6 min 36 sec) 
Heartbeat CPU 0 instructions: 80000002 cycles: 96923434 heartbeat IPC: 0.357258 cumulative IPC: 0.355359 (Simulation time: 0 hr 8 min 4 sec) 
Heartbeat CPU 0 instructions: 90000000 cycles: 124802622 heartbeat IPC: 0.358691 cumulative IPC: 0.356186 (Simulation time: 0 hr 9 min 31 sec) 
Heartbeat CPU 0 instructions: 100000003 cycles: 153665059 heartbeat IPC: 0.346472 cumulative IPC: 0.3542 (Simulation time: 0 hr 11 min 1 sec) 
Heartbeat CPU 0 instructions: 110000000 cycles: 180562622 heartbeat IPC: 0.371781 cumulative IPC: 0.357014 (Simulation time: 0 hr 12 min 29 sec) 
Heartbeat CPU 0 instructions: 120000002 cycles: 205146793 heartbeat IPC: 0.406766 cumulative IPC: 0.363363 (Simulation time: 0 hr 13 min 56 sec) 
Heartbeat CPU 0 instructions: 130000000 cycles: 222144655 heartbeat IPC: 0.58831 cumulative IPC: 0.381602 (Simulation time: 0 hr 15 min 15 sec) 
Heartbeat CPU 0 instructions: 140000002 cycles: 239840540 heartbeat IPC: 0.565104 cumulative IPC: 0.395885 (Simulation time: 0 hr 16 min 33 sec) 
Heartbeat CPU 0 instructions: 150000001 cycles: 268186115 heartbeat IPC: 0.352789 cumulative IPC: 0.391108 (Simulation time: 0 hr 18 min 3 sec) 
Simulation finished CPU 0 instructions: 100000000 cycles: 255684412 cumulative IPC: 0.391108 (Simulation time: 0 hr 18 min 3 sec) 

Simulation complete CPU 0 instructions: 100000000 cycles: 255684412 (Simulation time: 0 hr 18 min 3 sec) 


ChampSim completed all CPUs

Saving instructions large page distribution to /home/bsc/bsc018186/scratch/itp_asplos25_AE/dump/smt_srv540_ap_srv551_ap_1024i.pdst...
Saving data large page distribution to /home/bsc/bsc018186/scratch/itp_asplos25_AE/dump/smt_srv540_ap_srv551_ap_1024i.pdst...
=== Simulation ===
CPU 0 runs /gpfs/projects/bsc18/MN4/bsc18/romol/ChampSim/traces/qualcomm_srv/smt_srv540_ap_srv551_ap_1024i.champsimtrace.xz

Region of Interest Statistics

CPU 0 cumulative IPC: 0.391108 instructions: 100000000 cycles: 255684412
CPU 0 Branch Prediction Accuracy: 77.9969% MPKI: 42.4508 Average ROB Occupancy at Mispredict: 11.4953
Branch type MPKI
BRANCH_DIRECT_JUMP: 1.234
BRANCH_INDIRECT: 22.8261
BRANCH_CONDITIONAL: 11.6402
BRANCH_DIRECT_CALL: 2.3668
BRANCH_INDIRECT_CALL: 1.07039
BRANCH_RETURN: 3.31347

Instructions large pages: 0
Instructions small pages: 10131
Large page distribution for instructions: 0%

Data large pages: 0
Data small pages: 8688
Large page distribution for data: 0%

cpu0_L1I TOTAL       ACCESS:   40017343  HIT:   31898455  MISS:    8118888  iACCESS:   40017343  iHIT:   31898455  iMISS:    8118888  dACCESS:          0  dHIT:          0  dMISS:          0  itACCESS:          0  itHIT:          0  itMISS:          0  dtACCESS:          0  dtHIT:          0  dtMISS:          0
cpu0_L1I LOAD         ACCESS:   11414832  HIT:    9212665  MISS:    2202167  iACCESS:   11414832  iHIT:    9212665  iMISS:    2202167  dACCESS:          0  dHIT:          0  dMISS:          0  itACCESS:          0  itHIT:          0  itMISS:          0  dtACCESS:          0  dtHIT:          0  dtMISS:          0
cpu0_L1I RFO          ACCESS:          0  HIT:          0  MISS:          0  iACCESS:          0  iHIT:          0  iMISS:          0  dACCESS:          0  dHIT:          0  dMISS:          0  itACCESS:          0  itHIT:          0  itMISS:          0  dtACCESS:          0  dtHIT:          0  dtMISS:          0
cpu0_L1I PREFETCH     ACCESS:   28602511  HIT:   22685790  MISS:    5916721  iACCESS:   28602511  iHIT:   22685790  iMISS:    5916721  dACCESS:          0  dHIT:          0  dMISS:          0  itACCESS:          0  itHIT:          0  itMISS:          0  dtACCESS:          0  dtHIT:          0  dtMISS:          0
cpu0_L1I WRITE        ACCESS:          0  HIT:          0  MISS:          0  iACCESS:          0  iHIT:          0  iMISS:          0  dACCESS:          0  dHIT:          0  dMISS:          0  itACCESS:          0  itHIT:          0  itMISS:          0  dtACCESS:          0  dtHIT:          0  dtMISS:          0
cpu0_L1I TRANSLATION  ACCESS:          0  HIT:          0  MISS:          0  iACCESS:          0  iHIT:          0  iMISS:          0  dACCESS:          0  dHIT:          0  dMISS:          0  itACCESS:          0  itHIT:          0  itMISS:          0  dtACCESS:          0  dtHIT:          0  dtMISS:          0
cpu0_L1I PREFETCH  REQUESTED:   31117974  ISSUED:   31116520  CROSSED:          0  USEFUL:    1962484  USELESS:     677027
cpu0_L1I AVERAGE iMISS LATENCY: 24.1731 cycles
cpu0_L1I AVERAGE dMISS LATENCY: 0 cycles
cpu0_L1I AVERAGE itMISS LATENCY: 0 cycles
cpu0_L1I AVERAGE dtMISS LATENCY: 0 cycles
cpu0_L1I PAGE CROSSINGS (TLB HIT):         0 
cpu0_L1I PAGE CROSSINGS (TLB MISS):         0 
cpu0_L1I AVERAGE MISS LATENCY: 24.1731 cycles
cpu0_ITLB TOTAL       ACCESS:   33477011  HIT:   31510475  MISS:    1966536  iACCESS:   33477011  iHIT:   31510475  iMISS:    1966536  dACCESS:          0  dHIT:          0  dMISS:          0  itACCESS:          0  itHIT:          0  itMISS:          0  dtACCESS:          0  dtHIT:          0  dtMISS:          0
cpu0_ITLB LOAD         ACCESS:   33477011  HIT:   31510475  MISS:    1966536  iACCESS:   33477011  iHIT:   31510475  iMISS:    1966536  dACCESS:          0  dHIT:          0  dMISS:          0  itACCESS:          0  itHIT:          0  itMISS:          0  dtACCESS:          0  dtHIT:          0  dtMISS:          0
cpu0_ITLB RFO          ACCESS:          0  HIT:          0  MISS:          0  iACCESS:          0  iHIT:          0  iMISS:          0  dACCESS:          0  dHIT:          0  dMISS:          0  itACCESS:          0  itHIT:          0  itMISS:          0  dtACCESS:          0  dtHIT:          0  dtMISS:          0
cpu0_ITLB PREFETCH     ACCESS:          0  HIT:          0  MISS:          0  iACCESS:          0  iHIT:          0  iMISS:          0  dACCESS:          0  dHIT:          0  dMISS:          0  itACCESS:          0  itHIT:          0  itMISS:          0  dtACCESS:          0  dtHIT:          0  dtMISS:          0
cpu0_ITLB WRITE        ACCESS:          0  HIT:          0  MISS:          0  iACCESS:          0  iHIT:          0  iMISS:          0  dACCESS:          0  dHIT:          0  dMISS:          0  itACCESS:          0  itHIT:          0  itMISS:          0  dtACCESS:          0  dtHIT:          0  dtMISS:          0
cpu0_ITLB TRANSLATION  ACCESS:          0  HIT:          0  MISS:          0  iACCESS:          0  iHIT:          0  iMISS:          0  dACCESS:          0  dHIT:          0  dMISS:          0  itACCESS:          0  itHIT:          0  itMISS:          0  dtACCESS:          0  dtHIT:          0  dtMISS:          0
cpu0_ITLB PREFETCH  REQUESTED:          0  ISSUED:          0  CROSSED:          0  USEFUL:     345734  USELESS:      70409
cpu0_ITLB AVERAGE iMISS LATENCY: 7.94212 cycles
cpu0_ITLB AVERAGE dMISS LATENCY: 0 cycles
cpu0_ITLB AVERAGE itMISS LATENCY: 0 cycles
cpu0_ITLB AVERAGE dtMISS LATENCY: 0 cycles
cpu0_ITLB PAGE CROSSINGS (TLB HIT):         0 
cpu0_ITLB PAGE CROSSINGS (TLB MISS):         0 
cpu0_ITLB AVERAGE MISS LATENCY: 7.94212 cycles
cpu0_DTLB TOTAL       ACCESS:   30754445  HIT:   24665972  MISS:    6088473  iACCESS:          0  iHIT:          0  iMISS:          0  dACCESS:   30754445  dHIT:   24665972  dMISS:    6088473  itACCESS:          0  itHIT:          0  itMISS:          0  dtACCESS:          0  dtHIT:          0  dtMISS:          0
cpu0_DTLB LOAD         ACCESS:   30754445  HIT:   24665972  MISS:    6088473  iACCESS:          0  iHIT:          0  iMISS:          0  dACCESS:   30754445  dHIT:   24665972  dMISS:    6088473  itACCESS:          0  itHIT:          0  itMISS:          0  dtACCESS:          0  dtHIT:          0  dtMISS:          0
cpu0_DTLB RFO          ACCESS:          0  HIT:          0  MISS:          0  iACCESS:          0  iHIT:          0  iMISS:          0  dACCESS:          0  dHIT:          0  dMISS:          0  itACCESS:          0  itHIT:          0  itMISS:          0  dtACCESS:          0  dtHIT:          0  dtMISS:          0
cpu0_DTLB PREFETCH     ACCESS:          0  HIT:          0  MISS:          0  iACCESS:          0  iHIT:          0  iMISS:          0  dACCESS:          0  dHIT:          0  dMISS:          0  itACCESS:          0  itHIT:          0  itMISS:          0  dtACCESS:          0  dtHIT:          0  dtMISS:          0
cpu0_DTLB WRITE        ACCESS:          0  HIT:          0  MISS:          0  iACCESS:          0  iHIT:          0  iMISS:          0  dACCESS:          0  dHIT:          0  dMISS:          0  itACCESS:          0  itHIT:          0  itMISS:          0  dtACCESS:          0  dtHIT:          0  dtMISS:          0
cpu0_DTLB TRANSLATION  ACCESS:          0  HIT:          0  MISS:          0  iACCESS:          0  iHIT:          0  iMISS:          0  dACCESS:          0  dHIT:          0  dMISS:          0  itACCESS:          0  itHIT:          0  itMISS:          0  dtACCESS:          0  dtHIT:          0  dtMISS:          0
cpu0_DTLB PREFETCH  REQUESTED:          0  ISSUED:          0  CROSSED:          0  USEFUL:          0  USELESS:          0
cpu0_DTLB AVERAGE iMISS LATENCY: 0 cycles
cpu0_DTLB AVERAGE dMISS LATENCY: 10.5436 cycles
cpu0_DTLB AVERAGE itMISS LATENCY: 0 cycles
cpu0_DTLB AVERAGE dtMISS LATENCY: 0 cycles
cpu0_DTLB PAGE CROSSINGS (TLB HIT):         0 
cpu0_DTLB PAGE CROSSINGS (TLB MISS):         0 
cpu0_DTLB AVERAGE MISS LATENCY: 10.5436 cycles
cpu0_STLB TOTAL       ACCESS:    3672094  HIT:    3343375  MISS:     328719  iACCESS:     416156  iHIT:     312504  iMISS:     103652  dACCESS:    3255938  dHIT:    3030871  dMISS:     225067  itACCESS:          0  itHIT:          0  itMISS:          0  dtACCESS:          0  dtHIT:          0  dtMISS:          0
cpu0_STLB LOAD         ACCESS:    3672094  HIT:    3343375  MISS:     328719  iACCESS:     416156  iHIT:     312504  iMISS:     103652  dACCESS:    3255938  dHIT:    3030871  dMISS:     225067  itACCESS:          0  itHIT:          0  itMISS:          0  dtACCESS:          0  dtHIT:          0  dtMISS:          0
cpu0_STLB RFO          ACCESS:          0  HIT:          0  MISS:          0  iACCESS:          0  iHIT:          0  iMISS:          0  dACCESS:          0  dHIT:          0  dMISS:          0  itACCESS:          0  itHIT:          0  itMISS:          0  dtACCESS:          0  dtHIT:          0  dtMISS:          0
cpu0_STLB PREFETCH     ACCESS:          0  HIT:          0  MISS:          0  iACCESS:          0  iHIT:          0  iMISS:          0  dACCESS:          0  dHIT:          0  dMISS:          0  itACCESS:          0  itHIT:          0  itMISS:          0  dtACCESS:          0  dtHIT:          0  dtMISS:          0
cpu0_STLB WRITE        ACCESS:          0  HIT:          0  MISS:          0  iACCESS:          0  iHIT:          0  iMISS:          0  dACCESS:          0  dHIT:          0  dMISS:          0  itACCESS:          0  itHIT:          0  itMISS:          0  dtACCESS:          0  dtHIT:          0  dtMISS:          0
cpu0_STLB TRANSLATION  ACCESS:          0  HIT:          0  MISS:          0  iACCESS:          0  iHIT:          0  iMISS:          0  dACCESS:          0  dHIT:          0  dMISS:          0  itACCESS:          0  itHIT:          0  itMISS:          0  dtACCESS:          0  dtHIT:          0  dtMISS:          0
cpu0_STLB PREFETCH  REQUESTED:          0  ISSUED:          0  CROSSED:          0  USEFUL:          0  USELESS:          0
cpu0_STLB AVERAGE iMISS LATENCY: 37.387 cycles
cpu0_STLB AVERAGE dMISS LATENCY: 115.229 cycles
cpu0_STLB AVERAGE itMISS LATENCY: 0 cycles
cpu0_STLB AVERAGE dtMISS LATENCY: 0 cycles
cpu0_STLB PAGE CROSSINGS (TLB HIT):         0 
cpu0_STLB PAGE CROSSINGS (TLB MISS):         0 
cpu0_STLB AVERAGE MISS LATENCY: 152.616 cycles
cpu0_L1D TOTAL       ACCESS:   49318120  HIT:   39448540  MISS:    9869580  iACCESS:          0  iHIT:          0  iMISS:          0  dACCESS:   48848240  dHIT:   39419700  dMISS:    9428540  itACCESS:     115581  itHIT:      12484  itMISS:     103097  dtACCESS:     354299  dtHIT:      16356  dtMISS:     337943
cpu0_L1D LOAD         ACCESS:   23540366  HIT:   18336630  MISS:    5203736  iACCESS:          0  iHIT:          0  iMISS:          0  dACCESS:   23540366  dHIT:   18336630  dMISS:    5203736  itACCESS:          0  itHIT:          0  itMISS:          0  dtACCESS:          0  dtHIT:          0  dtMISS:          0
cpu0_L1D RFO          ACCESS:          0  HIT:          0  MISS:          0  iACCESS:          0  iHIT:          0  iMISS:          0  dACCESS:          0  dHIT:          0  dMISS:          0  itACCESS:          0  itHIT:          0  itMISS:          0  dtACCESS:          0  dtHIT:          0  dtMISS:          0
cpu0_L1D PREFETCH     ACCESS:   15530729  HIT:   11877723  MISS:    3653006  iACCESS:          0  iHIT:          0  iMISS:          0  dACCESS:   15530729  dHIT:   11877723  dMISS:    3653006  itACCESS:          0  itHIT:          0  itMISS:          0  dtACCESS:          0  dtHIT:          0  dtMISS:          0
cpu0_L1D WRITE        ACCESS:    9777145  HIT:    9205347  MISS:     571798  iACCESS:          0  iHIT:          0  iMISS:          0  dACCESS:    9777145  dHIT:    9205347  dMISS:     571798  itACCESS:          0  itHIT:          0  itMISS:          0  dtACCESS:          0  dtHIT:          0  dtMISS:          0
cpu0_L1D TRANSLATION  ACCESS:     469880  HIT:      28840  MISS:     441040  iACCESS:          0  iHIT:          0  iMISS:          0  dACCESS:          0  dHIT:          0  dMISS:          0  itACCESS:     115581  itHIT:      12484  itMISS:     103097  dtACCESS:     354299  dtHIT:      16356  dtMISS:     337943
cpu0_L1D PREFETCH  REQUESTED:   23540366  ISSUED:   18824357  CROSSED:          0  USEFUL:     326977  USELESS:    1085572
cpu0_L1D AVERAGE iMISS LATENCY: 0 cycles
cpu0_L1D AVERAGE dMISS LATENCY: 30.4656 cycles
cpu0_L1D AVERAGE itMISS LATENCY: 1.14573 cycles
cpu0_L1D AVERAGE dtMISS LATENCY: 3.43848 cycles
cpu0_L1D PAGE CROSSINGS (TLB HIT):         0 
cpu0_L1D PAGE CROSSINGS (TLB MISS):         0 
cpu0_L1D AVERAGE MISS LATENCY: 35.0498 cycles
cpu0_L2C TOTAL       ACCESS:    9792654  HIT:    2159774  MISS:    7632880  iACCESS:    3345497  iHIT:     704507  iMISS:    2640990  dACCESS:    6026427  dHIT:    1289360  dMISS:    4737067  itACCESS:     102952  itHIT:      35662  itMISS:      67290  dtACCESS:     317778  dtHIT:     130245  dtMISS:     187533
cpu0_L2C LOAD         ACCESS:    3622524  HIT:     844590  MISS:    2777934  iACCESS:     737867  iHIT:      95623  iMISS:     642244  dACCESS:    2884657  dHIT:     748967  dMISS:    2135690  itACCESS:          0  itHIT:          0  itMISS:          0  dtACCESS:          0  dtHIT:          0  dtMISS:          0
cpu0_L2C RFO          ACCESS:     226665  HIT:      39706  MISS:     186959  iACCESS:          0  iHIT:          0  iMISS:          0  dACCESS:     226665  dHIT:      39706  dMISS:     186959  itACCESS:          0  itHIT:          0  itMISS:          0  dtACCESS:          0  dtHIT:          0  dtMISS:          0
cpu0_L2C PREFETCH     ACCESS:    5197652  HIT:    1006992  MISS:    4190660  iACCESS:    2607630  iHIT:     608884  iMISS:    1998746  dACCESS:    2590022  dHIT:     398108  dMISS:    2191914  itACCESS:          0  itHIT:          0  itMISS:          0  dtACCESS:          0  dtHIT:          0  dtMISS:          0
cpu0_L2C WRITE        ACCESS:     325083  HIT:     102579  MISS:     222504  iACCESS:          0  iHIT:          0  iMISS:          0  dACCESS:     325083  dHIT:     102579  dMISS:     222504  itACCESS:          0  itHIT:          0  itMISS:          0  dtACCESS:          0  dtHIT:          0  dtMISS:          0
cpu0_L2C TRANSLATION  ACCESS:     420730  HIT:     165907  MISS:     254823  iACCESS:          0  iHIT:          0  iMISS:          0  dACCESS:          0  dHIT:          0  dMISS:          0  itACCESS:     102952  itHIT:      35662  itMISS:      67290  dtACCESS:     317778  dtHIT:     130245  dtMISS:     187533
cpu0_L2C PREFETCH  REQUESTED:    1390008  ISSUED:    1390008  CROSSED:          0  USEFUL:     366945  USELESS:     435724
cpu0_L2C AVERAGE iMISS LATENCY: 21.9721 cycles
cpu0_L2C AVERAGE dMISS LATENCY: 44.1969 cycles
cpu0_L2C AVERAGE itMISS LATENCY: 1.3509 cycles
cpu0_L2C AVERAGE dtMISS LATENCY: 4.04501 cycles
cpu0_L2C PAGE CROSSINGS (TLB HIT):         0 
cpu0_L2C PAGE CROSSINGS (TLB MISS):         0 
cpu0_L2C AVERAGE MISS LATENCY: 71.5649 cycles
LLC TOTAL       ACCESS:    7447346  HIT:    5066154  MISS:    2381192  iACCESS:    2559283  iHIT:    1805809  iMISS:     753474  dACCESS:    4633240  dHIT:    3198198  dMISS:    1435042  itACCESS:      67290  itHIT:      16944  itMISS:      50346  dtACCESS:     187533  dtHIT:      45203  dtMISS:     142330
LLC LOAD         ACCESS:    2770568  HIT:    2195450  MISS:     575118  iACCESS:     640944  iHIT:     480781  iMISS:     160163  dACCESS:    2129624  dHIT:    1714669  dMISS:     414955  itACCESS:          0  itHIT:          0  itMISS:          0  dtACCESS:          0  dtHIT:          0  dtMISS:          0
LLC RFO          ACCESS:     186946  HIT:     106303  MISS:      80643  iACCESS:          0  iHIT:          0  iMISS:          0  dACCESS:     186946  dHIT:     106303  dMISS:      80643  itACCESS:          0  itHIT:          0  itMISS:          0  dtACCESS:          0  dtHIT:          0  dtMISS:          0
LLC PREFETCH     ACCESS:    3979488  HIT:    2451755  MISS:    1527733  iACCESS:    1918339  iHIT:    1325028  iMISS:     593311  dACCESS:    2061149  dHIT:    1126727  dMISS:     934422  itACCESS:          0  itHIT:          0  itMISS:          0  dtACCESS:          0  dtHIT:          0  dtMISS:          0
LLC WRITE        ACCESS:     255521  HIT:     250499  MISS:       5022  iACCESS:          0  iHIT:          0  iMISS:          0  dACCESS:     255521  dHIT:     250499  dMISS:       5022  itACCESS:          0  itHIT:          0  itMISS:          0  dtACCESS:          0  dtHIT:          0  dtMISS:          0
LLC TRANSLATION  ACCESS:     254823  HIT:      62147  MISS:     192676  iACCESS:          0  iHIT:          0  iMISS:          0  dACCESS:          0  dHIT:          0  dMISS:          0  itACCESS:      67290  itHIT:      16944  itMISS:      50346  dtACCESS:     187533  dtHIT:      45203  dtMISS:     142330
LLC PREFETCH  REQUESTED:          0  ISSUED:          0  CROSSED:          0  USEFUL:          0  USELESS:          0
LLC AVERAGE iMISS LATENCY: 49.5597 cycles
LLC AVERAGE dMISS LATENCY: 107.042 cycles
LLC AVERAGE itMISS LATENCY: 3.77389 cycles
LLC AVERAGE dtMISS LATENCY: 11.4159 cycles
LLC PAGE CROSSINGS (TLB HIT):         0 
LLC PAGE CROSSINGS (TLB MISS):         0 
LLC AVERAGE MISS LATENCY: 171.791 cycles

PageTableWalker TOTAL       ACCESS:     194768  
PageTableWalker AVERAGE LATENCY: 5.78387 cycles
PageTableWalker TOTAL LATENCY: 1126512 cycles

DRAM Statistics
Channel 0
 RQ ROW_BUFFER_HIT:     531174
  ROW_BUFFER_MISS:    1825562
 AVG DBUS CONGESTED CYCLE:    3.65295
 WQ ROW_BUFFER_HIT:      58039
  ROW_BUFFER_MISS:      55191  FULL:          0

