last_page:0x200000000000000
VMEM_RES_CAP:0x100000
PAGE_SIZE:4096
LOG2_PAGE_SIZE:12
LOG2_PAGE_TABLE_SIZE:9
page_table_levels:5
WARNING: physical memory size is smaller than virtual memory size
FDiP enabled with aggresivity 16

*** ChampSim Multicore Out-of-Order Simulator ***

Warmup Instructions: 50000000
Simulation Instructions: 100000000
Number of CPUs: 1
Small page size: 4096
Large page size: 2097152

CPU 0 Bimodal branch predictor
Basic BTB sets: 1024 ways: 8 indirect buffer size: 4096 RAS size: 64
Instruction page size distrubution: 0
Loading instruction page size distribution from /home/bsc/bsc018186/scratch/itp_asplos25_AE/dump/smt_srv207_ap_srv298_ap_1024i.pdst
Data page size distrubution: 0
Loading data page size distribution from /home/bsc/bsc018186/scratch/itp_asplos25_AE/dump/smt_srv207_ap_srv298_ap_1024i.pdst
cpu0_L2C IP-based stride prefetcher
cpu0_L1D next line prefetcher
CHiRPing...
cpu0_L1I next line prefetcher
Off-chip DRAM Size: 4 GiB Channels: 1 Width: 64-bit Data Rate: 3200 MT/s
Heartbeat CPU 0 instructions: 10000002 cycles: 2500449 heartbeat IPC: 3.99929 cumulative IPC: 3.99929 (Simulation time: 0 hr 0 min 40 sec) 
Heartbeat CPU 0 instructions: 20000000 cycles: 5000766 heartbeat IPC: 3.9995 cumulative IPC: 3.99939 (Simulation time: 0 hr 1 min 23 sec) 
Heartbeat CPU 0 instructions: 30000001 cycles: 7501020 heartbeat IPC: 3.9996 cumulative IPC: 3.99946 (Simulation time: 0 hr 2 min 6 sec) 
Heartbeat CPU 0 instructions: 40000000 cycles: 10001435 heartbeat IPC: 3.99934 cumulative IPC: 3.99943 (Simulation time: 0 hr 2 min 50 sec) 
Heartbeat CPU 0 instructions: 50000002 cycles: 12501790 heartbeat IPC: 3.99944 cumulative IPC: 3.99943 (Simulation time: 0 hr 3 min 34 sec) 
Warmup finished CPU 0 instructions: 50000002 cycles: 12501791 cumulative IPC: 3.99943 (Simulation time: 0 hr 3 min 34 sec) 

Warmup complete CPU 0 instructions: 50000002 cycles: 12501791 (Simulation time: 0 hr 3 min 34 sec) 

Heartbeat CPU 0 instructions: 60000003 cycles: 39502107 heartbeat IPC: 0.370367 cumulative IPC: 0.370367 (Simulation time: 0 hr 4 min 59 sec) 
Heartbeat CPU 0 instructions: 70000001 cycles: 66263689 heartbeat IPC: 0.37367 cumulative IPC: 0.372011 (Simulation time: 0 hr 6 min 24 sec) 
Heartbeat CPU 0 instructions: 80000000 cycles: 93595353 heartbeat IPC: 0.365876 cumulative IPC: 0.369944 (Simulation time: 0 hr 7 min 51 sec) 
Heartbeat CPU 0 instructions: 90000003 cycles: 121618498 heartbeat IPC: 0.356848 cumulative IPC: 0.36658 (Simulation time: 0 hr 9 min 17 sec) 
Heartbeat CPU 0 instructions: 100000003 cycles: 148548721 heartbeat IPC: 0.371331 cumulative IPC: 0.367521 (Simulation time: 0 hr 10 min 42 sec) 
Heartbeat CPU 0 instructions: 110000001 cycles: 175925797 heartbeat IPC: 0.36527 cumulative IPC: 0.367144 (Simulation time: 0 hr 12 min 8 sec) 
Heartbeat CPU 0 instructions: 120000000 cycles: 202894658 heartbeat IPC: 0.370798 cumulative IPC: 0.367661 (Simulation time: 0 hr 13 min 33 sec) 
Heartbeat CPU 0 instructions: 130000003 cycles: 230349999 heartbeat IPC: 0.364228 cumulative IPC: 0.367229 (Simulation time: 0 hr 14 min 58 sec) 
Heartbeat CPU 0 instructions: 140000002 cycles: 258840450 heartbeat IPC: 0.350995 cumulative IPC: 0.365351 (Simulation time: 0 hr 16 min 25 sec) 
Heartbeat CPU 0 instructions: 150000002 cycles: 286412228 heartbeat IPC: 0.36269 cumulative IPC: 0.365083 (Simulation time: 0 hr 17 min 51 sec) 
Simulation finished CPU 0 instructions: 100000000 cycles: 273910438 cumulative IPC: 0.365083 (Simulation time: 0 hr 17 min 51 sec) 

Simulation complete CPU 0 instructions: 100000000 cycles: 273910438 (Simulation time: 0 hr 17 min 51 sec) 


ChampSim completed all CPUs

Saving instructions large page distribution to /home/bsc/bsc018186/scratch/itp_asplos25_AE/dump/smt_srv207_ap_srv298_ap_1024i.pdst...
Saving data large page distribution to /home/bsc/bsc018186/scratch/itp_asplos25_AE/dump/smt_srv207_ap_srv298_ap_1024i.pdst...
=== Simulation ===
CPU 0 runs /gpfs/projects/bsc18/MN4/bsc18/romol/ChampSim/traces/qualcomm_srv/smt_srv207_ap_srv298_ap_1024i.champsimtrace.xz

Region of Interest Statistics

CPU 0 cumulative IPC: 0.365083 instructions: 100000000 cycles: 273910438
CPU 0 Branch Prediction Accuracy: 75.5505% MPKI: 43.964 Average ROB Occupancy at Mispredict: 11.1068
Branch type MPKI
BRANCH_DIRECT_JUMP: 1.3281
BRANCH_INDIRECT: 23.3394
BRANCH_CONDITIONAL: 12.3548
BRANCH_DIRECT_CALL: 2.50712
BRANCH_INDIRECT_CALL: 0.948321
BRANCH_RETURN: 3.48622

Instructions large pages: 0
Instructions small pages: 15016
Large page distribution for instructions: 0%

Data large pages: 0
Data small pages: 13640
Large page distribution for data: 0%

cpu0_L1I TOTAL       ACCESS:   39217170  HIT:   30038172  MISS:    9178998  iACCESS:   39217170  iHIT:   30038172  iMISS:    9178998  dACCESS:          0  dHIT:          0  dMISS:          0  itACCESS:          0  itHIT:          0  itMISS:          0  dtACCESS:          0  dtHIT:          0  dtMISS:          0
cpu0_L1I LOAD         ACCESS:   11631536  HIT:    9127965  MISS:    2503571  iACCESS:   11631536  iHIT:    9127965  iMISS:    2503571  dACCESS:          0  dHIT:          0  dMISS:          0  itACCESS:          0  itHIT:          0  itMISS:          0  dtACCESS:          0  dtHIT:          0  dtMISS:          0
cpu0_L1I RFO          ACCESS:          0  HIT:          0  MISS:          0  iACCESS:          0  iHIT:          0  iMISS:          0  dACCESS:          0  dHIT:          0  dMISS:          0  itACCESS:          0  itHIT:          0  itMISS:          0  dtACCESS:          0  dtHIT:          0  dtMISS:          0
cpu0_L1I PREFETCH     ACCESS:   27585634  HIT:   20910207  MISS:    6675427  iACCESS:   27585634  iHIT:   20910207  iMISS:    6675427  dACCESS:          0  dHIT:          0  dMISS:          0  itACCESS:          0  itHIT:          0  itMISS:          0  dtACCESS:          0  dtHIT:          0  dtMISS:          0
cpu0_L1I WRITE        ACCESS:          0  HIT:          0  MISS:          0  iACCESS:          0  iHIT:          0  iMISS:          0  dACCESS:          0  dHIT:          0  dMISS:          0  itACCESS:          0  itHIT:          0  itMISS:          0  dtACCESS:          0  dtHIT:          0  dtMISS:          0
cpu0_L1I TRANSLATION  ACCESS:          0  HIT:          0  MISS:          0  iACCESS:          0  iHIT:          0  iMISS:          0  dACCESS:          0  dHIT:          0  dMISS:          0  itACCESS:          0  itHIT:          0  itMISS:          0  dtACCESS:          0  dtHIT:          0  dtMISS:          0
cpu0_L1I PREFETCH  REQUESTED:   30137553  ISSUED:   30136231  CROSSED:          0  USEFUL:    2186892  USELESS:     775937
cpu0_L1I AVERAGE iMISS LATENCY: 23.7121 cycles
cpu0_L1I AVERAGE dMISS LATENCY: 0 cycles
cpu0_L1I AVERAGE itMISS LATENCY: 0 cycles
cpu0_L1I AVERAGE dtMISS LATENCY: 0 cycles
cpu0_L1I PAGE CROSSINGS (TLB HIT):         0 
cpu0_L1I PAGE CROSSINGS (TLB MISS):         0 
cpu0_L1I AVERAGE MISS LATENCY: 23.7121 cycles
cpu0_ITLB TOTAL       ACCESS:   32978733  HIT:   30750140  MISS:    2228593  iACCESS:   32978733  iHIT:   30750140  iMISS:    2228593  dACCESS:          0  dHIT:          0  dMISS:          0  itACCESS:          0  itHIT:          0  itMISS:          0  dtACCESS:          0  dtHIT:          0  dtMISS:          0
cpu0_ITLB LOAD         ACCESS:   32978733  HIT:   30750140  MISS:    2228593  iACCESS:   32978733  iHIT:   30750140  iMISS:    2228593  dACCESS:          0  dHIT:          0  dMISS:          0  itACCESS:          0  itHIT:          0  itMISS:          0  dtACCESS:          0  dtHIT:          0  dtMISS:          0
cpu0_ITLB RFO          ACCESS:          0  HIT:          0  MISS:          0  iACCESS:          0  iHIT:          0  iMISS:          0  dACCESS:          0  dHIT:          0  dMISS:          0  itACCESS:          0  itHIT:          0  itMISS:          0  dtACCESS:          0  dtHIT:          0  dtMISS:          0
cpu0_ITLB PREFETCH     ACCESS:          0  HIT:          0  MISS:          0  iACCESS:          0  iHIT:          0  iMISS:          0  dACCESS:          0  dHIT:          0  dMISS:          0  itACCESS:          0  itHIT:          0  itMISS:          0  dtACCESS:          0  dtHIT:          0  dtMISS:          0
cpu0_ITLB WRITE        ACCESS:          0  HIT:          0  MISS:          0  iACCESS:          0  iHIT:          0  iMISS:          0  dACCESS:          0  dHIT:          0  dMISS:          0  itACCESS:          0  itHIT:          0  itMISS:          0  dtACCESS:          0  dtHIT:          0  dtMISS:          0
cpu0_ITLB TRANSLATION  ACCESS:          0  HIT:          0  MISS:          0  iACCESS:          0  iHIT:          0  iMISS:          0  dACCESS:          0  dHIT:          0  dMISS:          0  itACCESS:          0  itHIT:          0  itMISS:          0  dtACCESS:          0  dtHIT:          0  dtMISS:          0
cpu0_ITLB PREFETCH  REQUESTED:          0  ISSUED:          0  CROSSED:          0  USEFUL:     391977  USELESS:      80155
cpu0_ITLB AVERAGE iMISS LATENCY: 7.73269 cycles
cpu0_ITLB AVERAGE dMISS LATENCY: 0 cycles
cpu0_ITLB AVERAGE itMISS LATENCY: 0 cycles
cpu0_ITLB AVERAGE dtMISS LATENCY: 0 cycles
cpu0_ITLB PAGE CROSSINGS (TLB HIT):         0 
cpu0_ITLB PAGE CROSSINGS (TLB MISS):         0 
cpu0_ITLB AVERAGE MISS LATENCY: 7.73269 cycles
cpu0_DTLB TOTAL       ACCESS:   29149784  HIT:   25527535  MISS:    3622249  iACCESS:          0  iHIT:          0  iMISS:          0  dACCESS:   29149784  dHIT:   25527535  dMISS:    3622249  itACCESS:          0  itHIT:          0  itMISS:          0  dtACCESS:          0  dtHIT:          0  dtMISS:          0
cpu0_DTLB LOAD         ACCESS:   29149784  HIT:   25527535  MISS:    3622249  iACCESS:          0  iHIT:          0  iMISS:          0  dACCESS:   29149784  dHIT:   25527535  dMISS:    3622249  itACCESS:          0  itHIT:          0  itMISS:          0  dtACCESS:          0  dtHIT:          0  dtMISS:          0
cpu0_DTLB RFO          ACCESS:          0  HIT:          0  MISS:          0  iACCESS:          0  iHIT:          0  iMISS:          0  dACCESS:          0  dHIT:          0  dMISS:          0  itACCESS:          0  itHIT:          0  itMISS:          0  dtACCESS:          0  dtHIT:          0  dtMISS:          0
cpu0_DTLB PREFETCH     ACCESS:          0  HIT:          0  MISS:          0  iACCESS:          0  iHIT:          0  iMISS:          0  dACCESS:          0  dHIT:          0  dMISS:          0  itACCESS:          0  itHIT:          0  itMISS:          0  dtACCESS:          0  dtHIT:          0  dtMISS:          0
cpu0_DTLB WRITE        ACCESS:          0  HIT:          0  MISS:          0  iACCESS:          0  iHIT:          0  iMISS:          0  dACCESS:          0  dHIT:          0  dMISS:          0  itACCESS:          0  itHIT:          0  itMISS:          0  dtACCESS:          0  dtHIT:          0  dtMISS:          0
cpu0_DTLB TRANSLATION  ACCESS:          0  HIT:          0  MISS:          0  iACCESS:          0  iHIT:          0  iMISS:          0  dACCESS:          0  dHIT:          0  dMISS:          0  itACCESS:          0  itHIT:          0  itMISS:          0  dtACCESS:          0  dtHIT:          0  dtMISS:          0
cpu0_DTLB PREFETCH  REQUESTED:          0  ISSUED:          0  CROSSED:          0  USEFUL:          0  USELESS:          0
cpu0_DTLB AVERAGE iMISS LATENCY: 0 cycles
cpu0_DTLB AVERAGE dMISS LATENCY: 16.9817 cycles
cpu0_DTLB AVERAGE itMISS LATENCY: 0 cycles
cpu0_DTLB AVERAGE dtMISS LATENCY: 0 cycles
cpu0_DTLB PAGE CROSSINGS (TLB HIT):         0 
cpu0_DTLB PAGE CROSSINGS (TLB MISS):         0 
cpu0_DTLB AVERAGE MISS LATENCY: 16.9817 cycles
cpu0_STLB TOTAL       ACCESS:    2581485  HIT:    2213823  MISS:     367662  iACCESS:     472143  iHIT:     363133  iMISS:     109010  dACCESS:    2109342  dHIT:    1850690  dMISS:     258652  itACCESS:          0  itHIT:          0  itMISS:          0  dtACCESS:          0  dtHIT:          0  dtMISS:          0
cpu0_STLB LOAD         ACCESS:    2581485  HIT:    2213823  MISS:     367662  iACCESS:     472143  iHIT:     363133  iMISS:     109010  dACCESS:    2109342  dHIT:    1850690  dMISS:     258652  itACCESS:          0  itHIT:          0  itMISS:          0  dtACCESS:          0  dtHIT:          0  dtMISS:          0
cpu0_STLB RFO          ACCESS:          0  HIT:          0  MISS:          0  iACCESS:          0  iHIT:          0  iMISS:          0  dACCESS:          0  dHIT:          0  dMISS:          0  itACCESS:          0  itHIT:          0  itMISS:          0  dtACCESS:          0  dtHIT:          0  dtMISS:          0
cpu0_STLB PREFETCH     ACCESS:          0  HIT:          0  MISS:          0  iACCESS:          0  iHIT:          0  iMISS:          0  dACCESS:          0  dHIT:          0  dMISS:          0  itACCESS:          0  itHIT:          0  itMISS:          0  dtACCESS:          0  dtHIT:          0  dtMISS:          0
cpu0_STLB WRITE        ACCESS:          0  HIT:          0  MISS:          0  iACCESS:          0  iHIT:          0  iMISS:          0  dACCESS:          0  dHIT:          0  dMISS:          0  itACCESS:          0  itHIT:          0  itMISS:          0  dtACCESS:          0  dtHIT:          0  dtMISS:          0
cpu0_STLB TRANSLATION  ACCESS:          0  HIT:          0  MISS:          0  iACCESS:          0  iHIT:          0  iMISS:          0  dACCESS:          0  dHIT:          0  dMISS:          0  itACCESS:          0  itHIT:          0  itMISS:          0  dtACCESS:          0  dtHIT:          0  dtMISS:          0
cpu0_STLB PREFETCH  REQUESTED:          0  ISSUED:          0  CROSSED:          0  USEFUL:          0  USELESS:          0
cpu0_STLB AVERAGE iMISS LATENCY: 36.6305 cycles
cpu0_STLB AVERAGE dMISS LATENCY: 121.207 cycles
cpu0_STLB AVERAGE itMISS LATENCY: 0 cycles
cpu0_STLB AVERAGE dtMISS LATENCY: 0 cycles
cpu0_STLB PAGE CROSSINGS (TLB HIT):         0 
cpu0_STLB PAGE CROSSINGS (TLB MISS):         0 
cpu0_STLB AVERAGE MISS LATENCY: 157.837 cycles
cpu0_L1D TOTAL       ACCESS:   45056855  HIT:   39526738  MISS:    5530117  iACCESS:          0  iHIT:          0  iMISS:          0  dACCESS:   44522406  dHIT:   39492341  dMISS:    5030065  itACCESS:     123535  itHIT:      14238  itMISS:     109297  dtACCESS:     410914  dtHIT:      20159  dtMISS:     390755
cpu0_L1D LOAD         ACCESS:   20380291  HIT:   18116374  MISS:    2263917  iACCESS:          0  iHIT:          0  iMISS:          0  dACCESS:   20380291  dHIT:   18116374  dMISS:    2263917  itACCESS:          0  itHIT:          0  itMISS:          0  dtACCESS:          0  dtHIT:          0  dtMISS:          0
cpu0_L1D RFO          ACCESS:          0  HIT:          0  MISS:          0  iACCESS:          0  iHIT:          0  iMISS:          0  dACCESS:          0  dHIT:          0  dMISS:          0  itACCESS:          0  itHIT:          0  itMISS:          0  dtACCESS:          0  dtHIT:          0  dtMISS:          0
cpu0_L1D PREFETCH     ACCESS:   14006932  HIT:   11821421  MISS:    2185511  iACCESS:          0  iHIT:          0  iMISS:          0  dACCESS:   14006932  dHIT:   11821421  dMISS:    2185511  itACCESS:          0  itHIT:          0  itMISS:          0  dtACCESS:          0  dtHIT:          0  dtMISS:          0
cpu0_L1D WRITE        ACCESS:   10135183  HIT:    9554546  MISS:     580637  iACCESS:          0  iHIT:          0  iMISS:          0  dACCESS:   10135183  dHIT:    9554546  dMISS:     580637  itACCESS:          0  itHIT:          0  itMISS:          0  dtACCESS:          0  dtHIT:          0  dtMISS:          0
cpu0_L1D TRANSLATION  ACCESS:     534449  HIT:      34397  MISS:     500052  iACCESS:          0  iHIT:          0  iMISS:          0  dACCESS:          0  dHIT:          0  dMISS:          0  itACCESS:     123535  itHIT:      14238  itMISS:     109297  dtACCESS:     410914  dtHIT:      20159  dtMISS:     390755
cpu0_L1D PREFETCH  REQUESTED:   20380291  ISSUED:   18726377  CROSSED:          0  USEFUL:     377780  USELESS:     952916
cpu0_L1D AVERAGE iMISS LATENCY: 0 cycles
cpu0_L1D AVERAGE dMISS LATENCY: 51.7814 cycles
cpu0_L1D AVERAGE itMISS LATENCY: 2.25079 cycles
cpu0_L1D AVERAGE dtMISS LATENCY: 7.10485 cycles
cpu0_L1D PAGE CROSSINGS (TLB HIT):         0 
cpu0_L1D PAGE CROSSINGS (TLB MISS):         0 
cpu0_L1D AVERAGE MISS LATENCY: 61.137 cycles
cpu0_L2C TOTAL       ACCESS:    8644427  HIT:    1517823  MISS:    7126604  iACCESS:    3772363  iHIT:     789757  iMISS:    2982606  dACCESS:    4395354  dHIT:     539708  dMISS:    3855646  itACCESS:     107984  itHIT:      35922  itMISS:      72062  dtACCESS:     368726  dtHIT:     152436  dtMISS:     216290
cpu0_L2C LOAD         ACCESS:    2090809  HIT:     206978  MISS:    1883831  iACCESS:     844255  iHIT:     111489  iMISS:     732766  dACCESS:    1246554  dHIT:      95489  dMISS:    1151065  itACCESS:          0  itHIT:          0  itMISS:          0  dtACCESS:          0  dtHIT:          0  dtMISS:          0
cpu0_L2C RFO          ACCESS:     219757  HIT:      29628  MISS:     190129  iACCESS:          0  iHIT:          0  iMISS:          0  dACCESS:     219757  dHIT:      29628  dMISS:     190129  itACCESS:          0  itHIT:          0  itMISS:          0  dtACCESS:          0  dtHIT:          0  dtMISS:          0
cpu0_L2C PREFETCH     ACCESS:    5503527  HIT:     989546  MISS:    4513981  iACCESS:    2928108  iHIT:     678268  iMISS:    2249840  dACCESS:    2575419  dHIT:     311278  dMISS:    2264141  itACCESS:          0  itHIT:          0  itMISS:          0  dtACCESS:          0  dtHIT:          0  dtMISS:          0
cpu0_L2C WRITE        ACCESS:     353624  HIT:     103313  MISS:     250311  iACCESS:          0  iHIT:          0  iMISS:          0  dACCESS:     353624  dHIT:     103313  dMISS:     250311  itACCESS:          0  itHIT:          0  itMISS:          0  dtACCESS:          0  dtHIT:          0  dtMISS:          0
cpu0_L2C TRANSLATION  ACCESS:     476710  HIT:     188358  MISS:     288352  iACCESS:          0  iHIT:          0  iMISS:          0  dACCESS:          0  dHIT:          0  dMISS:          0  itACCESS:     107984  itHIT:      35922  itMISS:      72062  dtACCESS:     368726  dtHIT:     152436  dtMISS:     216290
cpu0_L2C PREFETCH  REQUESTED:    1484699  ISSUED:    1484699  CROSSED:          0  USEFUL:     399414  USELESS:     487413
cpu0_L2C AVERAGE iMISS LATENCY: 25.9608 cycles
cpu0_L2C AVERAGE dMISS LATENCY: 48.9012 cycles
cpu0_L2C AVERAGE itMISS LATENCY: 1.59969 cycles
cpu0_L2C AVERAGE dtMISS LATENCY: 5.0149 cycles
cpu0_L2C PAGE CROSSINGS (TLB HIT):         0 
cpu0_L2C PAGE CROSSINGS (TLB MISS):         0 
cpu0_L2C AVERAGE MISS LATENCY: 81.4765 cycles
LLC TOTAL       ACCESS:    6955034  HIT:    4320361  MISS:    2634673  iACCESS:    2896505  iHIT:    2081949  iMISS:     814556  dACCESS:    3770177  dHIT:    2171418  dMISS:    1598759  itACCESS:      72062  itHIT:      16364  itMISS:      55698  dtACCESS:     216290  dtHIT:      50630  dtMISS:     165660
LLC LOAD         ACCESS:    1877315  HIT:    1231211  MISS:     646104  iACCESS:     731451  iHIT:     560535  iMISS:     170916  dACCESS:    1145864  dHIT:     670676  dMISS:     475188  itACCESS:          0  itHIT:          0  itMISS:          0  dtACCESS:          0  dtHIT:          0  dtMISS:          0
LLC RFO          ACCESS:     190119  HIT:     103660  MISS:      86459  iACCESS:          0  iHIT:          0  iMISS:          0  dACCESS:     190119  dHIT:     103660  dMISS:      86459  itACCESS:          0  itHIT:          0  itMISS:          0  dtACCESS:          0  dtHIT:          0  dtMISS:          0
LLC PREFETCH     ACCESS:    4317651  HIT:    2642745  MISS:    1674906  iACCESS:    2165054  iHIT:    1521414  iMISS:     643640  dACCESS:    2152597  dHIT:    1121331  dMISS:    1031266  itACCESS:          0  itHIT:          0  itMISS:          0  dtACCESS:          0  dtHIT:          0  dtMISS:          0
LLC WRITE        ACCESS:     281597  HIT:     275751  MISS:       5846  iACCESS:          0  iHIT:          0  iMISS:          0  dACCESS:     281597  dHIT:     275751  dMISS:       5846  itACCESS:          0  itHIT:          0  itMISS:          0  dtACCESS:          0  dtHIT:          0  dtMISS:          0
LLC TRANSLATION  ACCESS:     288352  HIT:      66994  MISS:     221358  iACCESS:          0  iHIT:          0  iMISS:          0  dACCESS:          0  dHIT:          0  dMISS:          0  itACCESS:      72062  itHIT:      16364  itMISS:      55698  dtACCESS:     216290  dtHIT:      50630  dtMISS:     165660
LLC PREFETCH  REQUESTED:          0  ISSUED:          0  CROSSED:          0  USEFUL:          0  USELESS:          0
LLC AVERAGE iMISS LATENCY: 48.8789 cycles
LLC AVERAGE dMISS LATENCY: 107.064 cycles
LLC AVERAGE itMISS LATENCY: 3.78805 cycles
LLC AVERAGE dtMISS LATENCY: 11.9481 cycles
LLC PAGE CROSSINGS (TLB HIT):         0 
LLC PAGE CROSSINGS (TLB MISS):         0 
LLC AVERAGE MISS LATENCY: 171.679 cycles

PageTableWalker TOTAL       ACCESS:     181316  
PageTableWalker AVERAGE LATENCY: 5.97777 cycles
PageTableWalker TOTAL LATENCY: 1083865 cycles

DRAM Statistics
Channel 0
 RQ ROW_BUFFER_HIT:     580125
  ROW_BUFFER_MISS:    2038192
 AVG DBUS CONGESTED CYCLE:    3.64827
 WQ ROW_BUFFER_HIT:      66202
  ROW_BUFFER_MISS:      61787  FULL:          0

