last_page:0x200000000000000
VMEM_RES_CAP:0x100000
PAGE_SIZE:4096
LOG2_PAGE_SIZE:12
LOG2_PAGE_TABLE_SIZE:9
page_table_levels:5
WARNING: physical memory size is smaller than virtual memory size
FDiP enabled with aggresivity 16

*** ChampSim Multicore Out-of-Order Simulator ***

Warmup Instructions: 50000000
Simulation Instructions: 100000000
Number of CPUs: 1
Small page size: 4096
Large page size: 2097152

CPU 0 Bimodal branch predictor
Basic BTB sets: 1024 ways: 8 indirect buffer size: 4096 RAS size: 64
Instruction page size distrubution: 0
Loading instruction page size distribution from /home/bsc/bsc018186/scratch/itp_asplos25_AE/dump/smt_srv85_ap_srv346_ap_1024i.pdst
Data page size distrubution: 0
Loading data page size distribution from /home/bsc/bsc018186/scratch/itp_asplos25_AE/dump/smt_srv85_ap_srv346_ap_1024i.pdst
cpu0_L2C IP-based stride prefetcher
cpu0_L2C is using PTP replacement policy:
	TLB_STRESS_THRESHOLD:0
	PTE_EVICTION_RATIO:0
cpu0_L1D next line prefetcher
CHiRPing...
cpu0_L1I next line prefetcher
Off-chip DRAM Size: 4 GiB Channels: 1 Width: 64-bit Data Rate: 3200 MT/s
Heartbeat CPU 0 instructions: 10000003 cycles: 2500369 heartbeat IPC: 3.99942 cumulative IPC: 3.99942 (Simulation time: 0 hr 0 min 40 sec) 
Heartbeat CPU 0 instructions: 20000000 cycles: 5000740 heartbeat IPC: 3.99941 cumulative IPC: 3.99941 (Simulation time: 0 hr 1 min 21 sec) 
Heartbeat CPU 0 instructions: 30000001 cycles: 7501018 heartbeat IPC: 3.99956 cumulative IPC: 3.99946 (Simulation time: 0 hr 2 min 4 sec) 
Heartbeat CPU 0 instructions: 40000002 cycles: 10001274 heartbeat IPC: 3.9996 cumulative IPC: 3.9995 (Simulation time: 0 hr 2 min 46 sec) 
Heartbeat CPU 0 instructions: 50000000 cycles: 12501410 heartbeat IPC: 3.99979 cumulative IPC: 3.99955 (Simulation time: 0 hr 3 min 29 sec) 
Warmup finished CPU 0 instructions: 50000000 cycles: 12501411 cumulative IPC: 3.99955 (Simulation time: 0 hr 3 min 29 sec) 

Warmup complete CPU 0 instructions: 50000000 cycles: 12501411 (Simulation time: 0 hr 3 min 29 sec) 

Heartbeat CPU 0 instructions: 60000000 cycles: 41783433 heartbeat IPC: 0.341507 cumulative IPC: 0.341507 (Simulation time: 0 hr 4 min 55 sec) 
Heartbeat CPU 0 instructions: 70000003 cycles: 70822982 heartbeat IPC: 0.344359 cumulative IPC: 0.342927 (Simulation time: 0 hr 6 min 21 sec) 
Heartbeat CPU 0 instructions: 80000002 cycles: 100136795 heartbeat IPC: 0.341137 cumulative IPC: 0.342328 (Simulation time: 0 hr 7 min 48 sec) 
Heartbeat CPU 0 instructions: 90000002 cycles: 128206459 heartbeat IPC: 0.356257 cumulative IPC: 0.345707 (Simulation time: 0 hr 9 min 13 sec) 
Heartbeat CPU 0 instructions: 100000000 cycles: 157579713 heartbeat IPC: 0.340446 cumulative IPC: 0.344642 (Simulation time: 0 hr 10 min 39 sec) 
Heartbeat CPU 0 instructions: 110000002 cycles: 187040077 heartbeat IPC: 0.33944 cumulative IPC: 0.343764 (Simulation time: 0 hr 12 min 6 sec) 
Heartbeat CPU 0 instructions: 120000000 cycles: 215880949 heartbeat IPC: 0.346731 cumulative IPC: 0.344185 (Simulation time: 0 hr 13 min 32 sec) 
Heartbeat CPU 0 instructions: 130000002 cycles: 244637021 heartbeat IPC: 0.347753 cumulative IPC: 0.344627 (Simulation time: 0 hr 14 min 55 sec) 
Heartbeat CPU 0 instructions: 140000004 cycles: 273752294 heartbeat IPC: 0.343463 cumulative IPC: 0.344497 (Simulation time: 0 hr 16 min 19 sec) 
Heartbeat CPU 0 instructions: 150000000 cycles: 303441143 heartbeat IPC: 0.336827 cumulative IPC: 0.343714 (Simulation time: 0 hr 17 min 43 sec) 
Simulation finished CPU 0 instructions: 100000000 cycles: 290939733 cumulative IPC: 0.343714 (Simulation time: 0 hr 17 min 43 sec) 

Simulation complete CPU 0 instructions: 100000000 cycles: 290939733 (Simulation time: 0 hr 17 min 43 sec) 


ChampSim completed all CPUs

Saving instructions large page distribution to /home/bsc/bsc018186/scratch/itp_asplos25_AE/dump/smt_srv85_ap_srv346_ap_1024i.pdst...
Saving data large page distribution to /home/bsc/bsc018186/scratch/itp_asplos25_AE/dump/smt_srv85_ap_srv346_ap_1024i.pdst...
=== Simulation ===
CPU 0 runs /gpfs/projects/bsc18/MN4/bsc18/romol/ChampSim/traces/qualcomm_srv/smt_srv85_ap_srv346_ap_1024i.champsimtrace.xz

Region of Interest Statistics

CPU 0 cumulative IPC: 0.343714 instructions: 100000000 cycles: 290939733
CPU 0 Branch Prediction Accuracy: 75.947% MPKI: 43.2219 Average ROB Occupancy at Mispredict: 11.4188
Branch type MPKI
BRANCH_DIRECT_JUMP: 1.29362
BRANCH_INDIRECT: 22.5599
BRANCH_CONDITIONAL: 12.5539
BRANCH_DIRECT_CALL: 2.47789
BRANCH_INDIRECT_CALL: 0.914631
BRANCH_RETURN: 3.42203

Instructions large pages: 0
Instructions small pages: 13169
Large page distribution for instructions: 0%

Data large pages: 0
Data small pages: 11885
Large page distribution for data: 0%

cpu0_L1I TOTAL       ACCESS:   38861443  HIT:   30158971  MISS:    8702472  iACCESS:   38861443  iHIT:   30158971  iMISS:    8702472  dACCESS:          0  dHIT:          0  dMISS:          0  itACCESS:          0  itHIT:          0  itMISS:          0  dtACCESS:          0  dtHIT:          0  dtMISS:          0
cpu0_L1I LOAD         ACCESS:   11651126  HIT:    9271332  MISS:    2379794  iACCESS:   11651126  iHIT:    9271332  iMISS:    2379794  dACCESS:          0  dHIT:          0  dMISS:          0  itACCESS:          0  itHIT:          0  itMISS:          0  dtACCESS:          0  dtHIT:          0  dtMISS:          0
cpu0_L1I RFO          ACCESS:          0  HIT:          0  MISS:          0  iACCESS:          0  iHIT:          0  iMISS:          0  dACCESS:          0  dHIT:          0  dMISS:          0  itACCESS:          0  itHIT:          0  itMISS:          0  dtACCESS:          0  dtHIT:          0  dtMISS:          0
cpu0_L1I PREFETCH     ACCESS:   27210317  HIT:   20887639  MISS:    6322678  iACCESS:   27210317  iHIT:   20887639  iMISS:    6322678  dACCESS:          0  dHIT:          0  dMISS:          0  itACCESS:          0  itHIT:          0  itMISS:          0  dtACCESS:          0  dtHIT:          0  dtMISS:          0
cpu0_L1I WRITE        ACCESS:          0  HIT:          0  MISS:          0  iACCESS:          0  iHIT:          0  iMISS:          0  dACCESS:          0  dHIT:          0  dMISS:          0  itACCESS:          0  itHIT:          0  itMISS:          0  dtACCESS:          0  dtHIT:          0  dtMISS:          0
cpu0_L1I TRANSLATION  ACCESS:          0  HIT:          0  MISS:          0  iACCESS:          0  iHIT:          0  iMISS:          0  dACCESS:          0  dHIT:          0  dMISS:          0  itACCESS:          0  itHIT:          0  itMISS:          0  dtACCESS:          0  dtHIT:          0  dtMISS:          0
cpu0_L1I PREFETCH  REQUESTED:   30028649  ISSUED:   30028349  CROSSED:          0  USEFUL:    2190589  USELESS:     753317
cpu0_L1I AVERAGE iMISS LATENCY: 23.3055 cycles
cpu0_L1I AVERAGE dMISS LATENCY: 0 cycles
cpu0_L1I AVERAGE itMISS LATENCY: 0 cycles
cpu0_L1I AVERAGE dtMISS LATENCY: 0 cycles
cpu0_L1I PAGE CROSSINGS (TLB HIT):         0 
cpu0_L1I PAGE CROSSINGS (TLB MISS):         0 
cpu0_L1I AVERAGE MISS LATENCY: 23.3055 cycles
cpu0_ITLB TOTAL       ACCESS:   32824689  HIT:   30619074  MISS:    2205615  iACCESS:   32824689  iHIT:   30619074  iMISS:    2205615  dACCESS:          0  dHIT:          0  dMISS:          0  itACCESS:          0  itHIT:          0  itMISS:          0  dtACCESS:          0  dtHIT:          0  dtMISS:          0
cpu0_ITLB LOAD         ACCESS:   32824689  HIT:   30619074  MISS:    2205615  iACCESS:   32824689  iHIT:   30619074  iMISS:    2205615  dACCESS:          0  dHIT:          0  dMISS:          0  itACCESS:          0  itHIT:          0  itMISS:          0  dtACCESS:          0  dtHIT:          0  dtMISS:          0
cpu0_ITLB RFO          ACCESS:          0  HIT:          0  MISS:          0  iACCESS:          0  iHIT:          0  iMISS:          0  dACCESS:          0  dHIT:          0  dMISS:          0  itACCESS:          0  itHIT:          0  itMISS:          0  dtACCESS:          0  dtHIT:          0  dtMISS:          0
cpu0_ITLB PREFETCH     ACCESS:          0  HIT:          0  MISS:          0  iACCESS:          0  iHIT:          0  iMISS:          0  dACCESS:          0  dHIT:          0  dMISS:          0  itACCESS:          0  itHIT:          0  itMISS:          0  dtACCESS:          0  dtHIT:          0  dtMISS:          0
cpu0_ITLB WRITE        ACCESS:          0  HIT:          0  MISS:          0  iACCESS:          0  iHIT:          0  iMISS:          0  dACCESS:          0  dHIT:          0  dMISS:          0  itACCESS:          0  itHIT:          0  itMISS:          0  dtACCESS:          0  dtHIT:          0  dtMISS:          0
cpu0_ITLB TRANSLATION  ACCESS:          0  HIT:          0  MISS:          0  iACCESS:          0  iHIT:          0  iMISS:          0  dACCESS:          0  dHIT:          0  dMISS:          0  itACCESS:          0  itHIT:          0  itMISS:          0  dtACCESS:          0  dtHIT:          0  dtMISS:          0
cpu0_ITLB PREFETCH  REQUESTED:          0  ISSUED:          0  CROSSED:          0  USEFUL:     383253  USELESS:      77513
cpu0_ITLB AVERAGE iMISS LATENCY: 9.77074 cycles
cpu0_ITLB AVERAGE dMISS LATENCY: 0 cycles
cpu0_ITLB AVERAGE itMISS LATENCY: 0 cycles
cpu0_ITLB AVERAGE dtMISS LATENCY: 0 cycles
cpu0_ITLB PAGE CROSSINGS (TLB HIT):         0 
cpu0_ITLB PAGE CROSSINGS (TLB MISS):         0 
cpu0_ITLB AVERAGE MISS LATENCY: 9.77074 cycles
cpu0_DTLB TOTAL       ACCESS:   28764129  HIT:   25088529  MISS:    3675600  iACCESS:          0  iHIT:          0  iMISS:          0  dACCESS:   28764129  dHIT:   25088529  dMISS:    3675600  itACCESS:          0  itHIT:          0  itMISS:          0  dtACCESS:          0  dtHIT:          0  dtMISS:          0
cpu0_DTLB LOAD         ACCESS:   28764129  HIT:   25088529  MISS:    3675600  iACCESS:          0  iHIT:          0  iMISS:          0  dACCESS:   28764129  dHIT:   25088529  dMISS:    3675600  itACCESS:          0  itHIT:          0  itMISS:          0  dtACCESS:          0  dtHIT:          0  dtMISS:          0
cpu0_DTLB RFO          ACCESS:          0  HIT:          0  MISS:          0  iACCESS:          0  iHIT:          0  iMISS:          0  dACCESS:          0  dHIT:          0  dMISS:          0  itACCESS:          0  itHIT:          0  itMISS:          0  dtACCESS:          0  dtHIT:          0  dtMISS:          0
cpu0_DTLB PREFETCH     ACCESS:          0  HIT:          0  MISS:          0  iACCESS:          0  iHIT:          0  iMISS:          0  dACCESS:          0  dHIT:          0  dMISS:          0  itACCESS:          0  itHIT:          0  itMISS:          0  dtACCESS:          0  dtHIT:          0  dtMISS:          0
cpu0_DTLB WRITE        ACCESS:          0  HIT:          0  MISS:          0  iACCESS:          0  iHIT:          0  iMISS:          0  dACCESS:          0  dHIT:          0  dMISS:          0  itACCESS:          0  itHIT:          0  itMISS:          0  dtACCESS:          0  dtHIT:          0  dtMISS:          0
cpu0_DTLB TRANSLATION  ACCESS:          0  HIT:          0  MISS:          0  iACCESS:          0  iHIT:          0  iMISS:          0  dACCESS:          0  dHIT:          0  dMISS:          0  itACCESS:          0  itHIT:          0  itMISS:          0  dtACCESS:          0  dtHIT:          0  dtMISS:          0
cpu0_DTLB PREFETCH  REQUESTED:          0  ISSUED:          0  CROSSED:          0  USEFUL:          0  USELESS:          0
cpu0_DTLB AVERAGE iMISS LATENCY: 0 cycles
cpu0_DTLB AVERAGE dMISS LATENCY: 24.2242 cycles
cpu0_DTLB AVERAGE itMISS LATENCY: 0 cycles
cpu0_DTLB AVERAGE dtMISS LATENCY: 0 cycles
cpu0_DTLB PAGE CROSSINGS (TLB HIT):         0 
cpu0_DTLB PAGE CROSSINGS (TLB MISS):         0 
cpu0_DTLB AVERAGE MISS LATENCY: 24.2242 cycles
cpu0_STLB TOTAL       ACCESS:    2596205  HIT:    2226711  MISS:     369494  iACCESS:     460774  iHIT:     353255  iMISS:     107519  dACCESS:    2135431  dHIT:    1873456  dMISS:     261975  itACCESS:          0  itHIT:          0  itMISS:          0  dtACCESS:          0  dtHIT:          0  dtMISS:          0
cpu0_STLB LOAD         ACCESS:    2596205  HIT:    2226711  MISS:     369494  iACCESS:     460774  iHIT:     353255  iMISS:     107519  dACCESS:    2135431  dHIT:    1873456  dMISS:     261975  itACCESS:          0  itHIT:          0  itMISS:          0  dtACCESS:          0  dtHIT:          0  dtMISS:          0
cpu0_STLB RFO          ACCESS:          0  HIT:          0  MISS:          0  iACCESS:          0  iHIT:          0  iMISS:          0  dACCESS:          0  dHIT:          0  dMISS:          0  itACCESS:          0  itHIT:          0  itMISS:          0  dtACCESS:          0  dtHIT:          0  dtMISS:          0
cpu0_STLB PREFETCH     ACCESS:          0  HIT:          0  MISS:          0  iACCESS:          0  iHIT:          0  iMISS:          0  dACCESS:          0  dHIT:          0  dMISS:          0  itACCESS:          0  itHIT:          0  itMISS:          0  dtACCESS:          0  dtHIT:          0  dtMISS:          0
cpu0_STLB WRITE        ACCESS:          0  HIT:          0  MISS:          0  iACCESS:          0  iHIT:          0  iMISS:          0  dACCESS:          0  dHIT:          0  dMISS:          0  itACCESS:          0  itHIT:          0  itMISS:          0  dtACCESS:          0  dtHIT:          0  dtMISS:          0
cpu0_STLB TRANSLATION  ACCESS:          0  HIT:          0  MISS:          0  iACCESS:          0  iHIT:          0  iMISS:          0  dACCESS:          0  dHIT:          0  dMISS:          0  itACCESS:          0  itHIT:          0  itMISS:          0  dtACCESS:          0  dtHIT:          0  dtMISS:          0
cpu0_STLB PREFETCH  REQUESTED:          0  ISSUED:          0  CROSSED:          0  USEFUL:          0  USELESS:          0
cpu0_STLB AVERAGE iMISS LATENCY: 48.3665 cycles
cpu0_STLB AVERAGE dMISS LATENCY: 194.467 cycles
cpu0_STLB AVERAGE itMISS LATENCY: 0 cycles
cpu0_STLB AVERAGE dtMISS LATENCY: 0 cycles
cpu0_STLB PAGE CROSSINGS (TLB HIT):         0 
cpu0_STLB PAGE CROSSINGS (TLB MISS):         0 
cpu0_STLB AVERAGE MISS LATENCY: 242.833 cycles
cpu0_L1D TOTAL       ACCESS:   44384008  HIT:   39076823  MISS:    5307185  iACCESS:          0  iHIT:          0  iMISS:          0  dACCESS:   43838410  dHIT:   39041875  dMISS:    4796535  itACCESS:     120980  itHIT:      14735  itMISS:     106245  dtACCESS:     424618  dtHIT:      20213  dtMISS:     404405
cpu0_L1D LOAD         ACCESS:   19998638  HIT:   17860304  MISS:    2138334  iACCESS:          0  iHIT:          0  iMISS:          0  dACCESS:   19998638  dHIT:   17860304  dMISS:    2138334  itACCESS:          0  itHIT:          0  itMISS:          0  dtACCESS:          0  dtHIT:          0  dtMISS:          0
cpu0_L1D RFO          ACCESS:          0  HIT:          0  MISS:          0  iACCESS:          0  iHIT:          0  iMISS:          0  dACCESS:          0  dHIT:          0  dMISS:          0  itACCESS:          0  itHIT:          0  itMISS:          0  dtACCESS:          0  dtHIT:          0  dtMISS:          0
cpu0_L1D PREFETCH     ACCESS:   13704403  HIT:   11600518  MISS:    2103885  iACCESS:          0  iHIT:          0  iMISS:          0  dACCESS:   13704403  dHIT:   11600518  dMISS:    2103885  itACCESS:          0  itHIT:          0  itMISS:          0  dtACCESS:          0  dtHIT:          0  dtMISS:          0
cpu0_L1D WRITE        ACCESS:   10135369  HIT:    9581053  MISS:     554316  iACCESS:          0  iHIT:          0  iMISS:          0  dACCESS:   10135369  dHIT:    9581053  dMISS:     554316  itACCESS:          0  itHIT:          0  itMISS:          0  dtACCESS:          0  dtHIT:          0  dtMISS:          0
cpu0_L1D TRANSLATION  ACCESS:     545598  HIT:      34948  MISS:     510650  iACCESS:          0  iHIT:          0  iMISS:          0  dACCESS:          0  dHIT:          0  dMISS:          0  itACCESS:     120980  itHIT:      14735  itMISS:     106245  dtACCESS:     424618  dtHIT:      20213  dtMISS:     404405
cpu0_L1D PREFETCH  REQUESTED:   19998638  ISSUED:   18318113  CROSSED:          0  USEFUL:     356910  USELESS:     933768
cpu0_L1D AVERAGE iMISS LATENCY: 0 cycles
cpu0_L1D AVERAGE dMISS LATENCY: 51.3463 cycles
cpu0_L1D AVERAGE itMISS LATENCY: 3.17818 cycles
cpu0_L1D AVERAGE dtMISS LATENCY: 12.531 cycles
cpu0_L1D PAGE CROSSINGS (TLB HIT):         0 
cpu0_L1D PAGE CROSSINGS (TLB MISS):         0 
cpu0_L1D AVERAGE MISS LATENCY: 67.0554 cycles
cpu0_L2C TOTAL       ACCESS:    8540333  HIT:    4016067  MISS:    4524266  iACCESS:    3749085  iHIT:    2205852  iMISS:    1543233  dACCESS:    4309423  dHIT:    1743120  dMISS:    2566303  itACCESS:     105775  itHIT:      19212  itMISS:      86563  dtACCESS:     376050  dtHIT:      47883  dtMISS:     328167
cpu0_L2C LOAD         ACCESS:    2052002  HIT:     971381  MISS:    1080621  iACCESS:     843886  iHIT:     516717  iMISS:     327169  dACCESS:    1208116  dHIT:     454664  dMISS:     753452  itACCESS:          0  itHIT:          0  itMISS:          0  dtACCESS:          0  dtHIT:          0  dtMISS:          0
cpu0_L2C RFO          ACCESS:     209978  HIT:      79072  MISS:     130906  iACCESS:          0  iHIT:          0  iMISS:          0  dACCESS:     209978  dHIT:      79072  dMISS:     130906  itACCESS:          0  itHIT:          0  itMISS:          0  dtACCESS:          0  dtHIT:          0  dtMISS:          0
cpu0_L2C PREFETCH     ACCESS:    5450780  HIT:    2579644  MISS:    2871136  iACCESS:    2905199  iHIT:    1689135  iMISS:    1216064  dACCESS:    2545581  dHIT:     890509  dMISS:    1655072  itACCESS:          0  itHIT:          0  itMISS:          0  dtACCESS:          0  dtHIT:          0  dtMISS:          0
cpu0_L2C WRITE        ACCESS:     345748  HIT:     318875  MISS:      26873  iACCESS:          0  iHIT:          0  iMISS:          0  dACCESS:     345748  dHIT:     318875  dMISS:      26873  itACCESS:          0  itHIT:          0  itMISS:          0  dtACCESS:          0  dtHIT:          0  dtMISS:          0
cpu0_L2C TRANSLATION  ACCESS:     481825  HIT:      67095  MISS:     414730  iACCESS:          0  iHIT:          0  iMISS:          0  dACCESS:          0  dHIT:          0  dMISS:          0  itACCESS:     105775  itHIT:      19212  itMISS:      86563  dtACCESS:     376050  dtHIT:      47883  dtMISS:     328167
cpu0_L2C PREFETCH  REQUESTED:    1499409  ISSUED:    1499404  CROSSED:          0  USEFUL:     356097  USELESS:     337010
cpu0_L2C AVERAGE iMISS LATENCY: 37.7469 cycles
cpu0_L2C AVERAGE dMISS LATENCY: 74.8749 cycles
cpu0_L2C AVERAGE itMISS LATENCY: 3.49797 cycles
cpu0_L2C AVERAGE dtMISS LATENCY: 13.8741 cycles
cpu0_L2C PAGE CROSSINGS (TLB HIT):         0 
cpu0_L2C PAGE CROSSINGS (TLB MISS):         0 
cpu0_L2C AVERAGE MISS LATENCY: 129.994 cycles
LLC TOTAL       ACCESS:    4507580  HIT:    1569542  MISS:    2938038  iACCESS:    1451843  iHIT:     550104  iMISS:     901739  dACCESS:    2641007  dHIT:     975552  dMISS:    1665455  itACCESS:      86563  itHIT:       7599  itMISS:      78964  dtACCESS:     328167  dtHIT:      36287  dtMISS:     291880
LLC LOAD         ACCESS:    1075476  HIT:     400333  MISS:     675143  iACCESS:     325910  iHIT:     135000  iMISS:     190910  dACCESS:     749566  dHIT:     265333  dMISS:     484233  itACCESS:          0  itHIT:          0  itMISS:          0  dtACCESS:          0  dtHIT:          0  dtMISS:          0
LLC RFO          ACCESS:     130898  HIT:      45598  MISS:      85300  iACCESS:          0  iHIT:          0  iMISS:          0  dACCESS:     130898  dHIT:      45598  dMISS:      85300  itACCESS:          0  itHIT:          0  itMISS:          0  dtACCESS:          0  dtHIT:          0  dtMISS:          0
LLC PREFETCH     ACCESS:    2666795  HIT:     869824  MISS:    1796971  iACCESS:    1125933  iHIT:     415104  iMISS:     710829  dACCESS:    1540862  dHIT:     454720  dMISS:    1086142  itACCESS:          0  itHIT:          0  itMISS:          0  dtACCESS:          0  dtHIT:          0  dtMISS:          0
LLC WRITE        ACCESS:     219681  HIT:     209901  MISS:       9780  iACCESS:          0  iHIT:          0  iMISS:          0  dACCESS:     219681  dHIT:     209901  dMISS:       9780  itACCESS:          0  itHIT:          0  itMISS:          0  dtACCESS:          0  dtHIT:          0  dtMISS:          0
LLC TRANSLATION  ACCESS:     414730  HIT:      43886  MISS:     370844  iACCESS:          0  iHIT:          0  iMISS:          0  dACCESS:          0  dHIT:          0  dMISS:          0  itACCESS:      86563  itHIT:       7599  itMISS:      78964  dtACCESS:     328167  dtHIT:      36287  dtMISS:     291880
LLC PREFETCH  REQUESTED:          0  ISSUED:          0  CROSSED:          0  USEFUL:          0  USELESS:          0
LLC AVERAGE iMISS LATENCY: 48.4115 cycles
LLC AVERAGE dMISS LATENCY: 99.7322 cycles
LLC AVERAGE itMISS LATENCY: 4.80256 cycles
LLC AVERAGE dtMISS LATENCY: 19.1564 cycles
LLC PAGE CROSSINGS (TLB HIT):         0 
LLC PAGE CROSSINGS (TLB MISS):         0 
LLC AVERAGE MISS LATENCY: 172.103 cycles

PageTableWalker TOTAL       ACCESS:     185559  
PageTableWalker AVERAGE LATENCY: 6.37483 cycles
PageTableWalker TOTAL LATENCY: 1182907 cycles

DRAM Statistics
Channel 0
 RQ ROW_BUFFER_HIT:     620156
  ROW_BUFFER_MISS:    2297952
 AVG DBUS CONGESTED CYCLE:    3.64762
 WQ ROW_BUFFER_HIT:      65424
  ROW_BUFFER_MISS:      55601  FULL:          0

