last_page:0x200000000000000
VMEM_RES_CAP:0x100000
PAGE_SIZE:4096
LOG2_PAGE_SIZE:12
LOG2_PAGE_TABLE_SIZE:9
page_table_levels:5
WARNING: physical memory size is smaller than virtual memory size
FDiP enabled with aggresivity 16

*** ChampSim Multicore Out-of-Order Simulator ***

Warmup Instructions: 50000000
Simulation Instructions: 100000000
Number of CPUs: 1
Small page size: 4096
Large page size: 2097152

CPU 0 Bimodal branch predictor
Basic BTB sets: 1024 ways: 8 indirect buffer size: 4096 RAS size: 64
Instruction page size distrubution: 0
Loading instruction page size distribution from /home/bsc/bsc018186/scratch/itp_asplos25_AE/dump/smt_srv12_ap_srv727_ap_1024i.pdst
Data page size distrubution: 0
Loading data page size distribution from /home/bsc/bsc018186/scratch/itp_asplos25_AE/dump/smt_srv12_ap_srv727_ap_1024i.pdst
cpu0_L2C IP-based stride prefetcher
cpu0_L2C is using xPTP/LRU
	TLB_LOWER_STRESS_THRESHOLD:1
	TLB_UPPER_STRESS_THRESHOLD:4
	MIN_EVICTION_POSITION:4
cpu0_L1D next line prefetcher
cpu0_STLB using iTP with max lru@8
cpu0_STLB using iTP with instr@0 and data@2
Init sat counter with 3 bits (max:50).
cpu0_L1I next line prefetcher
Off-chip DRAM Size: 4 GiB Channels: 1 Width: 64-bit Data Rate: 3200 MT/s
Heartbeat CPU 0 instructions: 10000001 cycles: 2500448 heartbeat IPC: 3.99929 cumulative IPC: 3.99929 (Simulation time: 0 hr 0 min 41 sec) 
Heartbeat CPU 0 instructions: 20000000 cycles: 5000497 heartbeat IPC: 3.99993 cumulative IPC: 3.99961 (Simulation time: 0 hr 1 min 24 sec) 
Heartbeat CPU 0 instructions: 30000002 cycles: 7501000 heartbeat IPC: 3.9992 cumulative IPC: 3.99947 (Simulation time: 0 hr 2 min 8 sec) 
Heartbeat CPU 0 instructions: 40000003 cycles: 10001322 heartbeat IPC: 3.99949 cumulative IPC: 3.99948 (Simulation time: 0 hr 2 min 51 sec) 
Heartbeat CPU 0 instructions: 50000001 cycles: 12501506 heartbeat IPC: 3.99971 cumulative IPC: 3.99952 (Simulation time: 0 hr 3 min 35 sec) 
Warmup finished CPU 0 instructions: 50000001 cycles: 12501507 cumulative IPC: 3.99952 (Simulation time: 0 hr 3 min 35 sec) 

Warmup complete CPU 0 instructions: 50000001 cycles: 12501507 (Simulation time: 0 hr 3 min 35 sec) 

Heartbeat CPU 0 instructions: 60000004 cycles: 39926961 heartbeat IPC: 0.364625 cumulative IPC: 0.364625 (Simulation time: 0 hr 5 min 0 sec) 
Heartbeat CPU 0 instructions: 70000004 cycles: 67520231 heartbeat IPC: 0.362408 cumulative IPC: 0.363513 (Simulation time: 0 hr 6 min 26 sec) 
Heartbeat CPU 0 instructions: 80000001 cycles: 95931465 heartbeat IPC: 0.351974 cumulative IPC: 0.359584 (Simulation time: 0 hr 7 min 52 sec) 
Heartbeat CPU 0 instructions: 90000001 cycles: 121421546 heartbeat IPC: 0.39231 cumulative IPC: 0.367242 (Simulation time: 0 hr 9 min 9 sec) 
Heartbeat CPU 0 instructions: 100000000 cycles: 149383232 heartbeat IPC: 0.357633 cumulative IPC: 0.365279 (Simulation time: 0 hr 10 min 31 sec) 
Heartbeat CPU 0 instructions: 110000000 cycles: 177903061 heartbeat IPC: 0.350634 cumulative IPC: 0.362754 (Simulation time: 0 hr 11 min 54 sec) 
Heartbeat CPU 0 instructions: 120000002 cycles: 205148475 heartbeat IPC: 0.367035 cumulative IPC: 0.363359 (Simulation time: 0 hr 13 min 15 sec) 
Heartbeat CPU 0 instructions: 130000000 cycles: 233087014 heartbeat IPC: 0.357929 cumulative IPC: 0.362672 (Simulation time: 0 hr 14 min 36 sec) 
Heartbeat CPU 0 instructions: 140000000 cycles: 261466474 heartbeat IPC: 0.352368 cumulative IPC: 0.361497 (Simulation time: 0 hr 15 min 58 sec) 
Heartbeat CPU 0 instructions: 150000002 cycles: 289350767 heartbeat IPC: 0.358625 cumulative IPC: 0.361208 (Simulation time: 0 hr 17 min 20 sec) 
Simulation finished CPU 0 instructions: 100000001 cycles: 276849261 cumulative IPC: 0.361208 (Simulation time: 0 hr 17 min 20 sec) 

Simulation complete CPU 0 instructions: 100000001 cycles: 276849261 (Simulation time: 0 hr 17 min 20 sec) 


ChampSim completed all CPUs

Saving instructions large page distribution to /home/bsc/bsc018186/scratch/itp_asplos25_AE/dump/smt_srv12_ap_srv727_ap_1024i.pdst...
Saving data large page distribution to /home/bsc/bsc018186/scratch/itp_asplos25_AE/dump/smt_srv12_ap_srv727_ap_1024i.pdst...
=== Simulation ===
CPU 0 runs /gpfs/projects/bsc18/MN4/bsc18/romol/ChampSim/traces/qualcomm_srv/smt_srv12_ap_srv727_ap_1024i.champsimtrace.xz

Region of Interest Statistics

CPU 0 cumulative IPC: 0.361208 instructions: 100000001 cycles: 276849261
CPU 0 Branch Prediction Accuracy: 74.6726% MPKI: 45.8504 Average ROB Occupancy at Mispredict: 10.4431
Branch type MPKI
BRANCH_DIRECT_JUMP: 1.44036
BRANCH_INDIRECT: 23.3875
BRANCH_CONDITIONAL: 13.5391
BRANCH_DIRECT_CALL: 2.79709
BRANCH_INDIRECT_CALL: 1.12404
BRANCH_RETURN: 3.56236

Instructions large pages: 0
Instructions small pages: 11302
Large page distribution for instructions: 0%

Data large pages: 0
Data small pages: 9440
Large page distribution for data: 0%

cpu0_L1I TOTAL       ACCESS:   39283586  HIT:   30370641  MISS:    8912945  iACCESS:   39283586  iHIT:   30370641  iMISS:    8912945  dACCESS:          0  dHIT:          0  dMISS:          0  itACCESS:          0  itHIT:          0  itMISS:          0  dtACCESS:          0  dtHIT:          0  dtMISS:          0
cpu0_L1I LOAD         ACCESS:   11655348  HIT:    9242168  MISS:    2413180  iACCESS:   11655348  iHIT:    9242168  iMISS:    2413180  dACCESS:          0  dHIT:          0  dMISS:          0  itACCESS:          0  itHIT:          0  itMISS:          0  dtACCESS:          0  dtHIT:          0  dtMISS:          0
cpu0_L1I RFO          ACCESS:          0  HIT:          0  MISS:          0  iACCESS:          0  iHIT:          0  iMISS:          0  dACCESS:          0  dHIT:          0  dMISS:          0  itACCESS:          0  itHIT:          0  itMISS:          0  dtACCESS:          0  dtHIT:          0  dtMISS:          0
cpu0_L1I PREFETCH     ACCESS:   27628238  HIT:   21128473  MISS:    6499765  iACCESS:   27628238  iHIT:   21128473  iMISS:    6499765  dACCESS:          0  dHIT:          0  dMISS:          0  itACCESS:          0  itHIT:          0  itMISS:          0  dtACCESS:          0  dtHIT:          0  dtMISS:          0
cpu0_L1I WRITE        ACCESS:          0  HIT:          0  MISS:          0  iACCESS:          0  iHIT:          0  iMISS:          0  dACCESS:          0  dHIT:          0  dMISS:          0  itACCESS:          0  itHIT:          0  itMISS:          0  dtACCESS:          0  dtHIT:          0  dtMISS:          0
cpu0_L1I TRANSLATION  ACCESS:          0  HIT:          0  MISS:          0  iACCESS:          0  iHIT:          0  iMISS:          0  dACCESS:          0  dHIT:          0  dMISS:          0  itACCESS:          0  itHIT:          0  itMISS:          0  dtACCESS:          0  dtHIT:          0  dtMISS:          0
cpu0_L1I PREFETCH  REQUESTED:   30267352  ISSUED:   30266702  CROSSED:          0  USEFUL:    2213681  USELESS:     770255
cpu0_L1I AVERAGE iMISS LATENCY: 23.6215 cycles
cpu0_L1I AVERAGE dMISS LATENCY: 0 cycles
cpu0_L1I AVERAGE itMISS LATENCY: 0 cycles
cpu0_L1I AVERAGE dtMISS LATENCY: 0 cycles
cpu0_L1I PAGE CROSSINGS (TLB HIT):         0 
cpu0_L1I PAGE CROSSINGS (TLB MISS):         0 
cpu0_L1I AVERAGE MISS LATENCY: 23.6215 cycles
cpu0_ITLB TOTAL       ACCESS:   33272730  HIT:   31048392  MISS:    2224338  iACCESS:   33272730  iHIT:   31048392  iMISS:    2224338  dACCESS:          0  dHIT:          0  dMISS:          0  itACCESS:          0  itHIT:          0  itMISS:          0  dtACCESS:          0  dtHIT:          0  dtMISS:          0
cpu0_ITLB LOAD         ACCESS:   33272730  HIT:   31048392  MISS:    2224338  iACCESS:   33272730  iHIT:   31048392  iMISS:    2224338  dACCESS:          0  dHIT:          0  dMISS:          0  itACCESS:          0  itHIT:          0  itMISS:          0  dtACCESS:          0  dtHIT:          0  dtMISS:          0
cpu0_ITLB RFO          ACCESS:          0  HIT:          0  MISS:          0  iACCESS:          0  iHIT:          0  iMISS:          0  dACCESS:          0  dHIT:          0  dMISS:          0  itACCESS:          0  itHIT:          0  itMISS:          0  dtACCESS:          0  dtHIT:          0  dtMISS:          0
cpu0_ITLB PREFETCH     ACCESS:          0  HIT:          0  MISS:          0  iACCESS:          0  iHIT:          0  iMISS:          0  dACCESS:          0  dHIT:          0  dMISS:          0  itACCESS:          0  itHIT:          0  itMISS:          0  dtACCESS:          0  dtHIT:          0  dtMISS:          0
cpu0_ITLB WRITE        ACCESS:          0  HIT:          0  MISS:          0  iACCESS:          0  iHIT:          0  iMISS:          0  dACCESS:          0  dHIT:          0  dMISS:          0  itACCESS:          0  itHIT:          0  itMISS:          0  dtACCESS:          0  dtHIT:          0  dtMISS:          0
cpu0_ITLB TRANSLATION  ACCESS:          0  HIT:          0  MISS:          0  iACCESS:          0  iHIT:          0  iMISS:          0  dACCESS:          0  dHIT:          0  dMISS:          0  itACCESS:          0  itHIT:          0  itMISS:          0  dtACCESS:          0  dtHIT:          0  dtMISS:          0
cpu0_ITLB PREFETCH  REQUESTED:          0  ISSUED:          0  CROSSED:          0  USEFUL:     393798  USELESS:      80001
cpu0_ITLB AVERAGE iMISS LATENCY: 6.44273 cycles
cpu0_ITLB AVERAGE dMISS LATENCY: 0 cycles
cpu0_ITLB AVERAGE itMISS LATENCY: 0 cycles
cpu0_ITLB AVERAGE dtMISS LATENCY: 0 cycles
cpu0_ITLB PAGE CROSSINGS (TLB HIT):         0 
cpu0_ITLB PAGE CROSSINGS (TLB MISS):         0 
cpu0_ITLB AVERAGE MISS LATENCY: 6.44273 cycles
cpu0_DTLB TOTAL       ACCESS:   29004431  HIT:   25513549  MISS:    3490882  iACCESS:          0  iHIT:          0  iMISS:          0  dACCESS:   29004431  dHIT:   25513549  dMISS:    3490882  itACCESS:          0  itHIT:          0  itMISS:          0  dtACCESS:          0  dtHIT:          0  dtMISS:          0
cpu0_DTLB LOAD         ACCESS:   29004431  HIT:   25513549  MISS:    3490882  iACCESS:          0  iHIT:          0  iMISS:          0  dACCESS:   29004431  dHIT:   25513549  dMISS:    3490882  itACCESS:          0  itHIT:          0  itMISS:          0  dtACCESS:          0  dtHIT:          0  dtMISS:          0
cpu0_DTLB RFO          ACCESS:          0  HIT:          0  MISS:          0  iACCESS:          0  iHIT:          0  iMISS:          0  dACCESS:          0  dHIT:          0  dMISS:          0  itACCESS:          0  itHIT:          0  itMISS:          0  dtACCESS:          0  dtHIT:          0  dtMISS:          0
cpu0_DTLB PREFETCH     ACCESS:          0  HIT:          0  MISS:          0  iACCESS:          0  iHIT:          0  iMISS:          0  dACCESS:          0  dHIT:          0  dMISS:          0  itACCESS:          0  itHIT:          0  itMISS:          0  dtACCESS:          0  dtHIT:          0  dtMISS:          0
cpu0_DTLB WRITE        ACCESS:          0  HIT:          0  MISS:          0  iACCESS:          0  iHIT:          0  iMISS:          0  dACCESS:          0  dHIT:          0  dMISS:          0  itACCESS:          0  itHIT:          0  itMISS:          0  dtACCESS:          0  dtHIT:          0  dtMISS:          0
cpu0_DTLB TRANSLATION  ACCESS:          0  HIT:          0  MISS:          0  iACCESS:          0  iHIT:          0  iMISS:          0  dACCESS:          0  dHIT:          0  dMISS:          0  itACCESS:          0  itHIT:          0  itMISS:          0  dtACCESS:          0  dtHIT:          0  dtMISS:          0
cpu0_DTLB PREFETCH  REQUESTED:          0  ISSUED:          0  CROSSED:          0  USEFUL:          0  USELESS:          0
cpu0_DTLB AVERAGE iMISS LATENCY: 0 cycles
cpu0_DTLB AVERAGE dMISS LATENCY: 19.3945 cycles
cpu0_DTLB AVERAGE itMISS LATENCY: 0 cycles
cpu0_DTLB AVERAGE dtMISS LATENCY: 0 cycles
cpu0_DTLB PAGE CROSSINGS (TLB HIT):         0 
cpu0_DTLB PAGE CROSSINGS (TLB MISS):         0 
cpu0_DTLB AVERAGE MISS LATENCY: 19.3945 cycles
cpu0_STLB TOTAL       ACCESS:    2538169  HIT:    2157408  MISS:     380761  iACCESS:     473807  iHIT:     407874  iMISS:      65933  dACCESS:    2064362  dHIT:    1749534  dMISS:     314828  itACCESS:          0  itHIT:          0  itMISS:          0  dtACCESS:          0  dtHIT:          0  dtMISS:          0
cpu0_STLB LOAD         ACCESS:    2538169  HIT:    2157408  MISS:     380761  iACCESS:     473807  iHIT:     407874  iMISS:      65933  dACCESS:    2064362  dHIT:    1749534  dMISS:     314828  itACCESS:          0  itHIT:          0  itMISS:          0  dtACCESS:          0  dtHIT:          0  dtMISS:          0
cpu0_STLB RFO          ACCESS:          0  HIT:          0  MISS:          0  iACCESS:          0  iHIT:          0  iMISS:          0  dACCESS:          0  dHIT:          0  dMISS:          0  itACCESS:          0  itHIT:          0  itMISS:          0  dtACCESS:          0  dtHIT:          0  dtMISS:          0
cpu0_STLB PREFETCH     ACCESS:          0  HIT:          0  MISS:          0  iACCESS:          0  iHIT:          0  iMISS:          0  dACCESS:          0  dHIT:          0  dMISS:          0  itACCESS:          0  itHIT:          0  itMISS:          0  dtACCESS:          0  dtHIT:          0  dtMISS:          0
cpu0_STLB WRITE        ACCESS:          0  HIT:          0  MISS:          0  iACCESS:          0  iHIT:          0  iMISS:          0  dACCESS:          0  dHIT:          0  dMISS:          0  itACCESS:          0  itHIT:          0  itMISS:          0  dtACCESS:          0  dtHIT:          0  dtMISS:          0
cpu0_STLB TRANSLATION  ACCESS:          0  HIT:          0  MISS:          0  iACCESS:          0  iHIT:          0  iMISS:          0  dACCESS:          0  dHIT:          0  dMISS:          0  itACCESS:          0  itHIT:          0  itMISS:          0  dtACCESS:          0  dtHIT:          0  dtMISS:          0
cpu0_STLB PREFETCH  REQUESTED:          0  ISSUED:          0  CROSSED:          0  USEFUL:          0  USELESS:          0
cpu0_STLB AVERAGE iMISS LATENCY: 27.8305 cycles
cpu0_STLB AVERAGE dMISS LATENCY: 134.077 cycles
cpu0_STLB AVERAGE itMISS LATENCY: 0 cycles
cpu0_STLB AVERAGE dtMISS LATENCY: 0 cycles
cpu0_STLB PAGE CROSSINGS (TLB HIT):         0 
cpu0_STLB PAGE CROSSINGS (TLB MISS):         0 
cpu0_STLB AVERAGE MISS LATENCY: 161.907 cycles
cpu0_L1D TOTAL       ACCESS:   45129217  HIT:   39335068  MISS:    5794149  iACCESS:          0  iHIT:          0  iMISS:          0  dACCESS:   44542503  dHIT:   39305492  dMISS:    5237011  itACCESS:      76943  itHIT:       6304  itMISS:      70639  dtACCESS:     509771  dtHIT:      23272  dtMISS:     486499
cpu0_L1D LOAD         ACCESS:   20369679  HIT:   18034960  MISS:    2334719  iACCESS:          0  iHIT:          0  iMISS:          0  dACCESS:   20369679  dHIT:   18034960  dMISS:    2334719  itACCESS:          0  itHIT:          0  itMISS:          0  dtACCESS:          0  dtHIT:          0  dtMISS:          0
cpu0_L1D RFO          ACCESS:          0  HIT:          0  MISS:          0  iACCESS:          0  iHIT:          0  iMISS:          0  dACCESS:          0  dHIT:          0  dMISS:          0  itACCESS:          0  itHIT:          0  itMISS:          0  dtACCESS:          0  dtHIT:          0  dtMISS:          0
cpu0_L1D PREFETCH     ACCESS:   13998433  HIT:   11689965  MISS:    2308468  iACCESS:          0  iHIT:          0  iMISS:          0  dACCESS:   13998433  dHIT:   11689965  dMISS:    2308468  itACCESS:          0  itHIT:          0  itMISS:          0  dtACCESS:          0  dtHIT:          0  dtMISS:          0
cpu0_L1D WRITE        ACCESS:   10174391  HIT:    9580567  MISS:     593824  iACCESS:          0  iHIT:          0  iMISS:          0  dACCESS:   10174391  dHIT:    9580567  dMISS:     593824  itACCESS:          0  itHIT:          0  itMISS:          0  dtACCESS:          0  dtHIT:          0  dtMISS:          0
cpu0_L1D TRANSLATION  ACCESS:     586714  HIT:      29576  MISS:     557138  iACCESS:          0  iHIT:          0  iMISS:          0  dACCESS:          0  dHIT:          0  dMISS:          0  itACCESS:      76943  itHIT:       6304  itMISS:      70639  dtACCESS:     509771  dtHIT:      23272  dtMISS:     486499
cpu0_L1D PREFETCH  REQUESTED:   20369679  ISSUED:   18583542  CROSSED:          0  USEFUL:     363447  USELESS:     936596
cpu0_L1D AVERAGE iMISS LATENCY: 0 cycles
cpu0_L1D AVERAGE dMISS LATENCY: 48.3842 cycles
cpu0_L1D AVERAGE itMISS LATENCY: 1.69774 cycles
cpu0_L1D AVERAGE dtMISS LATENCY: 7.94014 cycles
cpu0_L1D PAGE CROSSINGS (TLB HIT):         0 
cpu0_L1D PAGE CROSSINGS (TLB MISS):         0 
cpu0_L1D AVERAGE MISS LATENCY: 58.0221 cycles
cpu0_L2C TOTAL       ACCESS:    8687154  HIT:    2477429  MISS:    6209725  iACCESS:    3784035  iHIT:    1380298  iMISS:    2403737  dACCESS:    4380996  dHIT:     862514  dMISS:    3518482  itACCESS:      70282  itHIT:      16108  itMISS:      54174  dtACCESS:     451841  dtHIT:     218509  dtMISS:     233332
cpu0_L2C LOAD         ACCESS:    2049944  HIT:     468184  MISS:    1581760  iACCESS:     836081  iHIT:     268169  iMISS:     567912  dACCESS:    1213863  dHIT:     200015  dMISS:    1013848  itACCESS:          0  itHIT:          0  itMISS:          0  dtACCESS:          0  dtHIT:          0  dtMISS:          0
cpu0_L2C RFO          ACCESS:     215769  HIT:      30499  MISS:     185270  iACCESS:          0  iHIT:          0  iMISS:          0  dACCESS:     215769  dHIT:      30499  dMISS:     185270  itACCESS:          0  itHIT:          0  itMISS:          0  dtACCESS:          0  dtHIT:          0  dtMISS:          0
cpu0_L2C PREFETCH     ACCESS:    5558025  HIT:    1621410  MISS:    3936615  iACCESS:    2947954  iHIT:    1112129  iMISS:    1835825  dACCESS:    2610071  dHIT:     509281  dMISS:    2100790  itACCESS:          0  itHIT:          0  itMISS:          0  dtACCESS:          0  dtHIT:          0  dtMISS:          0
cpu0_L2C WRITE        ACCESS:     341293  HIT:     122719  MISS:     218574  iACCESS:          0  iHIT:          0  iMISS:          0  dACCESS:     341293  dHIT:     122719  dMISS:     218574  itACCESS:          0  itHIT:          0  itMISS:          0  dtACCESS:          0  dtHIT:          0  dtMISS:          0
cpu0_L2C TRANSLATION  ACCESS:     522123  HIT:     234617  MISS:     287506  iACCESS:          0  iHIT:          0  iMISS:          0  dACCESS:          0  dHIT:          0  dMISS:          0  itACCESS:      70282  itHIT:      16108  itMISS:      54174  dtACCESS:     451841  dtHIT:     218509  dtMISS:     233332
cpu0_L2C PREFETCH  REQUESTED:    1545948  ISSUED:    1545947  CROSSED:          0  USEFUL:     388872  USELESS:     451536
cpu0_L2C AVERAGE iMISS LATENCY: 28.7604 cycles
cpu0_L2C AVERAGE dMISS LATENCY: 55.786 cycles
cpu0_L2C AVERAGE itMISS LATENCY: 1.4732 cycles
cpu0_L2C AVERAGE dtMISS LATENCY: 6.71309 cycles
cpu0_L2C PAGE CROSSINGS (TLB HIT):         0 
cpu0_L2C PAGE CROSSINGS (TLB MISS):         0 
cpu0_L2C AVERAGE MISS LATENCY: 92.7326 cycles
LLC TOTAL       ACCESS:    6042727  HIT:    3321098  MISS:    2721629  iACCESS:    2312534  iHIT:    1457852  iMISS:     854682  dACCESS:    3442687  dHIT:    1815919  dMISS:    1626768  itACCESS:      54174  itHIT:       9066  itMISS:      45108  dtACCESS:     233332  dtHIT:      38261  dtMISS:     195071
LLC LOAD         ACCESS:    1574956  HIT:     929237  MISS:     645719  iACCESS:     566538  iHIT:     388161  iMISS:     178377  dACCESS:    1008418  dHIT:     541076  dMISS:     467342  itACCESS:          0  itHIT:          0  itMISS:          0  dtACCESS:          0  dtHIT:          0  dtMISS:          0
LLC RFO          ACCESS:     185251  HIT:      91721  MISS:      93530  iACCESS:          0  iHIT:          0  iMISS:          0  dACCESS:     185251  dHIT:      91721  dMISS:      93530  itACCESS:          0  itHIT:          0  itMISS:          0  dtACCESS:          0  dtHIT:          0  dtMISS:          0
LLC PREFETCH     ACCESS:    3723158  HIT:    1985818  MISS:    1737340  iACCESS:    1745996  iHIT:    1069691  iMISS:     676305  dACCESS:    1977162  dHIT:     916127  dMISS:    1061035  itACCESS:          0  itHIT:          0  itMISS:          0  dtACCESS:          0  dtHIT:          0  dtMISS:          0
LLC WRITE        ACCESS:     271856  HIT:     266995  MISS:       4861  iACCESS:          0  iHIT:          0  iMISS:          0  dACCESS:     271856  dHIT:     266995  dMISS:       4861  itACCESS:          0  itHIT:          0  itMISS:          0  dtACCESS:          0  dtHIT:          0  dtMISS:          0
LLC TRANSLATION  ACCESS:     287506  HIT:      47327  MISS:     240179  iACCESS:          0  iHIT:          0  iMISS:          0  dACCESS:          0  dHIT:          0  dMISS:          0  itACCESS:      54174  itHIT:       9066  itMISS:      45108  dtACCESS:     233332  dtHIT:      38261  dtMISS:     195071
LLC PREFETCH  REQUESTED:          0  ISSUED:          0  CROSSED:          0  USEFUL:          0  USELESS:          0
LLC AVERAGE iMISS LATENCY: 49.0824 cycles
LLC AVERAGE dMISS LATENCY: 105.456 cycles
LLC AVERAGE itMISS LATENCY: 2.96804 cycles
LLC AVERAGE dtMISS LATENCY: 13.6232 cycles
LLC PAGE CROSSINGS (TLB HIT):         0 
LLC PAGE CROSSINGS (TLB MISS):         0 
LLC AVERAGE MISS LATENCY: 171.13 cycles

PageTableWalker TOTAL       ACCESS:     182039  
PageTableWalker AVERAGE LATENCY: 6.03654 cycles
PageTableWalker TOTAL LATENCY: 1098885 cycles

DRAM Statistics
Channel 0
 RQ ROW_BUFFER_HIT:     616602
  ROW_BUFFER_MISS:    2081848
 AVG DBUS CONGESTED CYCLE:    3.65749
 WQ ROW_BUFFER_HIT:      66993
  ROW_BUFFER_MISS:      64703  FULL:          0

