last_page:0x200000000000000
VMEM_RES_CAP:0x100000
PAGE_SIZE:4096
LOG2_PAGE_SIZE:12
LOG2_PAGE_TABLE_SIZE:9
page_table_levels:5
WARNING: physical memory size is smaller than virtual memory size
FDiP enabled with aggresivity 16

*** ChampSim Multicore Out-of-Order Simulator ***

Warmup Instructions: 50000000
Simulation Instructions: 100000000
Number of CPUs: 1
Small page size: 4096
Large page size: 2097152

CPU 0 Bimodal branch predictor
Basic BTB sets: 1024 ways: 8 indirect buffer size: 4096 RAS size: 64
Instruction page size distrubution: 0
Loading instruction page size distribution from /home/bsc/bsc018186/scratch/itp_asplos25_AE/dump/smt_srv207_ap_srv697_ap_1024i.pdst
Data page size distrubution: 0
Loading data page size distribution from /home/bsc/bsc018186/scratch/itp_asplos25_AE/dump/smt_srv207_ap_srv697_ap_1024i.pdst
cpu0_L2C IP-based stride prefetcher
cpu0_L1D next line prefetcher
cpu0_L1I next line prefetcher
Off-chip DRAM Size: 4 GiB Channels: 1 Width: 64-bit Data Rate: 3200 MT/s
Heartbeat CPU 0 instructions: 10000003 cycles: 2500510 heartbeat IPC: 3.99919 cumulative IPC: 3.99919 (Simulation time: 0 hr 0 min 44 sec) 
Heartbeat CPU 0 instructions: 20000002 cycles: 5000787 heartbeat IPC: 3.99956 cumulative IPC: 3.99938 (Simulation time: 0 hr 1 min 28 sec) 
Heartbeat CPU 0 instructions: 30000001 cycles: 7501045 heartbeat IPC: 3.99959 cumulative IPC: 3.99945 (Simulation time: 0 hr 2 min 12 sec) 
Heartbeat CPU 0 instructions: 40000003 cycles: 10001495 heartbeat IPC: 3.99929 cumulative IPC: 3.99941 (Simulation time: 0 hr 2 min 56 sec) 
Heartbeat CPU 0 instructions: 50000000 cycles: 12501719 heartbeat IPC: 3.99965 cumulative IPC: 3.99945 (Simulation time: 0 hr 3 min 41 sec) 
Warmup finished CPU 0 instructions: 50000000 cycles: 12501720 cumulative IPC: 3.99945 (Simulation time: 0 hr 3 min 41 sec) 

Warmup complete CPU 0 instructions: 50000000 cycles: 12501720 (Simulation time: 0 hr 3 min 41 sec) 

Heartbeat CPU 0 instructions: 60000003 cycles: 40361060 heartbeat IPC: 0.358947 cumulative IPC: 0.358947 (Simulation time: 0 hr 5 min 10 sec) 
Heartbeat CPU 0 instructions: 70000002 cycles: 66912273 heartbeat IPC: 0.376631 cumulative IPC: 0.367576 (Simulation time: 0 hr 6 min 34 sec) 
Heartbeat CPU 0 instructions: 80000000 cycles: 95003413 heartbeat IPC: 0.355985 cumulative IPC: 0.363629 (Simulation time: 0 hr 8 min 3 sec) 
Heartbeat CPU 0 instructions: 90000003 cycles: 123263597 heartbeat IPC: 0.353855 cumulative IPC: 0.361136 (Simulation time: 0 hr 9 min 32 sec) 
Heartbeat CPU 0 instructions: 100000003 cycles: 150552744 heartbeat IPC: 0.366447 cumulative IPC: 0.362185 (Simulation time: 0 hr 10 min 59 sec) 
Heartbeat CPU 0 instructions: 110000002 cycles: 177672162 heartbeat IPC: 0.36874 cumulative IPC: 0.363262 (Simulation time: 0 hr 12 min 27 sec) 
Heartbeat CPU 0 instructions: 120000001 cycles: 205087711 heartbeat IPC: 0.364757 cumulative IPC: 0.363475 (Simulation time: 0 hr 13 min 53 sec) 
Heartbeat CPU 0 instructions: 130000004 cycles: 232027832 heartbeat IPC: 0.371194 cumulative IPC: 0.364422 (Simulation time: 0 hr 15 min 21 sec) 
Heartbeat CPU 0 instructions: 140000002 cycles: 259447020 heartbeat IPC: 0.364709 cumulative IPC: 0.364454 (Simulation time: 0 hr 16 min 50 sec) 
Heartbeat CPU 0 instructions: 150000002 cycles: 287025033 heartbeat IPC: 0.362608 cumulative IPC: 0.364268 (Simulation time: 0 hr 18 min 21 sec) 
Simulation finished CPU 0 instructions: 100000002 cycles: 274523314 cumulative IPC: 0.364268 (Simulation time: 0 hr 18 min 21 sec) 

Simulation complete CPU 0 instructions: 100000002 cycles: 274523314 (Simulation time: 0 hr 18 min 21 sec) 


ChampSim completed all CPUs

Saving instructions large page distribution to /home/bsc/bsc018186/scratch/itp_asplos25_AE/dump/smt_srv207_ap_srv697_ap_1024i.pdst...
Saving data large page distribution to /home/bsc/bsc018186/scratch/itp_asplos25_AE/dump/smt_srv207_ap_srv697_ap_1024i.pdst...
=== Simulation ===
CPU 0 runs /gpfs/projects/bsc18/MN4/bsc18/romol/ChampSim/traces/qualcomm_srv/smt_srv207_ap_srv697_ap_1024i.champsimtrace.xz

Region of Interest Statistics

CPU 0 cumulative IPC: 0.364268 instructions: 100000002 cycles: 274523314
CPU 0 Branch Prediction Accuracy: 75.3513% MPKI: 44.268 Average ROB Occupancy at Mispredict: 10.9598
Branch type MPKI
BRANCH_DIRECT_JUMP: 1.35476
BRANCH_INDIRECT: 23.4079
BRANCH_CONDITIONAL: 12.5038
BRANCH_DIRECT_CALL: 2.54273
BRANCH_INDIRECT_CALL: 0.94822
BRANCH_RETURN: 3.51059

Instructions large pages: 0
Instructions small pages: 14748
Large page distribution for instructions: 0%

Data large pages: 0
Data small pages: 13364
Large page distribution for data: 0%

cpu0_L1I TOTAL       ACCESS:   39394218  HIT:   30176973  MISS:    9217245  iACCESS:   39394218  iHIT:   30176973  iMISS:    9217245  dACCESS:          0  dHIT:          0  dMISS:          0  itACCESS:          0  itHIT:          0  itMISS:          0  dtACCESS:          0  dtHIT:          0  dtMISS:          0
cpu0_L1I LOAD         ACCESS:   11724201  HIT:    9213676  MISS:    2510525  iACCESS:   11724201  iHIT:    9213676  iMISS:    2510525  dACCESS:          0  dHIT:          0  dMISS:          0  itACCESS:          0  itHIT:          0  itMISS:          0  dtACCESS:          0  dtHIT:          0  dtMISS:          0
cpu0_L1I RFO          ACCESS:          0  HIT:          0  MISS:          0  iACCESS:          0  iHIT:          0  iMISS:          0  dACCESS:          0  dHIT:          0  dMISS:          0  itACCESS:          0  itHIT:          0  itMISS:          0  dtACCESS:          0  dtHIT:          0  dtMISS:          0
cpu0_L1I PREFETCH     ACCESS:   27670017  HIT:   20963297  MISS:    6706720  iACCESS:   27670017  iHIT:   20963297  iMISS:    6706720  dACCESS:          0  dHIT:          0  dMISS:          0  itACCESS:          0  itHIT:          0  itMISS:          0  dtACCESS:          0  dtHIT:          0  dtMISS:          0
cpu0_L1I WRITE        ACCESS:          0  HIT:          0  MISS:          0  iACCESS:          0  iHIT:          0  iMISS:          0  dACCESS:          0  dHIT:          0  dMISS:          0  itACCESS:          0  itHIT:          0  itMISS:          0  dtACCESS:          0  dtHIT:          0  dtMISS:          0
cpu0_L1I TRANSLATION  ACCESS:          0  HIT:          0  MISS:          0  iACCESS:          0  iHIT:          0  iMISS:          0  dACCESS:          0  dHIT:          0  dMISS:          0  itACCESS:          0  itHIT:          0  itMISS:          0  dtACCESS:          0  dtHIT:          0  dtMISS:          0
cpu0_L1I PREFETCH  REQUESTED:   30267136  ISSUED:   30265909  CROSSED:          0  USEFUL:    2201878  USELESS:     777964
cpu0_L1I AVERAGE iMISS LATENCY: 23.6836 cycles
cpu0_L1I AVERAGE dMISS LATENCY: 0 cycles
cpu0_L1I AVERAGE itMISS LATENCY: 0 cycles
cpu0_L1I AVERAGE dtMISS LATENCY: 0 cycles
cpu0_L1I PAGE CROSSINGS (TLB HIT):         0 
cpu0_L1I PAGE CROSSINGS (TLB MISS):         0 
cpu0_L1I AVERAGE MISS LATENCY: 23.6836 cycles
cpu0_ITLB TOTAL       ACCESS:   33102277  HIT:   30879951  MISS:    2222326  iACCESS:   33102277  iHIT:   30879951  iMISS:    2222326  dACCESS:          0  dHIT:          0  dMISS:          0  itACCESS:          0  itHIT:          0  itMISS:          0  dtACCESS:          0  dtHIT:          0  dtMISS:          0
cpu0_ITLB LOAD         ACCESS:   33102277  HIT:   30879951  MISS:    2222326  iACCESS:   33102277  iHIT:   30879951  iMISS:    2222326  dACCESS:          0  dHIT:          0  dMISS:          0  itACCESS:          0  itHIT:          0  itMISS:          0  dtACCESS:          0  dtHIT:          0  dtMISS:          0
cpu0_ITLB RFO          ACCESS:          0  HIT:          0  MISS:          0  iACCESS:          0  iHIT:          0  iMISS:          0  dACCESS:          0  dHIT:          0  dMISS:          0  itACCESS:          0  itHIT:          0  itMISS:          0  dtACCESS:          0  dtHIT:          0  dtMISS:          0
cpu0_ITLB PREFETCH     ACCESS:          0  HIT:          0  MISS:          0  iACCESS:          0  iHIT:          0  iMISS:          0  dACCESS:          0  dHIT:          0  dMISS:          0  itACCESS:          0  itHIT:          0  itMISS:          0  dtACCESS:          0  dtHIT:          0  dtMISS:          0
cpu0_ITLB WRITE        ACCESS:          0  HIT:          0  MISS:          0  iACCESS:          0  iHIT:          0  iMISS:          0  dACCESS:          0  dHIT:          0  dMISS:          0  itACCESS:          0  itHIT:          0  itMISS:          0  dtACCESS:          0  dtHIT:          0  dtMISS:          0
cpu0_ITLB TRANSLATION  ACCESS:          0  HIT:          0  MISS:          0  iACCESS:          0  iHIT:          0  iMISS:          0  dACCESS:          0  dHIT:          0  dMISS:          0  itACCESS:          0  itHIT:          0  itMISS:          0  dtACCESS:          0  dtHIT:          0  dtMISS:          0
cpu0_ITLB PREFETCH  REQUESTED:          0  ISSUED:          0  CROSSED:          0  USEFUL:     392929  USELESS:      79773
cpu0_ITLB AVERAGE iMISS LATENCY: 7.6765 cycles
cpu0_ITLB AVERAGE dMISS LATENCY: 0 cycles
cpu0_ITLB AVERAGE itMISS LATENCY: 0 cycles
cpu0_ITLB AVERAGE dtMISS LATENCY: 0 cycles
cpu0_ITLB PAGE CROSSINGS (TLB HIT):         0 
cpu0_ITLB PAGE CROSSINGS (TLB MISS):         0 
cpu0_ITLB AVERAGE MISS LATENCY: 7.6765 cycles
cpu0_DTLB TOTAL       ACCESS:   29145419  HIT:   25537277  MISS:    3608142  iACCESS:          0  iHIT:          0  iMISS:          0  dACCESS:   29145419  dHIT:   25537277  dMISS:    3608142  itACCESS:          0  itHIT:          0  itMISS:          0  dtACCESS:          0  dtHIT:          0  dtMISS:          0
cpu0_DTLB LOAD         ACCESS:   29145419  HIT:   25537277  MISS:    3608142  iACCESS:          0  iHIT:          0  iMISS:          0  dACCESS:   29145419  dHIT:   25537277  dMISS:    3608142  itACCESS:          0  itHIT:          0  itMISS:          0  dtACCESS:          0  dtHIT:          0  dtMISS:          0
cpu0_DTLB RFO          ACCESS:          0  HIT:          0  MISS:          0  iACCESS:          0  iHIT:          0  iMISS:          0  dACCESS:          0  dHIT:          0  dMISS:          0  itACCESS:          0  itHIT:          0  itMISS:          0  dtACCESS:          0  dtHIT:          0  dtMISS:          0
cpu0_DTLB PREFETCH     ACCESS:          0  HIT:          0  MISS:          0  iACCESS:          0  iHIT:          0  iMISS:          0  dACCESS:          0  dHIT:          0  dMISS:          0  itACCESS:          0  itHIT:          0  itMISS:          0  dtACCESS:          0  dtHIT:          0  dtMISS:          0
cpu0_DTLB WRITE        ACCESS:          0  HIT:          0  MISS:          0  iACCESS:          0  iHIT:          0  iMISS:          0  dACCESS:          0  dHIT:          0  dMISS:          0  itACCESS:          0  itHIT:          0  itMISS:          0  dtACCESS:          0  dtHIT:          0  dtMISS:          0
cpu0_DTLB TRANSLATION  ACCESS:          0  HIT:          0  MISS:          0  iACCESS:          0  iHIT:          0  iMISS:          0  dACCESS:          0  dHIT:          0  dMISS:          0  itACCESS:          0  itHIT:          0  itMISS:          0  dtACCESS:          0  dtHIT:          0  dtMISS:          0
cpu0_DTLB PREFETCH  REQUESTED:          0  ISSUED:          0  CROSSED:          0  USEFUL:          0  USELESS:          0
cpu0_DTLB AVERAGE iMISS LATENCY: 0 cycles
cpu0_DTLB AVERAGE dMISS LATENCY: 17.23 cycles
cpu0_DTLB AVERAGE itMISS LATENCY: 0 cycles
cpu0_DTLB AVERAGE dtMISS LATENCY: 0 cycles
cpu0_DTLB PAGE CROSSINGS (TLB HIT):         0 
cpu0_DTLB PAGE CROSSINGS (TLB MISS):         0 
cpu0_DTLB AVERAGE MISS LATENCY: 17.23 cycles
cpu0_STLB TOTAL       ACCESS:    2587123  HIT:    2216229  MISS:     370894  iACCESS:     472709  iHIT:     362421  iMISS:     110288  dACCESS:    2114414  dHIT:    1853808  dMISS:     260606  itACCESS:          0  itHIT:          0  itMISS:          0  dtACCESS:          0  dtHIT:          0  dtMISS:          0
cpu0_STLB LOAD         ACCESS:    2587123  HIT:    2216229  MISS:     370894  iACCESS:     472709  iHIT:     362421  iMISS:     110288  dACCESS:    2114414  dHIT:    1853808  dMISS:     260606  itACCESS:          0  itHIT:          0  itMISS:          0  dtACCESS:          0  dtHIT:          0  dtMISS:          0
cpu0_STLB RFO          ACCESS:          0  HIT:          0  MISS:          0  iACCESS:          0  iHIT:          0  iMISS:          0  dACCESS:          0  dHIT:          0  dMISS:          0  itACCESS:          0  itHIT:          0  itMISS:          0  dtACCESS:          0  dtHIT:          0  dtMISS:          0
cpu0_STLB PREFETCH     ACCESS:          0  HIT:          0  MISS:          0  iACCESS:          0  iHIT:          0  iMISS:          0  dACCESS:          0  dHIT:          0  dMISS:          0  itACCESS:          0  itHIT:          0  itMISS:          0  dtACCESS:          0  dtHIT:          0  dtMISS:          0
cpu0_STLB WRITE        ACCESS:          0  HIT:          0  MISS:          0  iACCESS:          0  iHIT:          0  iMISS:          0  dACCESS:          0  dHIT:          0  dMISS:          0  itACCESS:          0  itHIT:          0  itMISS:          0  dtACCESS:          0  dtHIT:          0  dtMISS:          0
cpu0_STLB TRANSLATION  ACCESS:          0  HIT:          0  MISS:          0  iACCESS:          0  iHIT:          0  iMISS:          0  dACCESS:          0  dHIT:          0  dMISS:          0  itACCESS:          0  itHIT:          0  itMISS:          0  dtACCESS:          0  dtHIT:          0  dtMISS:          0
cpu0_STLB PREFETCH  REQUESTED:          0  ISSUED:          0  CROSSED:          0  USEFUL:          0  USELESS:          0
cpu0_STLB AVERAGE iMISS LATENCY: 35.828 cycles
cpu0_STLB AVERAGE dMISS LATENCY: 121.82 cycles
cpu0_STLB AVERAGE itMISS LATENCY: 0 cycles
cpu0_STLB AVERAGE dtMISS LATENCY: 0 cycles
cpu0_STLB PAGE CROSSINGS (TLB HIT):         0 
cpu0_STLB PAGE CROSSINGS (TLB MISS):         0 
cpu0_STLB AVERAGE MISS LATENCY: 157.648 cycles
cpu0_L1D TOTAL       ACCESS:   45043422  HIT:   39585989  MISS:    5457433  iACCESS:          0  iHIT:          0  iMISS:          0  dACCESS:   44502078  dHIT:   39551523  dMISS:    4950555  itACCESS:     123650  itHIT:      14347  itMISS:     109303  dtACCESS:     417694  dtHIT:      20119  dtMISS:     397575
cpu0_L1D LOAD         ACCESS:   20377202  HIT:   18156546  MISS:    2220656  iACCESS:          0  iHIT:          0  iMISS:          0  dACCESS:   20377202  dHIT:   18156546  dMISS:    2220656  itACCESS:          0  itHIT:          0  itMISS:          0  dtACCESS:          0  dtHIT:          0  dtMISS:          0
cpu0_L1D RFO          ACCESS:          0  HIT:          0  MISS:          0  iACCESS:          0  iHIT:          0  iMISS:          0  dACCESS:          0  dHIT:          0  dMISS:          0  itACCESS:          0  itHIT:          0  itMISS:          0  dtACCESS:          0  dtHIT:          0  dtMISS:          0
cpu0_L1D PREFETCH     ACCESS:   14016887  HIT:   11860817  MISS:    2156070  iACCESS:          0  iHIT:          0  iMISS:          0  dACCESS:   14016887  dHIT:   11860817  dMISS:    2156070  itACCESS:          0  itHIT:          0  itMISS:          0  dtACCESS:          0  dtHIT:          0  dtMISS:          0
cpu0_L1D WRITE        ACCESS:   10107989  HIT:    9534160  MISS:     573829  iACCESS:          0  iHIT:          0  iMISS:          0  dACCESS:   10107989  dHIT:    9534160  dMISS:     573829  itACCESS:          0  itHIT:          0  itMISS:          0  dtACCESS:          0  dtHIT:          0  dtMISS:          0
cpu0_L1D TRANSLATION  ACCESS:     541344  HIT:      34466  MISS:     506878  iACCESS:          0  iHIT:          0  iMISS:          0  dACCESS:          0  dHIT:          0  dMISS:          0  itACCESS:     123650  itHIT:      14347  itMISS:     109303  dtACCESS:     417694  dtHIT:      20119  dtMISS:     397575
cpu0_L1D PREFETCH  REQUESTED:   20377202  ISSUED:   18751315  CROSSED:          0  USEFUL:     377251  USELESS:     947607
cpu0_L1D AVERAGE iMISS LATENCY: 0 cycles
cpu0_L1D AVERAGE dMISS LATENCY: 52.4283 cycles
cpu0_L1D AVERAGE itMISS LATENCY: 2.24848 cycles
cpu0_L1D AVERAGE dtMISS LATENCY: 7.30744 cycles
cpu0_L1D PAGE CROSSINGS (TLB HIT):         0 
cpu0_L1D PAGE CROSSINGS (TLB MISS):         0 
cpu0_L1D AVERAGE MISS LATENCY: 61.9842 cycles
cpu0_L2C TOTAL       ACCESS:    8651429  HIT:    1496754  MISS:    7154675  iACCESS:    3789657  iHIT:     775374  iMISS:    3014283  dACCESS:    4381942  dHIT:     531669  dMISS:    3850273  itACCESS:     109107  itHIT:      38223  itMISS:      70884  dtACCESS:     370723  dtHIT:     151488  dtMISS:     219235
cpu0_L2C LOAD         ACCESS:    2078718  HIT:     200797  MISS:    1877921  iACCESS:     844525  iHIT:     108537  iMISS:     735988  dACCESS:    1234193  dHIT:      92260  dMISS:    1141933  itACCESS:          0  itHIT:          0  itMISS:          0  dtACCESS:          0  dtHIT:          0  dtMISS:          0
cpu0_L2C RFO          ACCESS:     218303  HIT:      27799  MISS:     190504  iACCESS:          0  iHIT:          0  iMISS:          0  dACCESS:     218303  dHIT:      27799  dMISS:     190504  itACCESS:          0  itHIT:          0  itMISS:          0  dtACCESS:          0  dtHIT:          0  dtMISS:          0
cpu0_L2C PREFETCH     ACCESS:    5526162  HIT:     977746  MISS:    4548416  iACCESS:    2945132  iHIT:     666837  iMISS:    2278295  dACCESS:    2581030  dHIT:     310909  dMISS:    2270121  itACCESS:          0  itHIT:          0  itMISS:          0  dtACCESS:          0  dtHIT:          0  dtMISS:          0
cpu0_L2C WRITE        ACCESS:     348416  HIT:     100701  MISS:     247715  iACCESS:          0  iHIT:          0  iMISS:          0  dACCESS:     348416  dHIT:     100701  dMISS:     247715  itACCESS:          0  itHIT:          0  itMISS:          0  dtACCESS:          0  dtHIT:          0  dtMISS:          0
cpu0_L2C TRANSLATION  ACCESS:     479830  HIT:     189711  MISS:     290119  iACCESS:          0  iHIT:          0  iMISS:          0  dACCESS:          0  dHIT:          0  dMISS:          0  itACCESS:     109107  itHIT:      38223  itMISS:      70884  dtACCESS:     370723  dtHIT:     151488  dtMISS:     219235
cpu0_L2C PREFETCH  REQUESTED:    1499630  ISSUED:    1499624  CROSSED:          0  USEFUL:     412344  USELESS:     485497
cpu0_L2C AVERAGE iMISS LATENCY: 25.9183 cycles
cpu0_L2C AVERAGE dMISS LATENCY: 48.9038 cycles
cpu0_L2C AVERAGE itMISS LATENCY: 1.56755 cycles
cpu0_L2C AVERAGE dtMISS LATENCY: 5.07459 cycles
cpu0_L2C PAGE CROSSINGS (TLB HIT):         0 
cpu0_L2C PAGE CROSSINGS (TLB MISS):         0 
cpu0_L2C AVERAGE MISS LATENCY: 81.4642 cycles
LLC TOTAL       ACCESS:    6983257  HIT:    4353874  MISS:    2629383  iACCESS:    2926423  iHIT:    2115653  iMISS:     810770  dACCESS:    3766715  dHIT:    2171498  dMISS:    1595217  itACCESS:      70884  itHIT:      15872  itMISS:      55012  dtACCESS:     219235  dtHIT:      50851  dtMISS:     168384
LLC LOAD         ACCESS:    1871696  HIT:    1231159  MISS:     640537  iACCESS:     734576  iHIT:     566419  iMISS:     168157  dACCESS:    1137120  dHIT:     664740  dMISS:     472380  itACCESS:          0  itHIT:          0  itMISS:          0  dtACCESS:          0  dtHIT:          0  dtMISS:          0
LLC RFO          ACCESS:     190493  HIT:     103417  MISS:      87076  iACCESS:          0  iHIT:          0  iMISS:          0  dACCESS:     190493  dHIT:     103417  dMISS:      87076  itACCESS:          0  itHIT:          0  itMISS:          0  dtACCESS:          0  dtHIT:          0  dtMISS:          0
LLC PREFETCH     ACCESS:    4349843  HIT:    2677057  MISS:    1672786  iACCESS:    2191847  iHIT:    1549234  iMISS:     642613  dACCESS:    2157996  dHIT:    1127823  dMISS:    1030173  itACCESS:          0  itHIT:          0  itMISS:          0  dtACCESS:          0  dtHIT:          0  dtMISS:          0
LLC WRITE        ACCESS:     281106  HIT:     275518  MISS:       5588  iACCESS:          0  iHIT:          0  iMISS:          0  dACCESS:     281106  dHIT:     275518  dMISS:       5588  itACCESS:          0  itHIT:          0  itMISS:          0  dtACCESS:          0  dtHIT:          0  dtMISS:          0
LLC TRANSLATION  ACCESS:     290119  HIT:      66723  MISS:     223396  iACCESS:          0  iHIT:          0  iMISS:          0  dACCESS:          0  dHIT:          0  dMISS:          0  itACCESS:      70884  itHIT:      15872  itMISS:      55012  dtACCESS:     219235  dtHIT:      50851  dtMISS:     168384
LLC PREFETCH  REQUESTED:          0  ISSUED:          0  CROSSED:          0  USEFUL:          0  USELESS:          0
LLC AVERAGE iMISS LATENCY: 48.9216 cycles
LLC AVERAGE dMISS LATENCY: 107.848 cycles
LLC AVERAGE itMISS LATENCY: 3.73404 cycles
LLC AVERAGE dtMISS LATENCY: 12.1659 cycles
LLC PAGE CROSSINGS (TLB HIT):         0 
LLC PAGE CROSSINGS (TLB MISS):         0 
LLC AVERAGE MISS LATENCY: 172.67 cycles

PageTableWalker TOTAL       ACCESS:     182467  
PageTableWalker AVERAGE LATENCY: 5.94835 cycles
PageTableWalker TOTAL LATENCY: 1085376 cycles

DRAM Statistics
Channel 0
 RQ ROW_BUFFER_HIT:     572443
  ROW_BUFFER_MISS:    2041619
 AVG DBUS CONGESTED CYCLE:     3.6487
 WQ ROW_BUFFER_HIT:      65024
  ROW_BUFFER_MISS:      63072  FULL:          0

