last_page:0x200000000000000
VMEM_RES_CAP:0x100000
PAGE_SIZE:4096
LOG2_PAGE_SIZE:12
LOG2_PAGE_TABLE_SIZE:9
page_table_levels:5
WARNING: physical memory size is smaller than virtual memory size
FDiP enabled with aggresivity 16

*** ChampSim Multicore Out-of-Order Simulator ***

Warmup Instructions: 50000000
Simulation Instructions: 100000000
Number of CPUs: 1
Small page size: 4096
Large page size: 2097152

CPU 0 Bimodal branch predictor
Basic BTB sets: 1024 ways: 8 indirect buffer size: 4096 RAS size: 64
Instruction page size distrubution: 0
Loading instruction page size distribution from /home/bsc/bsc018186/scratch/itp_asplos25_AE/dump/smt_srv540_ap_srv495_ap_1024i.pdst
Data page size distrubution: 0
Loading data page size distribution from /home/bsc/bsc018186/scratch/itp_asplos25_AE/dump/smt_srv540_ap_srv495_ap_1024i.pdst
cpu0_L2C IP-based stride prefetcher
cpu0_L2C is using PTP replacement policy:
	TLB_STRESS_THRESHOLD:0
	PTE_EVICTION_RATIO:0
cpu0_L1D next line prefetcher
cpu0_STLB using iTP with max lru@8
cpu0_STLB using iTP with instr@0 and data@2
Init sat counter with 3 bits (max:50).
cpu0_L1I next line prefetcher
Off-chip DRAM Size: 4 GiB Channels: 1 Width: 64-bit Data Rate: 3200 MT/s
Heartbeat CPU 0 instructions: 10000002 cycles: 2500212 heartbeat IPC: 3.99967 cumulative IPC: 3.99967 (Simulation time: 0 hr 0 min 36 sec) 
Heartbeat CPU 0 instructions: 20000000 cycles: 5000373 heartbeat IPC: 3.99975 cumulative IPC: 3.99971 (Simulation time: 0 hr 1 min 14 sec) 
Heartbeat CPU 0 instructions: 30000003 cycles: 7500541 heartbeat IPC: 3.99974 cumulative IPC: 3.99972 (Simulation time: 0 hr 1 min 53 sec) 
Heartbeat CPU 0 instructions: 40000003 cycles: 10000620 heartbeat IPC: 3.99988 cumulative IPC: 3.99976 (Simulation time: 0 hr 2 min 32 sec) 
Heartbeat CPU 0 instructions: 50000003 cycles: 12500724 heartbeat IPC: 3.99984 cumulative IPC: 3.99977 (Simulation time: 0 hr 3 min 12 sec) 
Warmup finished CPU 0 instructions: 50000003 cycles: 12500725 cumulative IPC: 3.99977 (Simulation time: 0 hr 3 min 12 sec) 

Warmup complete CPU 0 instructions: 50000003 cycles: 12500725 (Simulation time: 0 hr 3 min 12 sec) 

Heartbeat CPU 0 instructions: 60000001 cycles: 42531058 heartbeat IPC: 0.332997 cumulative IPC: 0.332997 (Simulation time: 0 hr 4 min 32 sec) 
Heartbeat CPU 0 instructions: 70000003 cycles: 72758388 heartbeat IPC: 0.330827 cumulative IPC: 0.331908 (Simulation time: 0 hr 5 min 54 sec) 
Heartbeat CPU 0 instructions: 80000002 cycles: 103321384 heartbeat IPC: 0.327194 cumulative IPC: 0.330322 (Simulation time: 0 hr 7 min 16 sec) 
Heartbeat CPU 0 instructions: 90000000 cycles: 133877926 heartbeat IPC: 0.327263 cumulative IPC: 0.329552 (Simulation time: 0 hr 8 min 38 sec) 
Heartbeat CPU 0 instructions: 100000001 cycles: 164108883 heartbeat IPC: 0.330787 cumulative IPC: 0.329798 (Simulation time: 0 hr 9 min 59 sec) 
Heartbeat CPU 0 instructions: 110000000 cycles: 193876797 heartbeat IPC: 0.335933 cumulative IPC: 0.330805 (Simulation time: 0 hr 11 min 21 sec) 
Heartbeat CPU 0 instructions: 120000000 cycles: 224134647 heartbeat IPC: 0.330493 cumulative IPC: 0.33076 (Simulation time: 0 hr 12 min 43 sec) 
Heartbeat CPU 0 instructions: 130000001 cycles: 254073480 heartbeat IPC: 0.334015 cumulative IPC: 0.331164 (Simulation time: 0 hr 14 min 5 sec) 
Heartbeat CPU 0 instructions: 140000002 cycles: 283987319 heartbeat IPC: 0.334294 cumulative IPC: 0.331509 (Simulation time: 0 hr 15 min 26 sec) 
Heartbeat CPU 0 instructions: 150000001 cycles: 312388770 heartbeat IPC: 0.352095 cumulative IPC: 0.333458 (Simulation time: 0 hr 16 min 46 sec) 
Simulation finished CPU 0 instructions: 100000003 cycles: 299888047 cumulative IPC: 0.333458 (Simulation time: 0 hr 16 min 46 sec) 

Simulation complete CPU 0 instructions: 100000003 cycles: 299888047 (Simulation time: 0 hr 16 min 46 sec) 


ChampSim completed all CPUs

Saving instructions large page distribution to /home/bsc/bsc018186/scratch/itp_asplos25_AE/dump/smt_srv540_ap_srv495_ap_1024i.pdst...
Saving data large page distribution to /home/bsc/bsc018186/scratch/itp_asplos25_AE/dump/smt_srv540_ap_srv495_ap_1024i.pdst...
=== Simulation ===
CPU 0 runs /gpfs/projects/bsc18/MN4/bsc18/romol/ChampSim/traces/qualcomm_srv/smt_srv540_ap_srv495_ap_1024i.champsimtrace.xz

Region of Interest Statistics

CPU 0 cumulative IPC: 0.333458 instructions: 100000003 cycles: 299888047
CPU 0 Branch Prediction Accuracy: 75.5046% MPKI: 44.1654 Average ROB Occupancy at Mispredict: 11.1674
Branch type MPKI
BRANCH_DIRECT_JUMP: 1.33859
BRANCH_INDIRECT: 22.7715
BRANCH_CONDITIONAL: 12.9584
BRANCH_DIRECT_CALL: 2.62042
BRANCH_INDIRECT_CALL: 0.98476
BRANCH_RETURN: 3.49187

Instructions large pages: 0
Instructions small pages: 9586
Large page distribution for instructions: 0%

Data large pages: 0
Data small pages: 8248
Large page distribution for data: 0%

cpu0_L1I TOTAL       ACCESS:   38750382  HIT:   30179567  MISS:    8570815  iACCESS:   38750382  iHIT:   30179567  iMISS:    8570815  dACCESS:          0  dHIT:          0  dMISS:          0  itACCESS:          0  itHIT:          0  itMISS:          0  dtACCESS:          0  dtHIT:          0  dtMISS:          0
cpu0_L1I LOAD         ACCESS:   11523568  HIT:    9190898  MISS:    2332670  iACCESS:   11523568  iHIT:    9190898  iMISS:    2332670  dACCESS:          0  dHIT:          0  dMISS:          0  itACCESS:          0  itHIT:          0  itMISS:          0  dtACCESS:          0  dtHIT:          0  dtMISS:          0
cpu0_L1I RFO          ACCESS:          0  HIT:          0  MISS:          0  iACCESS:          0  iHIT:          0  iMISS:          0  dACCESS:          0  dHIT:          0  dMISS:          0  itACCESS:          0  itHIT:          0  itMISS:          0  dtACCESS:          0  dtHIT:          0  dtMISS:          0
cpu0_L1I PREFETCH     ACCESS:   27226814  HIT:   20988669  MISS:    6238145  iACCESS:   27226814  iHIT:   20988669  iMISS:    6238145  dACCESS:          0  dHIT:          0  dMISS:          0  itACCESS:          0  itHIT:          0  itMISS:          0  dtACCESS:          0  dtHIT:          0  dtMISS:          0
cpu0_L1I WRITE        ACCESS:          0  HIT:          0  MISS:          0  iACCESS:          0  iHIT:          0  iMISS:          0  dACCESS:          0  dHIT:          0  dMISS:          0  itACCESS:          0  itHIT:          0  itMISS:          0  dtACCESS:          0  dtHIT:          0  dtMISS:          0
cpu0_L1I TRANSLATION  ACCESS:          0  HIT:          0  MISS:          0  iACCESS:          0  iHIT:          0  iMISS:          0  dACCESS:          0  dHIT:          0  dMISS:          0  itACCESS:          0  itHIT:          0  itMISS:          0  dtACCESS:          0  dtHIT:          0  dtMISS:          0
cpu0_L1I PREFETCH  REQUESTED:   29959854  ISSUED:   29959660  CROSSED:          0  USEFUL:    2176998  USELESS:     752347
cpu0_L1I AVERAGE iMISS LATENCY: 24.8285 cycles
cpu0_L1I AVERAGE dMISS LATENCY: 0 cycles
cpu0_L1I AVERAGE itMISS LATENCY: 0 cycles
cpu0_L1I AVERAGE dtMISS LATENCY: 0 cycles
cpu0_L1I PAGE CROSSINGS (TLB HIT):         0 
cpu0_L1I PAGE CROSSINGS (TLB MISS):         0 
cpu0_L1I AVERAGE MISS LATENCY: 24.8285 cycles
cpu0_ITLB TOTAL       ACCESS:   32850536  HIT:   30639250  MISS:    2211286  iACCESS:   32850536  iHIT:   30639250  iMISS:    2211286  dACCESS:          0  dHIT:          0  dMISS:          0  itACCESS:          0  itHIT:          0  itMISS:          0  dtACCESS:          0  dtHIT:          0  dtMISS:          0
cpu0_ITLB LOAD         ACCESS:   32850536  HIT:   30639250  MISS:    2211286  iACCESS:   32850536  iHIT:   30639250  iMISS:    2211286  dACCESS:          0  dHIT:          0  dMISS:          0  itACCESS:          0  itHIT:          0  itMISS:          0  dtACCESS:          0  dtHIT:          0  dtMISS:          0
cpu0_ITLB RFO          ACCESS:          0  HIT:          0  MISS:          0  iACCESS:          0  iHIT:          0  iMISS:          0  dACCESS:          0  dHIT:          0  dMISS:          0  itACCESS:          0  itHIT:          0  itMISS:          0  dtACCESS:          0  dtHIT:          0  dtMISS:          0
cpu0_ITLB PREFETCH     ACCESS:          0  HIT:          0  MISS:          0  iACCESS:          0  iHIT:          0  iMISS:          0  dACCESS:          0  dHIT:          0  dMISS:          0  itACCESS:          0  itHIT:          0  itMISS:          0  dtACCESS:          0  dtHIT:          0  dtMISS:          0
cpu0_ITLB WRITE        ACCESS:          0  HIT:          0  MISS:          0  iACCESS:          0  iHIT:          0  iMISS:          0  dACCESS:          0  dHIT:          0  dMISS:          0  itACCESS:          0  itHIT:          0  itMISS:          0  dtACCESS:          0  dtHIT:          0  dtMISS:          0
cpu0_ITLB TRANSLATION  ACCESS:          0  HIT:          0  MISS:          0  iACCESS:          0  iHIT:          0  iMISS:          0  dACCESS:          0  dHIT:          0  dMISS:          0  itACCESS:          0  itHIT:          0  itMISS:          0  dtACCESS:          0  dtHIT:          0  dtMISS:          0
cpu0_ITLB PREFETCH  REQUESTED:          0  ISSUED:          0  CROSSED:          0  USEFUL:     383184  USELESS:      78641
cpu0_ITLB AVERAGE iMISS LATENCY: 6.88284 cycles
cpu0_ITLB AVERAGE dMISS LATENCY: 0 cycles
cpu0_ITLB AVERAGE itMISS LATENCY: 0 cycles
cpu0_ITLB AVERAGE dtMISS LATENCY: 0 cycles
cpu0_ITLB PAGE CROSSINGS (TLB HIT):         0 
cpu0_ITLB PAGE CROSSINGS (TLB MISS):         0 
cpu0_ITLB AVERAGE MISS LATENCY: 6.88284 cycles
cpu0_DTLB TOTAL       ACCESS:   28798911  HIT:   25110472  MISS:    3688439  iACCESS:          0  iHIT:          0  iMISS:          0  dACCESS:   28798911  dHIT:   25110472  dMISS:    3688439  itACCESS:          0  itHIT:          0  itMISS:          0  dtACCESS:          0  dtHIT:          0  dtMISS:          0
cpu0_DTLB LOAD         ACCESS:   28798911  HIT:   25110472  MISS:    3688439  iACCESS:          0  iHIT:          0  iMISS:          0  dACCESS:   28798911  dHIT:   25110472  dMISS:    3688439  itACCESS:          0  itHIT:          0  itMISS:          0  dtACCESS:          0  dtHIT:          0  dtMISS:          0
cpu0_DTLB RFO          ACCESS:          0  HIT:          0  MISS:          0  iACCESS:          0  iHIT:          0  iMISS:          0  dACCESS:          0  dHIT:          0  dMISS:          0  itACCESS:          0  itHIT:          0  itMISS:          0  dtACCESS:          0  dtHIT:          0  dtMISS:          0
cpu0_DTLB PREFETCH     ACCESS:          0  HIT:          0  MISS:          0  iACCESS:          0  iHIT:          0  iMISS:          0  dACCESS:          0  dHIT:          0  dMISS:          0  itACCESS:          0  itHIT:          0  itMISS:          0  dtACCESS:          0  dtHIT:          0  dtMISS:          0
cpu0_DTLB WRITE        ACCESS:          0  HIT:          0  MISS:          0  iACCESS:          0  iHIT:          0  iMISS:          0  dACCESS:          0  dHIT:          0  dMISS:          0  itACCESS:          0  itHIT:          0  itMISS:          0  dtACCESS:          0  dtHIT:          0  dtMISS:          0
cpu0_DTLB TRANSLATION  ACCESS:          0  HIT:          0  MISS:          0  iACCESS:          0  iHIT:          0  iMISS:          0  dACCESS:          0  dHIT:          0  dMISS:          0  itACCESS:          0  itHIT:          0  itMISS:          0  dtACCESS:          0  dtHIT:          0  dtMISS:          0
cpu0_DTLB PREFETCH  REQUESTED:          0  ISSUED:          0  CROSSED:          0  USEFUL:          0  USELESS:          0
cpu0_DTLB AVERAGE iMISS LATENCY: 0 cycles
cpu0_DTLB AVERAGE dMISS LATENCY: 27.7775 cycles
cpu0_DTLB AVERAGE itMISS LATENCY: 0 cycles
cpu0_DTLB AVERAGE dtMISS LATENCY: 0 cycles
cpu0_DTLB PAGE CROSSINGS (TLB HIT):         0 
cpu0_DTLB PAGE CROSSINGS (TLB MISS):         0 
cpu0_DTLB AVERAGE MISS LATENCY: 27.7775 cycles
cpu0_STLB TOTAL       ACCESS:    2592307  HIT:    2212199  MISS:     380108  iACCESS:     461827  iHIT:     401193  iMISS:      60634  dACCESS:    2130480  dHIT:    1811006  dMISS:     319474  itACCESS:          0  itHIT:          0  itMISS:          0  dtACCESS:          0  dtHIT:          0  dtMISS:          0
cpu0_STLB LOAD         ACCESS:    2592307  HIT:    2212199  MISS:     380108  iACCESS:     461827  iHIT:     401193  iMISS:      60634  dACCESS:    2130480  dHIT:    1811006  dMISS:     319474  itACCESS:          0  itHIT:          0  itMISS:          0  dtACCESS:          0  dtHIT:          0  dtMISS:          0
cpu0_STLB RFO          ACCESS:          0  HIT:          0  MISS:          0  iACCESS:          0  iHIT:          0  iMISS:          0  dACCESS:          0  dHIT:          0  dMISS:          0  itACCESS:          0  itHIT:          0  itMISS:          0  dtACCESS:          0  dtHIT:          0  dtMISS:          0
cpu0_STLB PREFETCH     ACCESS:          0  HIT:          0  MISS:          0  iACCESS:          0  iHIT:          0  iMISS:          0  dACCESS:          0  dHIT:          0  dMISS:          0  itACCESS:          0  itHIT:          0  itMISS:          0  dtACCESS:          0  dtHIT:          0  dtMISS:          0
cpu0_STLB WRITE        ACCESS:          0  HIT:          0  MISS:          0  iACCESS:          0  iHIT:          0  iMISS:          0  dACCESS:          0  dHIT:          0  dMISS:          0  itACCESS:          0  itHIT:          0  itMISS:          0  dtACCESS:          0  dtHIT:          0  dtMISS:          0
cpu0_STLB TRANSLATION  ACCESS:          0  HIT:          0  MISS:          0  iACCESS:          0  iHIT:          0  iMISS:          0  dACCESS:          0  dHIT:          0  dMISS:          0  itACCESS:          0  itHIT:          0  itMISS:          0  dtACCESS:          0  dtHIT:          0  dtMISS:          0
cpu0_STLB PREFETCH  REQUESTED:          0  ISSUED:          0  CROSSED:          0  USEFUL:          0  USELESS:          0
cpu0_STLB AVERAGE iMISS LATENCY: 30.4713 cycles
cpu0_STLB AVERAGE dMISS LATENCY: 224.27 cycles
cpu0_STLB AVERAGE itMISS LATENCY: 0 cycles
cpu0_STLB AVERAGE dtMISS LATENCY: 0 cycles
cpu0_STLB PAGE CROSSINGS (TLB HIT):         0 
cpu0_STLB PAGE CROSSINGS (TLB MISS):         0 
cpu0_STLB AVERAGE MISS LATENCY: 254.741 cycles
cpu0_L1D TOTAL       ACCESS:   44682858  HIT:   38975303  MISS:    5707555  iACCESS:          0  iHIT:          0  iMISS:          0  dACCESS:   44100976  dHIT:   38945345  dMISS:    5155631  itACCESS:      71426  itHIT:       5594  itMISS:      65832  dtACCESS:     510456  dtHIT:      24364  dtMISS:     486092
cpu0_L1D LOAD         ACCESS:   20144417  HIT:   17831898  MISS:    2312519  iACCESS:          0  iHIT:          0  iMISS:          0  dACCESS:   20144417  dHIT:   17831898  dMISS:    2312519  itACCESS:          0  itHIT:          0  itMISS:          0  dtACCESS:          0  dtHIT:          0  dtMISS:          0
cpu0_L1D RFO          ACCESS:          0  HIT:          0  MISS:          0  iACCESS:          0  iHIT:          0  iMISS:          0  dACCESS:          0  dHIT:          0  dMISS:          0  itACCESS:          0  itHIT:          0  itMISS:          0  dtACCESS:          0  dtHIT:          0  dtMISS:          0
cpu0_L1D PREFETCH     ACCESS:   13812604  HIT:   11542134  MISS:    2270470  iACCESS:          0  iHIT:          0  iMISS:          0  dACCESS:   13812604  dHIT:   11542134  dMISS:    2270470  itACCESS:          0  itHIT:          0  itMISS:          0  dtACCESS:          0  dtHIT:          0  dtMISS:          0
cpu0_L1D WRITE        ACCESS:   10143955  HIT:    9571313  MISS:     572642  iACCESS:          0  iHIT:          0  iMISS:          0  dACCESS:   10143955  dHIT:    9571313  dMISS:     572642  itACCESS:          0  itHIT:          0  itMISS:          0  dtACCESS:          0  dtHIT:          0  dtMISS:          0
cpu0_L1D TRANSLATION  ACCESS:     581882  HIT:      29958  MISS:     551924  iACCESS:          0  iHIT:          0  iMISS:          0  dACCESS:          0  dHIT:          0  dMISS:          0  itACCESS:      71426  itHIT:       5594  itMISS:      65832  dtACCESS:     510456  dtHIT:      24364  dtMISS:     486092
cpu0_L1D PREFETCH  REQUESTED:   20144417  ISSUED:   18357934  CROSSED:          0  USEFUL:     360497  USELESS:     933631
cpu0_L1D AVERAGE iMISS LATENCY: 0 cycles
cpu0_L1D AVERAGE dMISS LATENCY: 50.5243 cycles
cpu0_L1D AVERAGE itMISS LATENCY: 1.92208 cycles
cpu0_L1D AVERAGE dtMISS LATENCY: 14.0178 cycles
cpu0_L1D PAGE CROSSINGS (TLB HIT):         0 
cpu0_L1D PAGE CROSSINGS (TLB MISS):         0 
cpu0_L1D AVERAGE MISS LATENCY: 66.4641 cycles
cpu0_L2C TOTAL       ACCESS:    8603483  HIT:    4213508  MISS:    4389975  iACCESS:    3727572  iHIT:    2293828  iMISS:    1433744  dACCESS:    4353497  dHIT:    1849591  dMISS:    2503906  itACCESS:      65410  itHIT:      10460  itMISS:      54950  dtACCESS:     457004  dtHIT:      59629  dtMISS:     397375
cpu0_L2C LOAD         ACCESS:    2042634  HIT:    1005929  MISS:    1036705  iACCESS:     835959  iHIT:     535974  iMISS:     299985  dACCESS:    1206675  dHIT:     469955  dMISS:     736720  itACCESS:          0  itHIT:          0  itMISS:          0  dtACCESS:          0  dtHIT:          0  dtMISS:          0
cpu0_L2C RFO          ACCESS:     219757  HIT:      85552  MISS:     134205  iACCESS:          0  iHIT:          0  iMISS:          0  dACCESS:     219757  dHIT:      85552  dMISS:     134205  itACCESS:          0  itHIT:          0  itMISS:          0  dtACCESS:          0  dtHIT:          0  dtMISS:          0
cpu0_L2C PREFETCH     ACCESS:    5470382  HIT:    2707005  MISS:    2763377  iACCESS:    2891613  iHIT:    1757854  iMISS:    1133759  dACCESS:    2578769  dHIT:     949151  dMISS:    1629618  itACCESS:          0  itHIT:          0  itMISS:          0  dtACCESS:          0  dtHIT:          0  dtMISS:          0
cpu0_L2C WRITE        ACCESS:     348296  HIT:     344933  MISS:       3363  iACCESS:          0  iHIT:          0  iMISS:          0  dACCESS:     348296  dHIT:     344933  dMISS:       3363  itACCESS:          0  itHIT:          0  itMISS:          0  dtACCESS:          0  dtHIT:          0  dtMISS:          0
cpu0_L2C TRANSLATION  ACCESS:     522414  HIT:      70089  MISS:     452325  iACCESS:          0  iHIT:          0  iMISS:          0  dACCESS:          0  dHIT:          0  dMISS:          0  itACCESS:      65410  itHIT:      10460  itMISS:      54950  dtACCESS:     457004  dtHIT:      59629  dtMISS:     397375
cpu0_L2C PREFETCH  REQUESTED:    1522258  ISSUED:    1522246  CROSSED:          0  USEFUL:     352749  USELESS:     315508
cpu0_L2C AVERAGE iMISS LATENCY: 41.4523 cycles
cpu0_L2C AVERAGE dMISS LATENCY: 81.7763 cycles
cpu0_L2C AVERAGE itMISS LATENCY: 2.35187 cycles
cpu0_L2C AVERAGE dtMISS LATENCY: 17.1913 cycles
cpu0_L2C PAGE CROSSINGS (TLB HIT):         0 
cpu0_L2C PAGE CROSSINGS (TLB MISS):         0 
cpu0_L2C AVERAGE MISS LATENCY: 142.772 cycles
LLC TOTAL       ACCESS:    4376753  HIT:    1226412  MISS:    3150341  iACCESS:    1342700  iHIT:     367066  iMISS:     975634  dACCESS:    2581728  dHIT:     806853  dMISS:    1774875  itACCESS:      54950  itHIT:       3287  itMISS:      51663  dtACCESS:     397375  dtHIT:      49206  dtMISS:     348169
LLC LOAD         ACCESS:    1030071  HIT:     304567  MISS:     725504  iACCESS:     298784  iHIT:      88665  iMISS:     210119  dACCESS:     731287  dHIT:     215902  dMISS:     515385  itACCESS:          0  itHIT:          0  itMISS:          0  dtACCESS:          0  dtHIT:          0  dtMISS:          0
LLC RFO          ACCESS:     134201  HIT:      40853  MISS:      93348  iACCESS:          0  iHIT:          0  iMISS:          0  dACCESS:     134201  dHIT:      40853  dMISS:      93348  itACCESS:          0  itHIT:          0  itMISS:          0  dtACCESS:          0  dtHIT:          0  dtMISS:          0
LLC PREFETCH     ACCESS:    2548835  HIT:     627734  MISS:    1921101  iACCESS:    1043916  iHIT:     278401  iMISS:     765515  dACCESS:    1504919  dHIT:     349333  dMISS:    1155586  itACCESS:          0  itHIT:          0  itMISS:          0  dtACCESS:          0  dtHIT:          0  dtMISS:          0
LLC WRITE        ACCESS:     211321  HIT:     200765  MISS:      10556  iACCESS:          0  iHIT:          0  iMISS:          0  dACCESS:     211321  dHIT:     200765  dMISS:      10556  itACCESS:          0  itHIT:          0  itMISS:          0  dtACCESS:          0  dtHIT:          0  dtMISS:          0
LLC TRANSLATION  ACCESS:     452325  HIT:      52493  MISS:     399832  iACCESS:          0  iHIT:          0  iMISS:          0  dACCESS:          0  dHIT:          0  dMISS:          0  itACCESS:      54950  itHIT:       3287  itMISS:      51663  dtACCESS:     397375  dtHIT:      49206  dtMISS:     348169
LLC PREFETCH  REQUESTED:          0  ISSUED:          0  CROSSED:          0  USEFUL:          0  USELESS:          0
LLC AVERAGE iMISS LATENCY: 49.3557 cycles
LLC AVERAGE dMISS LATENCY: 100.036 cycles
LLC AVERAGE itMISS LATENCY: 2.93121 cycles
LLC AVERAGE dtMISS LATENCY: 21.4633 cycles
LLC PAGE CROSSINGS (TLB HIT):         0 
LLC PAGE CROSSINGS (TLB MISS):         0 
LLC AVERAGE MISS LATENCY: 173.786 cycles

PageTableWalker TOTAL       ACCESS:     186893  
PageTableWalker AVERAGE LATENCY: 6.71353 cycles
PageTableWalker TOTAL LATENCY: 1254711 cycles

DRAM Statistics
Channel 0
 RQ ROW_BUFFER_HIT:     660923
  ROW_BUFFER_MISS:    2459251
 AVG DBUS CONGESTED CYCLE:    3.65591
 WQ ROW_BUFFER_HIT:      65732
  ROW_BUFFER_MISS:      58599  FULL:          0

