last_page:0x200000000000000
VMEM_RES_CAP:0x100000
PAGE_SIZE:4096
LOG2_PAGE_SIZE:12
LOG2_PAGE_TABLE_SIZE:9
page_table_levels:5
WARNING: physical memory size is smaller than virtual memory size
FDiP enabled with aggresivity 16

*** ChampSim Multicore Out-of-Order Simulator ***

Warmup Instructions: 50000000
Simulation Instructions: 100000000
Number of CPUs: 1
Small page size: 4096
Large page size: 2097152

CPU 0 Bimodal branch predictor
Basic BTB sets: 1024 ways: 8 indirect buffer size: 4096 RAS size: 64
Instruction page size distrubution: 0
Loading instruction page size distribution from /home/bsc/bsc018186/scratch/itp_asplos25_AE/dump/smt_srv537_ap_srv442_ap_1024i.pdst
Data page size distrubution: 0
Loading data page size distribution from /home/bsc/bsc018186/scratch/itp_asplos25_AE/dump/smt_srv537_ap_srv442_ap_1024i.pdst
cpu0_L2C IP-based stride prefetcher
cpu0_L1D next line prefetcher
cpu0_L1I next line prefetcher
Off-chip DRAM Size: 4 GiB Channels: 1 Width: 64-bit Data Rate: 3200 MT/s
Heartbeat CPU 0 instructions: 10000003 cycles: 2500844 heartbeat IPC: 3.99866 cumulative IPC: 3.99866 (Simulation time: 0 hr 0 min 46 sec) 
Heartbeat CPU 0 instructions: 20000000 cycles: 5001178 heartbeat IPC: 3.99947 cumulative IPC: 3.99906 (Simulation time: 0 hr 1 min 34 sec) 
Heartbeat CPU 0 instructions: 30000001 cycles: 7501504 heartbeat IPC: 3.99948 cumulative IPC: 3.9992 (Simulation time: 0 hr 2 min 23 sec) 
Heartbeat CPU 0 instructions: 40000000 cycles: 10001585 heartbeat IPC: 3.99988 cumulative IPC: 3.99937 (Simulation time: 0 hr 3 min 12 sec) 
Heartbeat CPU 0 instructions: 50000000 cycles: 12501935 heartbeat IPC: 3.99945 cumulative IPC: 3.99939 (Simulation time: 0 hr 4 min 1 sec) 
Warmup finished CPU 0 instructions: 50000000 cycles: 12501936 cumulative IPC: 3.99939 (Simulation time: 0 hr 4 min 1 sec) 

Warmup complete CPU 0 instructions: 50000000 cycles: 12501936 (Simulation time: 0 hr 4 min 1 sec) 

Heartbeat CPU 0 instructions: 60000000 cycles: 39056063 heartbeat IPC: 0.37659 cumulative IPC: 0.37659 (Simulation time: 0 hr 5 min 38 sec) 
Heartbeat CPU 0 instructions: 70000004 cycles: 65544236 heartbeat IPC: 0.377528 cumulative IPC: 0.377058 (Simulation time: 0 hr 7 min 13 sec) 
Heartbeat CPU 0 instructions: 80000003 cycles: 91059793 heartbeat IPC: 0.391918 cumulative IPC: 0.381885 (Simulation time: 0 hr 8 min 45 sec) 
Heartbeat CPU 0 instructions: 90000000 cycles: 117110833 heartbeat IPC: 0.383862 cumulative IPC: 0.382377 (Simulation time: 0 hr 10 min 20 sec) 
Heartbeat CPU 0 instructions: 100000003 cycles: 143652437 heartbeat IPC: 0.376768 cumulative IPC: 0.381242 (Simulation time: 0 hr 11 min 56 sec) 
Heartbeat CPU 0 instructions: 110000003 cycles: 170575983 heartbeat IPC: 0.371423 cumulative IPC: 0.379569 (Simulation time: 0 hr 13 min 33 sec) 
Heartbeat CPU 0 instructions: 120000002 cycles: 197380244 heartbeat IPC: 0.373075 cumulative IPC: 0.378628 (Simulation time: 0 hr 15 min 9 sec) 
Heartbeat CPU 0 instructions: 130000002 cycles: 223523812 heartbeat IPC: 0.382504 cumulative IPC: 0.379108 (Simulation time: 0 hr 16 min 44 sec) 
Heartbeat CPU 0 instructions: 140000002 cycles: 249405712 heartbeat IPC: 0.386371 cumulative IPC: 0.379902 (Simulation time: 0 hr 18 min 8 sec) 
Heartbeat CPU 0 instructions: 150000002 cycles: 275983673 heartbeat IPC: 0.376252 cumulative IPC: 0.379533 (Simulation time: 0 hr 19 min 32 sec) 
Simulation finished CPU 0 instructions: 100000002 cycles: 263481738 cumulative IPC: 0.379533 (Simulation time: 0 hr 19 min 32 sec) 

Simulation complete CPU 0 instructions: 100000002 cycles: 263481738 (Simulation time: 0 hr 19 min 32 sec) 


ChampSim completed all CPUs

Saving instructions large page distribution to /home/bsc/bsc018186/scratch/itp_asplos25_AE/dump/smt_srv537_ap_srv442_ap_1024i.pdst...
Saving data large page distribution to /home/bsc/bsc018186/scratch/itp_asplos25_AE/dump/smt_srv537_ap_srv442_ap_1024i.pdst...
=== Simulation ===
CPU 0 runs /gpfs/projects/bsc18/MN4/bsc18/romol/ChampSim/traces/qualcomm_srv/smt_srv537_ap_srv442_ap_1024i.champsimtrace.xz

Region of Interest Statistics

CPU 0 cumulative IPC: 0.379533 instructions: 100000002 cycles: 263481738
CPU 0 Branch Prediction Accuracy: 76.4472% MPKI: 42.5537 Average ROB Occupancy at Mispredict: 10.8789
Branch type MPKI
BRANCH_DIRECT_JUMP: 1.30472
BRANCH_INDIRECT: 22.7349
BRANCH_CONDITIONAL: 11.6924
BRANCH_DIRECT_CALL: 2.42252
BRANCH_INDIRECT_CALL: 1.00609
BRANCH_RETURN: 3.39313

Instructions large pages: 0
Instructions small pages: 10371
Large page distribution for instructions: 0%

Data large pages: 0
Data small pages: 9181
Large page distribution for data: 0%

cpu0_L1I TOTAL       ACCESS:   39399772  HIT:   29979156  MISS:    9420616  iACCESS:   39399772  iHIT:   29979156  iMISS:    9420616  dACCESS:          0  dHIT:          0  dMISS:          0  itACCESS:          0  itHIT:          0  itMISS:          0  dtACCESS:          0  dtHIT:          0  dtMISS:          0
cpu0_L1I LOAD         ACCESS:   11810955  HIT:    9224583  MISS:    2586372  iACCESS:   11810955  iHIT:    9224583  iMISS:    2586372  dACCESS:          0  dHIT:          0  dMISS:          0  itACCESS:          0  itHIT:          0  itMISS:          0  dtACCESS:          0  dtHIT:          0  dtMISS:          0
cpu0_L1I RFO          ACCESS:          0  HIT:          0  MISS:          0  iACCESS:          0  iHIT:          0  iMISS:          0  dACCESS:          0  dHIT:          0  dMISS:          0  itACCESS:          0  itHIT:          0  itMISS:          0  dtACCESS:          0  dtHIT:          0  dtMISS:          0
cpu0_L1I PREFETCH     ACCESS:   27588817  HIT:   20754573  MISS:    6834244  iACCESS:   27588817  iHIT:   20754573  iMISS:    6834244  dACCESS:          0  dHIT:          0  dMISS:          0  itACCESS:          0  itHIT:          0  itMISS:          0  dtACCESS:          0  dtHIT:          0  dtMISS:          0
cpu0_L1I WRITE        ACCESS:          0  HIT:          0  MISS:          0  iACCESS:          0  iHIT:          0  iMISS:          0  dACCESS:          0  dHIT:          0  dMISS:          0  itACCESS:          0  itHIT:          0  itMISS:          0  dtACCESS:          0  dtHIT:          0  dtMISS:          0
cpu0_L1I TRANSLATION  ACCESS:          0  HIT:          0  MISS:          0  iACCESS:          0  iHIT:          0  iMISS:          0  dACCESS:          0  dHIT:          0  dMISS:          0  itACCESS:          0  itHIT:          0  itMISS:          0  dtACCESS:          0  dtHIT:          0  dtMISS:          0
cpu0_L1I PREFETCH  REQUESTED:   30246528  ISSUED:   30245192  CROSSED:          0  USEFUL:    2234480  USELESS:     777377
cpu0_L1I AVERAGE iMISS LATENCY: 21.4132 cycles
cpu0_L1I AVERAGE dMISS LATENCY: 0 cycles
cpu0_L1I AVERAGE itMISS LATENCY: 0 cycles
cpu0_L1I AVERAGE dtMISS LATENCY: 0 cycles
cpu0_L1I PAGE CROSSINGS (TLB HIT):         0 
cpu0_L1I PAGE CROSSINGS (TLB MISS):         0 
cpu0_L1I AVERAGE MISS LATENCY: 21.4132 cycles
cpu0_ITLB TOTAL       ACCESS:   33039101  HIT:   30732120  MISS:    2306981  iACCESS:   33039101  iHIT:   30732120  iMISS:    2306981  dACCESS:          0  dHIT:          0  dMISS:          0  itACCESS:          0  itHIT:          0  itMISS:          0  dtACCESS:          0  dtHIT:          0  dtMISS:          0
cpu0_ITLB LOAD         ACCESS:   33039101  HIT:   30732120  MISS:    2306981  iACCESS:   33039101  iHIT:   30732120  iMISS:    2306981  dACCESS:          0  dHIT:          0  dMISS:          0  itACCESS:          0  itHIT:          0  itMISS:          0  dtACCESS:          0  dtHIT:          0  dtMISS:          0
cpu0_ITLB RFO          ACCESS:          0  HIT:          0  MISS:          0  iACCESS:          0  iHIT:          0  iMISS:          0  dACCESS:          0  dHIT:          0  dMISS:          0  itACCESS:          0  itHIT:          0  itMISS:          0  dtACCESS:          0  dtHIT:          0  dtMISS:          0
cpu0_ITLB PREFETCH     ACCESS:          0  HIT:          0  MISS:          0  iACCESS:          0  iHIT:          0  iMISS:          0  dACCESS:          0  dHIT:          0  dMISS:          0  itACCESS:          0  itHIT:          0  itMISS:          0  dtACCESS:          0  dtHIT:          0  dtMISS:          0
cpu0_ITLB WRITE        ACCESS:          0  HIT:          0  MISS:          0  iACCESS:          0  iHIT:          0  iMISS:          0  dACCESS:          0  dHIT:          0  dMISS:          0  itACCESS:          0  itHIT:          0  itMISS:          0  dtACCESS:          0  dtHIT:          0  dtMISS:          0
cpu0_ITLB TRANSLATION  ACCESS:          0  HIT:          0  MISS:          0  iACCESS:          0  iHIT:          0  iMISS:          0  dACCESS:          0  dHIT:          0  dMISS:          0  itACCESS:          0  itHIT:          0  itMISS:          0  dtACCESS:          0  dtHIT:          0  dtMISS:          0
cpu0_ITLB PREFETCH  REQUESTED:          0  ISSUED:          0  CROSSED:          0  USEFUL:     392489  USELESS:      84010
cpu0_ITLB AVERAGE iMISS LATENCY: 6.89363 cycles
cpu0_ITLB AVERAGE dMISS LATENCY: 0 cycles
cpu0_ITLB AVERAGE itMISS LATENCY: 0 cycles
cpu0_ITLB AVERAGE dtMISS LATENCY: 0 cycles
cpu0_ITLB PAGE CROSSINGS (TLB HIT):         0 
cpu0_ITLB PAGE CROSSINGS (TLB MISS):         0 
cpu0_ITLB AVERAGE MISS LATENCY: 6.89363 cycles
cpu0_DTLB TOTAL       ACCESS:   28847815  HIT:   25433464  MISS:    3414351  iACCESS:          0  iHIT:          0  iMISS:          0  dACCESS:   28847815  dHIT:   25433464  dMISS:    3414351  itACCESS:          0  itHIT:          0  itMISS:          0  dtACCESS:          0  dtHIT:          0  dtMISS:          0
cpu0_DTLB LOAD         ACCESS:   28847815  HIT:   25433464  MISS:    3414351  iACCESS:          0  iHIT:          0  iMISS:          0  dACCESS:   28847815  dHIT:   25433464  dMISS:    3414351  itACCESS:          0  itHIT:          0  itMISS:          0  dtACCESS:          0  dtHIT:          0  dtMISS:          0
cpu0_DTLB RFO          ACCESS:          0  HIT:          0  MISS:          0  iACCESS:          0  iHIT:          0  iMISS:          0  dACCESS:          0  dHIT:          0  dMISS:          0  itACCESS:          0  itHIT:          0  itMISS:          0  dtACCESS:          0  dtHIT:          0  dtMISS:          0
cpu0_DTLB PREFETCH     ACCESS:          0  HIT:          0  MISS:          0  iACCESS:          0  iHIT:          0  iMISS:          0  dACCESS:          0  dHIT:          0  dMISS:          0  itACCESS:          0  itHIT:          0  itMISS:          0  dtACCESS:          0  dtHIT:          0  dtMISS:          0
cpu0_DTLB WRITE        ACCESS:          0  HIT:          0  MISS:          0  iACCESS:          0  iHIT:          0  iMISS:          0  dACCESS:          0  dHIT:          0  dMISS:          0  itACCESS:          0  itHIT:          0  itMISS:          0  dtACCESS:          0  dtHIT:          0  dtMISS:          0
cpu0_DTLB TRANSLATION  ACCESS:          0  HIT:          0  MISS:          0  iACCESS:          0  iHIT:          0  iMISS:          0  dACCESS:          0  dHIT:          0  dMISS:          0  itACCESS:          0  itHIT:          0  itMISS:          0  dtACCESS:          0  dtHIT:          0  dtMISS:          0
cpu0_DTLB PREFETCH  REQUESTED:          0  ISSUED:          0  CROSSED:          0  USEFUL:          0  USELESS:          0
cpu0_DTLB AVERAGE iMISS LATENCY: 0 cycles
cpu0_DTLB AVERAGE dMISS LATENCY: 17.5453 cycles
cpu0_DTLB AVERAGE itMISS LATENCY: 0 cycles
cpu0_DTLB AVERAGE dtMISS LATENCY: 0 cycles
cpu0_DTLB PAGE CROSSINGS (TLB HIT):         0 
cpu0_DTLB PAGE CROSSINGS (TLB MISS):         0 
cpu0_DTLB AVERAGE MISS LATENCY: 17.5453 cycles
cpu0_STLB TOTAL       ACCESS:    2428314  HIT:    2065445  MISS:     362869  iACCESS:     476506  iHIT:     369850  iMISS:     106656  dACCESS:    1951808  dHIT:    1695595  dMISS:     256213  itACCESS:          0  itHIT:          0  itMISS:          0  dtACCESS:          0  dtHIT:          0  dtMISS:          0
cpu0_STLB LOAD         ACCESS:    2428314  HIT:    2065445  MISS:     362869  iACCESS:     476506  iHIT:     369850  iMISS:     106656  dACCESS:    1951808  dHIT:    1695595  dMISS:     256213  itACCESS:          0  itHIT:          0  itMISS:          0  dtACCESS:          0  dtHIT:          0  dtMISS:          0
cpu0_STLB RFO          ACCESS:          0  HIT:          0  MISS:          0  iACCESS:          0  iHIT:          0  iMISS:          0  dACCESS:          0  dHIT:          0  dMISS:          0  itACCESS:          0  itHIT:          0  itMISS:          0  dtACCESS:          0  dtHIT:          0  dtMISS:          0
cpu0_STLB PREFETCH     ACCESS:          0  HIT:          0  MISS:          0  iACCESS:          0  iHIT:          0  iMISS:          0  dACCESS:          0  dHIT:          0  dMISS:          0  itACCESS:          0  itHIT:          0  itMISS:          0  dtACCESS:          0  dtHIT:          0  dtMISS:          0
cpu0_STLB WRITE        ACCESS:          0  HIT:          0  MISS:          0  iACCESS:          0  iHIT:          0  iMISS:          0  dACCESS:          0  dHIT:          0  dMISS:          0  itACCESS:          0  itHIT:          0  itMISS:          0  dtACCESS:          0  dtHIT:          0  dtMISS:          0
cpu0_STLB TRANSLATION  ACCESS:          0  HIT:          0  MISS:          0  iACCESS:          0  iHIT:          0  iMISS:          0  dACCESS:          0  dHIT:          0  dMISS:          0  itACCESS:          0  itHIT:          0  itMISS:          0  dtACCESS:          0  dtHIT:          0  dtMISS:          0
cpu0_STLB PREFETCH  REQUESTED:          0  ISSUED:          0  CROSSED:          0  USEFUL:          0  USELESS:          0
cpu0_STLB AVERAGE iMISS LATENCY: 33.3619 cycles
cpu0_STLB AVERAGE dMISS LATENCY: 121.909 cycles
cpu0_STLB AVERAGE itMISS LATENCY: 0 cycles
cpu0_STLB AVERAGE dtMISS LATENCY: 0 cycles
cpu0_STLB PAGE CROSSINGS (TLB HIT):         0 
cpu0_STLB PAGE CROSSINGS (TLB MISS):         0 
cpu0_STLB AVERAGE MISS LATENCY: 155.271 cycles
cpu0_L1D TOTAL       ACCESS:   45125267  HIT:   39144960  MISS:    5980307  iACCESS:          0  iHIT:          0  iMISS:          0  dACCESS:   44587714  dHIT:   39114169  dMISS:    5473545  itACCESS:     119341  itHIT:      13211  itMISS:     106130  dtACCESS:     418212  dtHIT:      17580  dtMISS:     400632
cpu0_L1D LOAD         ACCESS:   20341501  HIT:   17875280  MISS:    2466221  iACCESS:          0  iHIT:          0  iMISS:          0  dACCESS:   20341501  dHIT:   17875280  dMISS:    2466221  itACCESS:          0  itHIT:          0  itMISS:          0  dtACCESS:          0  dtHIT:          0  dtMISS:          0
cpu0_L1D RFO          ACCESS:          0  HIT:          0  MISS:          0  iACCESS:          0  iHIT:          0  iMISS:          0  dACCESS:          0  dHIT:          0  dMISS:          0  itACCESS:          0  itHIT:          0  itMISS:          0  dtACCESS:          0  dtHIT:          0  dtMISS:          0
cpu0_L1D PREFETCH     ACCESS:   14067189  HIT:   11637356  MISS:    2429833  iACCESS:          0  iHIT:          0  iMISS:          0  dACCESS:   14067189  dHIT:   11637356  dMISS:    2429833  itACCESS:          0  itHIT:          0  itMISS:          0  dtACCESS:          0  dtHIT:          0  dtMISS:          0
cpu0_L1D WRITE        ACCESS:   10179024  HIT:    9601533  MISS:     577491  iACCESS:          0  iHIT:          0  iMISS:          0  dACCESS:   10179024  dHIT:    9601533  dMISS:     577491  itACCESS:          0  itHIT:          0  itMISS:          0  dtACCESS:          0  dtHIT:          0  dtMISS:          0
cpu0_L1D TRANSLATION  ACCESS:     537553  HIT:      30791  MISS:     506762  iACCESS:          0  iHIT:          0  iMISS:          0  dACCESS:          0  dHIT:          0  dMISS:          0  itACCESS:     119341  itHIT:      13211  itMISS:     106130  dtACCESS:     418212  dtHIT:      17580  dtMISS:     400632
cpu0_L1D PREFETCH  REQUESTED:   20341501  ISSUED:   18443533  CROSSED:          0  USEFUL:     373077  USELESS:     919436
cpu0_L1D AVERAGE iMISS LATENCY: 0 cycles
cpu0_L1D AVERAGE dMISS LATENCY: 48.7339 cycles
cpu0_L1D AVERAGE itMISS LATENCY: 1.85356 cycles
cpu0_L1D AVERAGE dtMISS LATENCY: 6.62571 cycles
cpu0_L1D PAGE CROSSINGS (TLB HIT):         0 
cpu0_L1D PAGE CROSSINGS (TLB MISS):         0 
cpu0_L1D AVERAGE MISS LATENCY: 57.2132 cycles
cpu0_L2C TOTAL       ACCESS:    8663539  HIT:    1581680  MISS:    7081859  iACCESS:    3848043  iHIT:     848494  iMISS:    2999549  dACCESS:    4342289  dHIT:     541281  dMISS:    3801008  itACCESS:     106008  itHIT:      41359  itMISS:      64649  dtACCESS:     367199  dtHIT:     150546  dtMISS:     216653
cpu0_L2C LOAD         ACCESS:    2092115  HIT:     217668  MISS:    1874447  iACCESS:     873334  iHIT:     126443  iMISS:     746891  dACCESS:    1218781  dHIT:      91225  dMISS:    1127556  itACCESS:          0  itHIT:          0  itMISS:          0  dtACCESS:          0  dtHIT:          0  dtMISS:          0
cpu0_L2C RFO          ACCESS:     216331  HIT:      29580  MISS:     186751  iACCESS:          0  iHIT:          0  iMISS:          0  dACCESS:     216331  dHIT:      29580  dMISS:     186751  itACCESS:          0  itHIT:          0  itMISS:          0  dtACCESS:          0  dtHIT:          0  dtMISS:          0
cpu0_L2C PREFETCH     ACCESS:    5533778  HIT:    1040423  MISS:    4493355  iACCESS:    2974709  iHIT:     722051  iMISS:    2252658  dACCESS:    2559069  dHIT:     318372  dMISS:    2240697  itACCESS:          0  itHIT:          0  itMISS:          0  dtACCESS:          0  dtHIT:          0  dtMISS:          0
cpu0_L2C WRITE        ACCESS:     348108  HIT:     102104  MISS:     246004  iACCESS:          0  iHIT:          0  iMISS:          0  dACCESS:     348108  dHIT:     102104  dMISS:     246004  itACCESS:          0  itHIT:          0  itMISS:          0  dtACCESS:          0  dtHIT:          0  dtMISS:          0
cpu0_L2C TRANSLATION  ACCESS:     473207  HIT:     191905  MISS:     281302  iACCESS:          0  iHIT:          0  iMISS:          0  dACCESS:          0  dHIT:          0  dMISS:          0  itACCESS:     106008  itHIT:      41359  itMISS:      64649  dtACCESS:     367199  dtHIT:     150546  dtMISS:     216653
cpu0_L2C PREFETCH  REQUESTED:    1531466  ISSUED:    1531466  CROSSED:          0  USEFUL:     421555  USELESS:     466254
cpu0_L2C AVERAGE iMISS LATENCY: 23.6462 cycles
cpu0_L2C AVERAGE dMISS LATENCY: 48.8695 cycles
cpu0_L2C AVERAGE itMISS LATENCY: 1.421 cycles
cpu0_L2C AVERAGE dtMISS LATENCY: 5.09546 cycles
cpu0_L2C PAGE CROSSINGS (TLB HIT):         0 
cpu0_L2C PAGE CROSSINGS (TLB MISS):         0 
cpu0_L2C AVERAGE MISS LATENCY: 79.0321 cycles
LLC TOTAL       ACCESS:    6918030  HIT:    4426320  MISS:    2491710  iACCESS:    2919234  iHIT:    2208088  iMISS:     711146  dACCESS:    3717494  dHIT:    2152910  dMISS:    1564584  itACCESS:      64649  itHIT:      15247  itMISS:      49402  dtACCESS:     216653  dtHIT:      50075  dtMISS:     166578
LLC LOAD         ACCESS:    1865983  HIT:    1240814  MISS:     625169  iACCESS:     745446  iHIT:     599406  iMISS:     146040  dACCESS:    1120537  dHIT:     641408  dMISS:     479129  itACCESS:          0  itHIT:          0  itMISS:          0  dtACCESS:          0  dtHIT:          0  dtMISS:          0
LLC RFO          ACCESS:     186726  HIT:      94630  MISS:      92096  iACCESS:          0  iHIT:          0  iMISS:          0  dACCESS:     186726  dHIT:      94630  dMISS:      92096  itACCESS:          0  itHIT:          0  itMISS:          0  dtACCESS:          0  dtHIT:          0  dtMISS:          0
LLC PREFETCH     ACCESS:    4307306  HIT:    2756047  MISS:    1551259  iACCESS:    2173788  iHIT:    1608682  iMISS:     565106  dACCESS:    2133518  dHIT:    1147365  dMISS:     986153  itACCESS:          0  itHIT:          0  itMISS:          0  dtACCESS:          0  dtHIT:          0  dtMISS:          0
LLC WRITE        ACCESS:     276713  HIT:     269507  MISS:       7206  iACCESS:          0  iHIT:          0  iMISS:          0  dACCESS:     276713  dHIT:     269507  dMISS:       7206  itACCESS:          0  itHIT:          0  itMISS:          0  dtACCESS:          0  dtHIT:          0  dtMISS:          0
LLC TRANSLATION  ACCESS:     281302  HIT:      65322  MISS:     215980  iACCESS:          0  iHIT:          0  iMISS:          0  dACCESS:          0  dHIT:          0  dMISS:          0  itACCESS:      64649  itHIT:      15247  itMISS:      49402  dtACCESS:     216653  dtHIT:      50075  dtMISS:     166578
LLC PREFETCH  REQUESTED:          0  ISSUED:          0  CROSSED:          0  USEFUL:          0  USELESS:          0
LLC AVERAGE iMISS LATENCY: 44.4976 cycles
LLC AVERAGE dMISS LATENCY: 113.083 cycles
LLC AVERAGE itMISS LATENCY: 3.52757 cycles
LLC AVERAGE dtMISS LATENCY: 12.7693 cycles
LLC PAGE CROSSINGS (TLB HIT):         0 
LLC PAGE CROSSINGS (TLB MISS):         0 
LLC AVERAGE MISS LATENCY: 173.877 cycles

PageTableWalker TOTAL       ACCESS:     174473  
PageTableWalker AVERAGE LATENCY: 5.91055 cycles
PageTableWalker TOTAL LATENCY: 1031231 cycles

DRAM Statistics
Channel 0
 RQ ROW_BUFFER_HIT:     536855
  ROW_BUFFER_MISS:    1927810
 AVG DBUS CONGESTED CYCLE:    3.65097
 WQ ROW_BUFFER_HIT:      65933
  ROW_BUFFER_MISS:      64569  FULL:          0

