last_page:0x200000000000000
VMEM_RES_CAP:0x100000
PAGE_SIZE:4096
LOG2_PAGE_SIZE:12
LOG2_PAGE_TABLE_SIZE:9
page_table_levels:5
WARNING: physical memory size is smaller than virtual memory size
FDiP enabled with aggresivity 16

*** ChampSim Multicore Out-of-Order Simulator ***

Warmup Instructions: 50000000
Simulation Instructions: 100000000
Number of CPUs: 1
Small page size: 4096
Large page size: 2097152

CPU 0 Bimodal branch predictor
Basic BTB sets: 1024 ways: 8 indirect buffer size: 4096 RAS size: 64
Instruction page size distrubution: 0
Loading instruction page size distribution from /home/bsc/bsc018186/scratch/itp_asplos25_AE/dump/smt_srv85_ap_srv551_ap_1024i.pdst
Data page size distrubution: 0
Loading data page size distribution from /home/bsc/bsc018186/scratch/itp_asplos25_AE/dump/smt_srv85_ap_srv551_ap_1024i.pdst
cpu0_L2C IP-based stride prefetcher
cpu0_L1D next line prefetcher
cpu0_L1I next line prefetcher
Off-chip DRAM Size: 4 GiB Channels: 1 Width: 64-bit Data Rate: 3200 MT/s
Heartbeat CPU 0 instructions: 10000000 cycles: 2500516 heartbeat IPC: 3.99918 cumulative IPC: 3.99918 (Simulation time: 0 hr 0 min 38 sec) 
Heartbeat CPU 0 instructions: 20000003 cycles: 5000757 heartbeat IPC: 3.99962 cumulative IPC: 3.9994 (Simulation time: 0 hr 1 min 18 sec) 
Heartbeat CPU 0 instructions: 30000000 cycles: 7501175 heartbeat IPC: 3.99934 cumulative IPC: 3.99938 (Simulation time: 0 hr 2 min 0 sec) 
Heartbeat CPU 0 instructions: 40000001 cycles: 10001653 heartbeat IPC: 3.99924 cumulative IPC: 3.99934 (Simulation time: 0 hr 2 min 42 sec) 
Heartbeat CPU 0 instructions: 50000002 cycles: 12501993 heartbeat IPC: 3.99946 cumulative IPC: 3.99937 (Simulation time: 0 hr 3 min 27 sec) 
Warmup finished CPU 0 instructions: 50000002 cycles: 12501994 cumulative IPC: 3.99937 (Simulation time: 0 hr 3 min 27 sec) 

Warmup complete CPU 0 instructions: 50000002 cycles: 12501994 (Simulation time: 0 hr 3 min 27 sec) 

Heartbeat CPU 0 instructions: 60000000 cycles: 43416922 heartbeat IPC: 0.323469 cumulative IPC: 0.323469 (Simulation time: 0 hr 5 min 4 sec) 
Heartbeat CPU 0 instructions: 70000000 cycles: 75056185 heartbeat IPC: 0.316063 cumulative IPC: 0.319723 (Simulation time: 0 hr 6 min 42 sec) 
Heartbeat CPU 0 instructions: 80000002 cycles: 105482733 heartbeat IPC: 0.328661 cumulative IPC: 0.322648 (Simulation time: 0 hr 8 min 18 sec) 
Heartbeat CPU 0 instructions: 90000002 cycles: 136439963 heartbeat IPC: 0.323027 cumulative IPC: 0.322743 (Simulation time: 0 hr 9 min 54 sec) 
Heartbeat CPU 0 instructions: 100000000 cycles: 167871038 heartbeat IPC: 0.318157 cumulative IPC: 0.321815 (Simulation time: 0 hr 11 min 24 sec) 
Heartbeat CPU 0 instructions: 110000000 cycles: 197762690 heartbeat IPC: 0.334542 cumulative IPC: 0.323868 (Simulation time: 0 hr 12 min 57 sec) 
Heartbeat CPU 0 instructions: 120000000 cycles: 223622444 heartbeat IPC: 0.386702 cumulative IPC: 0.331565 (Simulation time: 0 hr 14 min 26 sec) 
Heartbeat CPU 0 instructions: 130000001 cycles: 240913273 heartbeat IPC: 0.578342 cumulative IPC: 0.350246 (Simulation time: 0 hr 15 min 43 sec) 
Heartbeat CPU 0 instructions: 140000003 cycles: 258899714 heartbeat IPC: 0.555975 cumulative IPC: 0.365264 (Simulation time: 0 hr 17 min 1 sec) 
Heartbeat CPU 0 instructions: 150000000 cycles: 291559302 heartbeat IPC: 0.306189 cumulative IPC: 0.35835 (Simulation time: 0 hr 18 min 39 sec) 
Simulation finished CPU 0 instructions: 100000003 cycles: 279057310 cumulative IPC: 0.35835 (Simulation time: 0 hr 18 min 39 sec) 

Simulation complete CPU 0 instructions: 100000003 cycles: 279057310 (Simulation time: 0 hr 18 min 39 sec) 


ChampSim completed all CPUs

Saving instructions large page distribution to /home/bsc/bsc018186/scratch/itp_asplos25_AE/dump/smt_srv85_ap_srv551_ap_1024i.pdst...
Saving data large page distribution to /home/bsc/bsc018186/scratch/itp_asplos25_AE/dump/smt_srv85_ap_srv551_ap_1024i.pdst...
=== Simulation ===
CPU 0 runs /gpfs/projects/bsc18/MN4/bsc18/romol/ChampSim/traces/qualcomm_srv/smt_srv85_ap_srv551_ap_1024i.champsimtrace.xz

Region of Interest Statistics

CPU 0 cumulative IPC: 0.35835 instructions: 100000003 cycles: 279057310
CPU 0 Branch Prediction Accuracy: 77.8805% MPKI: 42.6554 Average ROB Occupancy at Mispredict: 11.2833
Branch type MPKI
BRANCH_DIRECT_JUMP: 1.24167
BRANCH_INDIRECT: 23.0029
BRANCH_CONDITIONAL: 11.689
BRANCH_DIRECT_CALL: 2.35968
BRANCH_INDIRECT_CALL: 1.06193
BRANCH_RETURN: 3.30024

Instructions large pages: 0
Instructions small pages: 10447
Large page distribution for instructions: 0%

Data large pages: 0
Data small pages: 8982
Large page distribution for data: 0%

cpu0_L1I TOTAL       ACCESS:   39755019  HIT:   32020448  MISS:    7734571  iACCESS:   39755019  iHIT:   32020448  iMISS:    7734571  dACCESS:          0  dHIT:          0  dMISS:          0  itACCESS:          0  itHIT:          0  itMISS:          0  dtACCESS:          0  dtHIT:          0  dtMISS:          0
cpu0_L1I LOAD         ACCESS:   11355337  HIT:    9249120  MISS:    2106217  iACCESS:   11355337  iHIT:    9249120  iMISS:    2106217  dACCESS:          0  dHIT:          0  dMISS:          0  itACCESS:          0  itHIT:          0  itMISS:          0  dtACCESS:          0  dtHIT:          0  dtMISS:          0
cpu0_L1I RFO          ACCESS:          0  HIT:          0  MISS:          0  iACCESS:          0  iHIT:          0  iMISS:          0  dACCESS:          0  dHIT:          0  dMISS:          0  itACCESS:          0  itHIT:          0  itMISS:          0  dtACCESS:          0  dtHIT:          0  dtMISS:          0
cpu0_L1I PREFETCH     ACCESS:   28399682  HIT:   22771328  MISS:    5628354  iACCESS:   28399682  iHIT:   22771328  iMISS:    5628354  dACCESS:          0  dHIT:          0  dMISS:          0  itACCESS:          0  itHIT:          0  itMISS:          0  dtACCESS:          0  dtHIT:          0  dtMISS:          0
cpu0_L1I WRITE        ACCESS:          0  HIT:          0  MISS:          0  iACCESS:          0  iHIT:          0  iMISS:          0  dACCESS:          0  dHIT:          0  dMISS:          0  itACCESS:          0  itHIT:          0  itMISS:          0  dtACCESS:          0  dtHIT:          0  dtMISS:          0
cpu0_L1I TRANSLATION  ACCESS:          0  HIT:          0  MISS:          0  iACCESS:          0  iHIT:          0  iMISS:          0  dACCESS:          0  dHIT:          0  dMISS:          0  itACCESS:          0  itHIT:          0  itMISS:          0  dtACCESS:          0  dtHIT:          0  dtMISS:          0
cpu0_L1I PREFETCH  REQUESTED:   31085282  ISSUED:   31085249  CROSSED:          0  USEFUL:    1969283  USELESS:     685786
cpu0_L1I AVERAGE iMISS LATENCY: 24.6332 cycles
cpu0_L1I AVERAGE dMISS LATENCY: 0 cycles
cpu0_L1I AVERAGE itMISS LATENCY: 0 cycles
cpu0_L1I AVERAGE dtMISS LATENCY: 0 cycles
cpu0_L1I PAGE CROSSINGS (TLB HIT):         0 
cpu0_L1I PAGE CROSSINGS (TLB MISS):         0 
cpu0_L1I AVERAGE MISS LATENCY: 24.6332 cycles
cpu0_ITLB TOTAL       ACCESS:   33462359  HIT:   31472666  MISS:    1989693  iACCESS:   33462359  iHIT:   31472666  iMISS:    1989693  dACCESS:          0  dHIT:          0  dMISS:          0  itACCESS:          0  itHIT:          0  itMISS:          0  dtACCESS:          0  dtHIT:          0  dtMISS:          0
cpu0_ITLB LOAD         ACCESS:   33462359  HIT:   31472666  MISS:    1989693  iACCESS:   33462359  iHIT:   31472666  iMISS:    1989693  dACCESS:          0  dHIT:          0  dMISS:          0  itACCESS:          0  itHIT:          0  itMISS:          0  dtACCESS:          0  dtHIT:          0  dtMISS:          0
cpu0_ITLB RFO          ACCESS:          0  HIT:          0  MISS:          0  iACCESS:          0  iHIT:          0  iMISS:          0  dACCESS:          0  dHIT:          0  dMISS:          0  itACCESS:          0  itHIT:          0  itMISS:          0  dtACCESS:          0  dtHIT:          0  dtMISS:          0
cpu0_ITLB PREFETCH     ACCESS:          0  HIT:          0  MISS:          0  iACCESS:          0  iHIT:          0  iMISS:          0  dACCESS:          0  dHIT:          0  dMISS:          0  itACCESS:          0  itHIT:          0  itMISS:          0  dtACCESS:          0  dtHIT:          0  dtMISS:          0
cpu0_ITLB WRITE        ACCESS:          0  HIT:          0  MISS:          0  iACCESS:          0  iHIT:          0  iMISS:          0  dACCESS:          0  dHIT:          0  dMISS:          0  itACCESS:          0  itHIT:          0  itMISS:          0  dtACCESS:          0  dtHIT:          0  dtMISS:          0
cpu0_ITLB TRANSLATION  ACCESS:          0  HIT:          0  MISS:          0  iACCESS:          0  iHIT:          0  iMISS:          0  dACCESS:          0  dHIT:          0  dMISS:          0  itACCESS:          0  itHIT:          0  itMISS:          0  dtACCESS:          0  dtHIT:          0  dtMISS:          0
cpu0_ITLB PREFETCH  REQUESTED:          0  ISSUED:          0  CROSSED:          0  USEFUL:     347433  USELESS:      71411
cpu0_ITLB AVERAGE iMISS LATENCY: 10.4898 cycles
cpu0_ITLB AVERAGE dMISS LATENCY: 0 cycles
cpu0_ITLB AVERAGE itMISS LATENCY: 0 cycles
cpu0_ITLB AVERAGE dtMISS LATENCY: 0 cycles
cpu0_ITLB PAGE CROSSINGS (TLB HIT):         0 
cpu0_ITLB PAGE CROSSINGS (TLB MISS):         0 
cpu0_ITLB AVERAGE MISS LATENCY: 10.4898 cycles
cpu0_DTLB TOTAL       ACCESS:   30760521  HIT:   24594692  MISS:    6165829  iACCESS:          0  iHIT:          0  iMISS:          0  dACCESS:   30760521  dHIT:   24594692  dMISS:    6165829  itACCESS:          0  itHIT:          0  itMISS:          0  dtACCESS:          0  dtHIT:          0  dtMISS:          0
cpu0_DTLB LOAD         ACCESS:   30760521  HIT:   24594692  MISS:    6165829  iACCESS:          0  iHIT:          0  iMISS:          0  dACCESS:   30760521  dHIT:   24594692  dMISS:    6165829  itACCESS:          0  itHIT:          0  itMISS:          0  dtACCESS:          0  dtHIT:          0  dtMISS:          0
cpu0_DTLB RFO          ACCESS:          0  HIT:          0  MISS:          0  iACCESS:          0  iHIT:          0  iMISS:          0  dACCESS:          0  dHIT:          0  dMISS:          0  itACCESS:          0  itHIT:          0  itMISS:          0  dtACCESS:          0  dtHIT:          0  dtMISS:          0
cpu0_DTLB PREFETCH     ACCESS:          0  HIT:          0  MISS:          0  iACCESS:          0  iHIT:          0  iMISS:          0  dACCESS:          0  dHIT:          0  dMISS:          0  itACCESS:          0  itHIT:          0  itMISS:          0  dtACCESS:          0  dtHIT:          0  dtMISS:          0
cpu0_DTLB WRITE        ACCESS:          0  HIT:          0  MISS:          0  iACCESS:          0  iHIT:          0  iMISS:          0  dACCESS:          0  dHIT:          0  dMISS:          0  itACCESS:          0  itHIT:          0  itMISS:          0  dtACCESS:          0  dtHIT:          0  dtMISS:          0
cpu0_DTLB TRANSLATION  ACCESS:          0  HIT:          0  MISS:          0  iACCESS:          0  iHIT:          0  iMISS:          0  dACCESS:          0  dHIT:          0  dMISS:          0  itACCESS:          0  itHIT:          0  itMISS:          0  dtACCESS:          0  dtHIT:          0  dtMISS:          0
cpu0_DTLB PREFETCH  REQUESTED:          0  ISSUED:          0  CROSSED:          0  USEFUL:          0  USELESS:          0
cpu0_DTLB AVERAGE iMISS LATENCY: 0 cycles
cpu0_DTLB AVERAGE dMISS LATENCY: 14.7977 cycles
cpu0_DTLB AVERAGE itMISS LATENCY: 0 cycles
cpu0_DTLB AVERAGE dtMISS LATENCY: 0 cycles
cpu0_DTLB PAGE CROSSINGS (TLB HIT):         0 
cpu0_DTLB PAGE CROSSINGS (TLB MISS):         0 
cpu0_DTLB AVERAGE MISS LATENCY: 14.7977 cycles
cpu0_STLB TOTAL       ACCESS:    3690604  HIT:    3353344  MISS:     337260  iACCESS:     418854  iHIT:     314862  iMISS:     103992  dACCESS:    3271750  dHIT:    3038482  dMISS:     233268  itACCESS:          0  itHIT:          0  itMISS:          0  dtACCESS:          0  dtHIT:          0  dtMISS:          0
cpu0_STLB LOAD         ACCESS:    3690604  HIT:    3353344  MISS:     337260  iACCESS:     418854  iHIT:     314862  iMISS:     103992  dACCESS:    3271750  dHIT:    3038482  dMISS:     233268  itACCESS:          0  itHIT:          0  itMISS:          0  dtACCESS:          0  dtHIT:          0  dtMISS:          0
cpu0_STLB RFO          ACCESS:          0  HIT:          0  MISS:          0  iACCESS:          0  iHIT:          0  iMISS:          0  dACCESS:          0  dHIT:          0  dMISS:          0  itACCESS:          0  itHIT:          0  itMISS:          0  dtACCESS:          0  dtHIT:          0  dtMISS:          0
cpu0_STLB PREFETCH     ACCESS:          0  HIT:          0  MISS:          0  iACCESS:          0  iHIT:          0  iMISS:          0  dACCESS:          0  dHIT:          0  dMISS:          0  itACCESS:          0  itHIT:          0  itMISS:          0  dtACCESS:          0  dtHIT:          0  dtMISS:          0
cpu0_STLB WRITE        ACCESS:          0  HIT:          0  MISS:          0  iACCESS:          0  iHIT:          0  iMISS:          0  dACCESS:          0  dHIT:          0  dMISS:          0  itACCESS:          0  itHIT:          0  itMISS:          0  dtACCESS:          0  dtHIT:          0  dtMISS:          0
cpu0_STLB TRANSLATION  ACCESS:          0  HIT:          0  MISS:          0  iACCESS:          0  iHIT:          0  iMISS:          0  dACCESS:          0  dHIT:          0  dMISS:          0  itACCESS:          0  itHIT:          0  itMISS:          0  dtACCESS:          0  dtHIT:          0  dtMISS:          0
cpu0_STLB PREFETCH  REQUESTED:          0  ISSUED:          0  CROSSED:          0  USEFUL:          0  USELESS:          0
cpu0_STLB AVERAGE iMISS LATENCY: 51.9406 cycles
cpu0_STLB AVERAGE dMISS LATENCY: 192.062 cycles
cpu0_STLB AVERAGE itMISS LATENCY: 0 cycles
cpu0_STLB AVERAGE dtMISS LATENCY: 0 cycles
cpu0_STLB PAGE CROSSINGS (TLB HIT):         0 
cpu0_STLB PAGE CROSSINGS (TLB MISS):         0 
cpu0_STLB AVERAGE MISS LATENCY: 244.002 cycles
cpu0_L1D TOTAL       ACCESS:   47760034  HIT:   39629236  MISS:    8130798  iACCESS:          0  iHIT:          0  iMISS:          0  dACCESS:   47272510  dHIT:   39601004  dMISS:    7671506  itACCESS:     116241  itHIT:      12582  itMISS:     103659  dtACCESS:     371283  dtHIT:      15650  dtMISS:     355633
cpu0_L1D LOAD         ACCESS:   22684615  HIT:   18366910  MISS:    4317705  iACCESS:          0  iHIT:          0  iMISS:          0  dACCESS:   22684615  dHIT:   18366910  dMISS:    4317705  itACCESS:          0  itHIT:          0  itMISS:          0  dtACCESS:          0  dtHIT:          0  dtMISS:          0
cpu0_L1D RFO          ACCESS:          0  HIT:          0  MISS:          0  iACCESS:          0  iHIT:          0  iMISS:          0  dACCESS:          0  dHIT:          0  dMISS:          0  itACCESS:          0  itHIT:          0  itMISS:          0  dtACCESS:          0  dtHIT:          0  dtMISS:          0
cpu0_L1D PREFETCH     ACCESS:   14804619  HIT:   12030628  MISS:    2773991  iACCESS:          0  iHIT:          0  iMISS:          0  dACCESS:   14804619  dHIT:   12030628  dMISS:    2773991  itACCESS:          0  itHIT:          0  itMISS:          0  dtACCESS:          0  dtHIT:          0  dtMISS:          0
cpu0_L1D WRITE        ACCESS:    9783276  HIT:    9203466  MISS:     579810  iACCESS:          0  iHIT:          0  iMISS:          0  dACCESS:    9783276  dHIT:    9203466  dMISS:     579810  itACCESS:          0  itHIT:          0  itMISS:          0  dtACCESS:          0  dtHIT:          0  dtMISS:          0
cpu0_L1D TRANSLATION  ACCESS:     487524  HIT:      28232  MISS:     459292  iACCESS:          0  iHIT:          0  iMISS:          0  dACCESS:          0  dHIT:          0  dMISS:          0  itACCESS:     116241  itHIT:      12582  itMISS:     103659  dtACCESS:     371283  dtHIT:      15650  dtMISS:     355633
cpu0_L1D PREFETCH  REQUESTED:   22684615  ISSUED:   18929178  CROSSED:          0  USEFUL:     327648  USELESS:    1173363
cpu0_L1D AVERAGE iMISS LATENCY: 0 cycles
cpu0_L1D AVERAGE dMISS LATENCY: 34.5119 cycles
cpu0_L1D AVERAGE itMISS LATENCY: 2.03208 cycles
cpu0_L1D AVERAGE dtMISS LATENCY: 7.44566 cycles
cpu0_L1D PAGE CROSSINGS (TLB HIT):         0 
cpu0_L1D PAGE CROSSINGS (TLB MISS):         0 
cpu0_L1D AVERAGE MISS LATENCY: 43.9896 cycles
cpu0_L2C TOTAL       ACCESS:    9959695  HIT:    6036750  MISS:    3922945  iACCESS:    3372364  iHIT:    2051485  iMISS:    1320879  dACCESS:    6153410  dHIT:    3930453  dMISS:    2222957  itACCESS:     103375  itHIT:      19125  itMISS:      84250  dtACCESS:     330546  dtHIT:      35687  dtMISS:     294859
cpu0_L2C LOAD         ACCESS:    3672983  HIT:    2744037  MISS:     928946  iACCESS:     749922  iHIT:     476458  iMISS:     273464  dACCESS:    2923061  dHIT:    2267579  dMISS:     655482  itACCESS:          0  itHIT:          0  itMISS:          0  dtACCESS:          0  dtHIT:          0  dtMISS:          0
cpu0_L2C RFO          ACCESS:     225839  HIT:     110958  MISS:     114881  iACCESS:          0  iHIT:          0  iMISS:          0  dACCESS:     225839  dHIT:     110958  dMISS:     114881  itACCESS:          0  itHIT:          0  itMISS:          0  dtACCESS:          0  dtHIT:          0  dtMISS:          0
cpu0_L2C PREFETCH     ACCESS:    5301279  HIT:    2804356  MISS:    2496923  iACCESS:    2622442  iHIT:    1575027  iMISS:    1047415  dACCESS:    2678837  dHIT:    1229329  dMISS:    1449508  itACCESS:          0  itHIT:          0  itMISS:          0  dtACCESS:          0  dtHIT:          0  dtMISS:          0
cpu0_L2C WRITE        ACCESS:     325673  HIT:     322587  MISS:       3086  iACCESS:          0  iHIT:          0  iMISS:          0  dACCESS:     325673  dHIT:     322587  dMISS:       3086  itACCESS:          0  itHIT:          0  itMISS:          0  dtACCESS:          0  dtHIT:          0  dtMISS:          0
cpu0_L2C TRANSLATION  ACCESS:     433921  HIT:      54812  MISS:     379109  iACCESS:          0  iHIT:          0  iMISS:          0  dACCESS:          0  dHIT:          0  dMISS:          0  itACCESS:     103375  itHIT:      19125  itMISS:      84250  dtACCESS:     330546  dtHIT:      35687  dtMISS:     294859
cpu0_L2C PREFETCH  REQUESTED:    1391144  ISSUED:    1391056  CROSSED:          0  USEFUL:     315353  USELESS:     287702
cpu0_L2C AVERAGE iMISS LATENCY: 41.4343 cycles
cpu0_L2C AVERAGE dMISS LATENCY: 80.0539 cycles
cpu0_L2C AVERAGE itMISS LATENCY: 3.95232 cycles
cpu0_L2C AVERAGE dtMISS LATENCY: 14.5938 cycles
cpu0_L2C PAGE CROSSINGS (TLB HIT):         0 
cpu0_L2C PAGE CROSSINGS (TLB MISS):         0 
cpu0_L2C AVERAGE MISS LATENCY: 140.035 cycles
LLC TOTAL       ACCESS:    3909435  HIT:    1127178  MISS:    2782257  iACCESS:    1240637  iHIT:     364599  iMISS:     876038  dACCESS:    2289689  dHIT:     725994  dMISS:    1563695  itACCESS:      84250  itHIT:       6925  itMISS:      77325  dtACCESS:     294859  dtHIT:      29660  dtMISS:     265199
LLC LOAD         ACCESS:     921516  HIT:     280883  MISS:     640633  iACCESS:     272352  iHIT:      86777  iMISS:     185575  dACCESS:     649164  dHIT:     194106  dMISS:     455058  itACCESS:          0  itHIT:          0  itMISS:          0  dtACCESS:          0  dtHIT:          0  dtMISS:          0
LLC RFO          ACCESS:     114879  HIT:      33426  MISS:      81453  iACCESS:          0  iHIT:          0  iMISS:          0  dACCESS:     114879  dHIT:      33426  dMISS:      81453  itACCESS:          0  itHIT:          0  itMISS:          0  dtACCESS:          0  dtHIT:          0  dtMISS:          0
LLC PREFETCH     ACCESS:    2308735  HIT:     600348  MISS:    1708387  iACCESS:     968285  iHIT:     277822  iMISS:     690463  dACCESS:    1340450  dHIT:     322526  dMISS:    1017924  itACCESS:          0  itHIT:          0  itMISS:          0  dtACCESS:          0  dtHIT:          0  dtMISS:          0
LLC WRITE        ACCESS:     185196  HIT:     175936  MISS:       9260  iACCESS:          0  iHIT:          0  iMISS:          0  dACCESS:     185196  dHIT:     175936  dMISS:       9260  itACCESS:          0  itHIT:          0  itMISS:          0  dtACCESS:          0  dtHIT:          0  dtMISS:          0
LLC TRANSLATION  ACCESS:     379109  HIT:      36585  MISS:     342524  iACCESS:          0  iHIT:          0  iMISS:          0  dACCESS:          0  dHIT:          0  dMISS:          0  itACCESS:      84250  itHIT:       6925  itMISS:      77325  dtACCESS:     294859  dtHIT:      29660  dtMISS:     265199
LLC PREFETCH  REQUESTED:          0  ISSUED:          0  CROSSED:          0  USEFUL:          0  USELESS:          0
LLC AVERAGE iMISS LATENCY: 49.6308 cycles
LLC AVERAGE dMISS LATENCY: 98.8228 cycles
LLC AVERAGE itMISS LATENCY: 4.97233 cycles
LLC AVERAGE dtMISS LATENCY: 18.4815 cycles
LLC PAGE CROSSINGS (TLB HIT):         0 
LLC PAGE CROSSINGS (TLB MISS):         0 
LLC AVERAGE MISS LATENCY: 171.908 cycles

PageTableWalker TOTAL       ACCESS:     197249  
PageTableWalker AVERAGE LATENCY: 6.52391 cycles
PageTableWalker TOTAL LATENCY: 1286833 cycles

DRAM Statistics
Channel 0
 RQ ROW_BUFFER_HIT:     595559
  ROW_BUFFER_MISS:    2160810
 AVG DBUS CONGESTED CYCLE:    3.65116
 WQ ROW_BUFFER_HIT:      59391
  ROW_BUFFER_MISS:      51158  FULL:          0

