last_page:0x200000000000000
VMEM_RES_CAP:0x100000
PAGE_SIZE:4096
LOG2_PAGE_SIZE:12
LOG2_PAGE_TABLE_SIZE:9
page_table_levels:5
WARNING: physical memory size is smaller than virtual memory size
FDiP enabled with aggresivity 16

*** ChampSim Multicore Out-of-Order Simulator ***

Warmup Instructions: 50000000
Simulation Instructions: 100000000
Number of CPUs: 1
Small page size: 4096
Large page size: 2097152

CPU 0 Bimodal branch predictor
Basic BTB sets: 1024 ways: 8 indirect buffer size: 4096 RAS size: 64
Instruction page size distrubution: 0
Loading instruction page size distribution from /home/bsc/bsc018186/scratch/itp_asplos25_AE/dump/smt_srv85_ap_srv727_ap_1024i.pdst
Data page size distrubution: 0
Loading data page size distribution from /home/bsc/bsc018186/scratch/itp_asplos25_AE/dump/smt_srv85_ap_srv727_ap_1024i.pdst
cpu0_L2C IP-based stride prefetcher
cpu0_L1D next line prefetcher
cpu0_L1I next line prefetcher
Off-chip DRAM Size: 4 GiB Channels: 1 Width: 64-bit Data Rate: 3200 MT/s
Heartbeat CPU 0 instructions: 10000001 cycles: 2500651 heartbeat IPC: 3.99896 cumulative IPC: 3.99896 (Simulation time: 0 hr 0 min 42 sec) 
Heartbeat CPU 0 instructions: 20000000 cycles: 5000939 heartbeat IPC: 3.99954 cumulative IPC: 3.99925 (Simulation time: 0 hr 1 min 25 sec) 
Heartbeat CPU 0 instructions: 30000003 cycles: 7501569 heartbeat IPC: 3.999 cumulative IPC: 3.99917 (Simulation time: 0 hr 2 min 7 sec) 
Heartbeat CPU 0 instructions: 40000000 cycles: 10001840 heartbeat IPC: 3.99957 cumulative IPC: 3.99927 (Simulation time: 0 hr 2 min 49 sec) 
Heartbeat CPU 0 instructions: 50000003 cycles: 12502095 heartbeat IPC: 3.9996 cumulative IPC: 3.99933 (Simulation time: 0 hr 3 min 32 sec) 
Warmup finished CPU 0 instructions: 50000003 cycles: 12502096 cumulative IPC: 3.99933 (Simulation time: 0 hr 3 min 32 sec) 

Warmup complete CPU 0 instructions: 50000003 cycles: 12502096 (Simulation time: 0 hr 3 min 32 sec) 

Heartbeat CPU 0 instructions: 60000004 cycles: 42495466 heartbeat IPC: 0.333408 cumulative IPC: 0.333408 (Simulation time: 0 hr 4 min 59 sec) 
Heartbeat CPU 0 instructions: 70000004 cycles: 73130764 heartbeat IPC: 0.326421 cumulative IPC: 0.329877 (Simulation time: 0 hr 6 min 28 sec) 
Heartbeat CPU 0 instructions: 80000003 cycles: 103938120 heartbeat IPC: 0.324598 cumulative IPC: 0.328099 (Simulation time: 0 hr 7 min 58 sec) 
Heartbeat CPU 0 instructions: 90000002 cycles: 134740421 heartbeat IPC: 0.324652 cumulative IPC: 0.32723 (Simulation time: 0 hr 9 min 29 sec) 
Heartbeat CPU 0 instructions: 100000000 cycles: 165826741 heartbeat IPC: 0.321685 cumulative IPC: 0.326106 (Simulation time: 0 hr 11 min 5 sec) 
Heartbeat CPU 0 instructions: 110000000 cycles: 197505661 heartbeat IPC: 0.315668 cumulative IPC: 0.324319 (Simulation time: 0 hr 12 min 44 sec) 
Heartbeat CPU 0 instructions: 120000002 cycles: 228214318 heartbeat IPC: 0.325642 cumulative IPC: 0.324507 (Simulation time: 0 hr 14 min 17 sec) 
Heartbeat CPU 0 instructions: 130000000 cycles: 259478103 heartbeat IPC: 0.319859 cumulative IPC: 0.323919 (Simulation time: 0 hr 15 min 56 sec) 
Heartbeat CPU 0 instructions: 140000002 cycles: 290633838 heartbeat IPC: 0.320969 cumulative IPC: 0.323588 (Simulation time: 0 hr 17 min 35 sec) 
Heartbeat CPU 0 instructions: 150000004 cycles: 321403712 heartbeat IPC: 0.324994 cumulative IPC: 0.323728 (Simulation time: 0 hr 19 min 9 sec) 
Simulation finished CPU 0 instructions: 100000001 cycles: 308901617 cumulative IPC: 0.323728 (Simulation time: 0 hr 19 min 9 sec) 

Simulation complete CPU 0 instructions: 100000001 cycles: 308901617 (Simulation time: 0 hr 19 min 9 sec) 


ChampSim completed all CPUs

Saving instructions large page distribution to /home/bsc/bsc018186/scratch/itp_asplos25_AE/dump/smt_srv85_ap_srv727_ap_1024i.pdst...
Saving data large page distribution to /home/bsc/bsc018186/scratch/itp_asplos25_AE/dump/smt_srv85_ap_srv727_ap_1024i.pdst...
=== Simulation ===
CPU 0 runs /gpfs/projects/bsc18/MN4/bsc18/romol/ChampSim/traces/qualcomm_srv/smt_srv85_ap_srv727_ap_1024i.champsimtrace.xz

Region of Interest Statistics

CPU 0 cumulative IPC: 0.323728 instructions: 100000001 cycles: 308901617
CPU 0 Branch Prediction Accuracy: 74.8933% MPKI: 45.2026 Average ROB Occupancy at Mispredict: 10.7429
Branch type MPKI
BRANCH_DIRECT_JUMP: 1.40749
BRANCH_INDIRECT: 23.4058
BRANCH_CONDITIONAL: 13.133
BRANCH_DIRECT_CALL: 2.6974
BRANCH_INDIRECT_CALL: 1.0062
BRANCH_RETURN: 3.55269

Instructions large pages: 0
Instructions small pages: 9809
Large page distribution for instructions: 0%

Data large pages: 0
Data small pages: 8446
Large page distribution for data: 0%

cpu0_L1I TOTAL       ACCESS:   39203993  HIT:   30494573  MISS:    8709420  iACCESS:   39203993  iHIT:   30494573  iMISS:    8709420  dACCESS:          0  dHIT:          0  dMISS:          0  itACCESS:          0  itHIT:          0  itMISS:          0  dtACCESS:          0  dtHIT:          0  dtMISS:          0
cpu0_L1I LOAD         ACCESS:   11717787  HIT:    9352133  MISS:    2365654  iACCESS:   11717787  iHIT:    9352133  iMISS:    2365654  dACCESS:          0  dHIT:          0  dMISS:          0  itACCESS:          0  itHIT:          0  itMISS:          0  dtACCESS:          0  dtHIT:          0  dtMISS:          0
cpu0_L1I RFO          ACCESS:          0  HIT:          0  MISS:          0  iACCESS:          0  iHIT:          0  iMISS:          0  dACCESS:          0  dHIT:          0  dMISS:          0  itACCESS:          0  itHIT:          0  itMISS:          0  dtACCESS:          0  dtHIT:          0  dtMISS:          0
cpu0_L1I PREFETCH     ACCESS:   27486206  HIT:   21142440  MISS:    6343766  iACCESS:   27486206  iHIT:   21142440  iMISS:    6343766  dACCESS:          0  dHIT:          0  dMISS:          0  itACCESS:          0  itHIT:          0  itMISS:          0  dtACCESS:          0  dtHIT:          0  dtMISS:          0
cpu0_L1I WRITE        ACCESS:          0  HIT:          0  MISS:          0  iACCESS:          0  iHIT:          0  iMISS:          0  dACCESS:          0  dHIT:          0  dMISS:          0  itACCESS:          0  itHIT:          0  itMISS:          0  dtACCESS:          0  dtHIT:          0  dtMISS:          0
cpu0_L1I TRANSLATION  ACCESS:          0  HIT:          0  MISS:          0  iACCESS:          0  iHIT:          0  iMISS:          0  dACCESS:          0  dHIT:          0  dMISS:          0  itACCESS:          0  itHIT:          0  itMISS:          0  dtACCESS:          0  dtHIT:          0  dtMISS:          0
cpu0_L1I PREFETCH  REQUESTED:   30279829  ISSUED:   30279668  CROSSED:          0  USEFUL:    2212320  USELESS:     768759
cpu0_L1I AVERAGE iMISS LATENCY: 25.0266 cycles
cpu0_L1I AVERAGE dMISS LATENCY: 0 cycles
cpu0_L1I AVERAGE itMISS LATENCY: 0 cycles
cpu0_L1I AVERAGE dtMISS LATENCY: 0 cycles
cpu0_L1I PAGE CROSSINGS (TLB HIT):         0 
cpu0_L1I PAGE CROSSINGS (TLB MISS):         0 
cpu0_L1I AVERAGE MISS LATENCY: 25.0266 cycles
cpu0_ITLB TOTAL       ACCESS:   33222432  HIT:   30976123  MISS:    2246309  iACCESS:   33222432  iHIT:   30976123  iMISS:    2246309  dACCESS:          0  dHIT:          0  dMISS:          0  itACCESS:          0  itHIT:          0  itMISS:          0  dtACCESS:          0  dtHIT:          0  dtMISS:          0
cpu0_ITLB LOAD         ACCESS:   33222432  HIT:   30976123  MISS:    2246309  iACCESS:   33222432  iHIT:   30976123  iMISS:    2246309  dACCESS:          0  dHIT:          0  dMISS:          0  itACCESS:          0  itHIT:          0  itMISS:          0  dtACCESS:          0  dtHIT:          0  dtMISS:          0
cpu0_ITLB RFO          ACCESS:          0  HIT:          0  MISS:          0  iACCESS:          0  iHIT:          0  iMISS:          0  dACCESS:          0  dHIT:          0  dMISS:          0  itACCESS:          0  itHIT:          0  itMISS:          0  dtACCESS:          0  dtHIT:          0  dtMISS:          0
cpu0_ITLB PREFETCH     ACCESS:          0  HIT:          0  MISS:          0  iACCESS:          0  iHIT:          0  iMISS:          0  dACCESS:          0  dHIT:          0  dMISS:          0  itACCESS:          0  itHIT:          0  itMISS:          0  dtACCESS:          0  dtHIT:          0  dtMISS:          0
cpu0_ITLB WRITE        ACCESS:          0  HIT:          0  MISS:          0  iACCESS:          0  iHIT:          0  iMISS:          0  dACCESS:          0  dHIT:          0  dMISS:          0  itACCESS:          0  itHIT:          0  itMISS:          0  dtACCESS:          0  dtHIT:          0  dtMISS:          0
cpu0_ITLB TRANSLATION  ACCESS:          0  HIT:          0  MISS:          0  iACCESS:          0  iHIT:          0  iMISS:          0  dACCESS:          0  dHIT:          0  dMISS:          0  itACCESS:          0  itHIT:          0  itMISS:          0  dtACCESS:          0  dtHIT:          0  dtMISS:          0
cpu0_ITLB PREFETCH  REQUESTED:          0  ISSUED:          0  CROSSED:          0  USEFUL:     391279  USELESS:      80484
cpu0_ITLB AVERAGE iMISS LATENCY: 10.6618 cycles
cpu0_ITLB AVERAGE dMISS LATENCY: 0 cycles
cpu0_ITLB AVERAGE itMISS LATENCY: 0 cycles
cpu0_ITLB AVERAGE dtMISS LATENCY: 0 cycles
cpu0_ITLB PAGE CROSSINGS (TLB HIT):         0 
cpu0_ITLB PAGE CROSSINGS (TLB MISS):         0 
cpu0_ITLB AVERAGE MISS LATENCY: 10.6618 cycles
cpu0_DTLB TOTAL       ACCESS:   28875135  HIT:   25270323  MISS:    3604812  iACCESS:          0  iHIT:          0  iMISS:          0  dACCESS:   28875135  dHIT:   25270323  dMISS:    3604812  itACCESS:          0  itHIT:          0  itMISS:          0  dtACCESS:          0  dtHIT:          0  dtMISS:          0
cpu0_DTLB LOAD         ACCESS:   28875135  HIT:   25270323  MISS:    3604812  iACCESS:          0  iHIT:          0  iMISS:          0  dACCESS:   28875135  dHIT:   25270323  dMISS:    3604812  itACCESS:          0  itHIT:          0  itMISS:          0  dtACCESS:          0  dtHIT:          0  dtMISS:          0
cpu0_DTLB RFO          ACCESS:          0  HIT:          0  MISS:          0  iACCESS:          0  iHIT:          0  iMISS:          0  dACCESS:          0  dHIT:          0  dMISS:          0  itACCESS:          0  itHIT:          0  itMISS:          0  dtACCESS:          0  dtHIT:          0  dtMISS:          0
cpu0_DTLB PREFETCH     ACCESS:          0  HIT:          0  MISS:          0  iACCESS:          0  iHIT:          0  iMISS:          0  dACCESS:          0  dHIT:          0  dMISS:          0  itACCESS:          0  itHIT:          0  itMISS:          0  dtACCESS:          0  dtHIT:          0  dtMISS:          0
cpu0_DTLB WRITE        ACCESS:          0  HIT:          0  MISS:          0  iACCESS:          0  iHIT:          0  iMISS:          0  dACCESS:          0  dHIT:          0  dMISS:          0  itACCESS:          0  itHIT:          0  itMISS:          0  dtACCESS:          0  dtHIT:          0  dtMISS:          0
cpu0_DTLB TRANSLATION  ACCESS:          0  HIT:          0  MISS:          0  iACCESS:          0  iHIT:          0  iMISS:          0  dACCESS:          0  dHIT:          0  dMISS:          0  itACCESS:          0  itHIT:          0  itMISS:          0  dtACCESS:          0  dtHIT:          0  dtMISS:          0
cpu0_DTLB PREFETCH  REQUESTED:          0  ISSUED:          0  CROSSED:          0  USEFUL:          0  USELESS:          0
cpu0_DTLB AVERAGE iMISS LATENCY: 0 cycles
cpu0_DTLB AVERAGE dMISS LATENCY: 25.9966 cycles
cpu0_DTLB AVERAGE itMISS LATENCY: 0 cycles
cpu0_DTLB AVERAGE dtMISS LATENCY: 0 cycles
cpu0_DTLB PAGE CROSSINGS (TLB HIT):         0 
cpu0_DTLB PAGE CROSSINGS (TLB MISS):         0 
cpu0_DTLB AVERAGE MISS LATENCY: 25.9966 cycles
cpu0_STLB TOTAL       ACCESS:    2595853  HIT:    2204386  MISS:     391467  iACCESS:     471767  iHIT:     352697  iMISS:     119070  dACCESS:    2124086  dHIT:    1851689  dMISS:     272397  itACCESS:          0  itHIT:          0  itMISS:          0  dtACCESS:          0  dtHIT:          0  dtMISS:          0
cpu0_STLB LOAD         ACCESS:    2595853  HIT:    2204386  MISS:     391467  iACCESS:     471767  iHIT:     352697  iMISS:     119070  dACCESS:    2124086  dHIT:    1851689  dMISS:     272397  itACCESS:          0  itHIT:          0  itMISS:          0  dtACCESS:          0  dtHIT:          0  dtMISS:          0
cpu0_STLB RFO          ACCESS:          0  HIT:          0  MISS:          0  iACCESS:          0  iHIT:          0  iMISS:          0  dACCESS:          0  dHIT:          0  dMISS:          0  itACCESS:          0  itHIT:          0  itMISS:          0  dtACCESS:          0  dtHIT:          0  dtMISS:          0
cpu0_STLB PREFETCH     ACCESS:          0  HIT:          0  MISS:          0  iACCESS:          0  iHIT:          0  iMISS:          0  dACCESS:          0  dHIT:          0  dMISS:          0  itACCESS:          0  itHIT:          0  itMISS:          0  dtACCESS:          0  dtHIT:          0  dtMISS:          0
cpu0_STLB WRITE        ACCESS:          0  HIT:          0  MISS:          0  iACCESS:          0  iHIT:          0  iMISS:          0  dACCESS:          0  dHIT:          0  dMISS:          0  itACCESS:          0  itHIT:          0  itMISS:          0  dtACCESS:          0  dtHIT:          0  dtMISS:          0
cpu0_STLB TRANSLATION  ACCESS:          0  HIT:          0  MISS:          0  iACCESS:          0  iHIT:          0  iMISS:          0  dACCESS:          0  dHIT:          0  dMISS:          0  itACCESS:          0  itHIT:          0  itMISS:          0  dtACCESS:          0  dtHIT:          0  dtMISS:          0
cpu0_STLB PREFETCH  REQUESTED:          0  ISSUED:          0  CROSSED:          0  USEFUL:          0  USELESS:          0
cpu0_STLB AVERAGE iMISS LATENCY: 51.5264 cycles
cpu0_STLB AVERAGE dMISS LATENCY: 195.689 cycles
cpu0_STLB AVERAGE itMISS LATENCY: 0 cycles
cpu0_STLB AVERAGE dtMISS LATENCY: 0 cycles
cpu0_STLB PAGE CROSSINGS (TLB HIT):         0 
cpu0_STLB PAGE CROSSINGS (TLB MISS):         0 
cpu0_STLB AVERAGE MISS LATENCY: 247.216 cycles
cpu0_L1D TOTAL       ACCESS:   45214530  HIT:   39243360  MISS:    5971170  iACCESS:          0  iHIT:          0  iMISS:          0  dACCESS:   44634575  dHIT:   39209969  dMISS:    5424606  itACCESS:     133149  itHIT:      14657  itMISS:     118492  dtACCESS:     446806  dtHIT:      18734  dtMISS:     428072
cpu0_L1D LOAD         ACCESS:   20374891  HIT:   17938471  MISS:    2436420  iACCESS:          0  iHIT:          0  iMISS:          0  dACCESS:   20374891  dHIT:   17938471  dMISS:    2436420  itACCESS:          0  itHIT:          0  itMISS:          0  dtACCESS:          0  dtHIT:          0  dtMISS:          0
cpu0_L1D RFO          ACCESS:          0  HIT:          0  MISS:          0  iACCESS:          0  iHIT:          0  iMISS:          0  dACCESS:          0  dHIT:          0  dMISS:          0  itACCESS:          0  itHIT:          0  itMISS:          0  dtACCESS:          0  dtHIT:          0  dtMISS:          0
cpu0_L1D PREFETCH     ACCESS:   14108964  HIT:   11710128  MISS:    2398836  iACCESS:          0  iHIT:          0  iMISS:          0  dACCESS:   14108964  dHIT:   11710128  dMISS:    2398836  itACCESS:          0  itHIT:          0  itMISS:          0  dtACCESS:          0  dtHIT:          0  dtMISS:          0
cpu0_L1D WRITE        ACCESS:   10150720  HIT:    9561370  MISS:     589350  iACCESS:          0  iHIT:          0  iMISS:          0  dACCESS:   10150720  dHIT:    9561370  dMISS:     589350  itACCESS:          0  itHIT:          0  itMISS:          0  dtACCESS:          0  dtHIT:          0  dtMISS:          0
cpu0_L1D TRANSLATION  ACCESS:     579955  HIT:      33391  MISS:     546564  iACCESS:          0  iHIT:          0  iMISS:          0  dACCESS:          0  dHIT:          0  dMISS:          0  itACCESS:     133149  itHIT:      14657  itMISS:     118492  dtACCESS:     446806  dtHIT:      18734  dtMISS:     428072
cpu0_L1D PREFETCH  REQUESTED:   20374891  ISSUED:   18520162  CROSSED:          0  USEFUL:     360809  USELESS:     941818
cpu0_L1D AVERAGE iMISS LATENCY: 0 cycles
cpu0_L1D AVERAGE dMISS LATENCY: 49.2077 cycles
cpu0_L1D AVERAGE itMISS LATENCY: 3.19348 cycles
cpu0_L1D AVERAGE dtMISS LATENCY: 12.0446 cycles
cpu0_L1D PAGE CROSSINGS (TLB HIT):         0 
cpu0_L1D PAGE CROSSINGS (TLB MISS):         0 
cpu0_L1D AVERAGE MISS LATENCY: 64.4457 cycles
cpu0_L2C TOTAL       ACCESS:    8691480  HIT:    4188327  MISS:    4503153  iACCESS:    3791101  iHIT:    2294070  iMISS:    1497031  dACCESS:    4394078  dHIT:    1831927  dMISS:    2562151  itACCESS:     117854  itHIT:      21813  itMISS:      96041  dtACCESS:     388447  dtHIT:      40517  dtMISS:     347930
cpu0_L2C LOAD         ACCESS:    2074402  HIT:    1007568  MISS:    1066834  iACCESS:     847677  iHIT:     535516  iMISS:     312161  dACCESS:    1226725  dHIT:     472052  dMISS:     754673  itACCESS:          0  itHIT:          0  itMISS:          0  dtACCESS:          0  dtHIT:          0  dtMISS:          0
cpu0_L2C RFO          ACCESS:     216927  HIT:      82730  MISS:     134197  iACCESS:          0  iHIT:          0  iMISS:          0  dACCESS:     216927  dHIT:      82730  dMISS:     134197  itACCESS:          0  itHIT:          0  itMISS:          0  dtACCESS:          0  dtHIT:          0  dtMISS:          0
cpu0_L2C PREFETCH     ACCESS:    5546685  HIT:    2691878  MISS:    2854807  iACCESS:    2943424  iHIT:    1758554  iMISS:    1184870  dACCESS:    2603261  dHIT:     933324  dMISS:    1669937  itACCESS:          0  itHIT:          0  itMISS:          0  dtACCESS:          0  dtHIT:          0  dtMISS:          0
cpu0_L2C WRITE        ACCESS:     347165  HIT:     343821  MISS:       3344  iACCESS:          0  iHIT:          0  iMISS:          0  dACCESS:     347165  dHIT:     343821  dMISS:       3344  itACCESS:          0  itHIT:          0  itMISS:          0  dtACCESS:          0  dtHIT:          0  dtMISS:          0
cpu0_L2C TRANSLATION  ACCESS:     506301  HIT:      62330  MISS:     443971  iACCESS:          0  iHIT:          0  iMISS:          0  dACCESS:          0  dHIT:          0  dMISS:          0  itACCESS:     117854  itHIT:      21813  itMISS:      96041  dtACCESS:     388447  dtHIT:      40517  dtMISS:     347930
cpu0_L2C PREFETCH  REQUESTED:    1543259  ISSUED:    1543256  CROSSED:          0  USEFUL:     359210  USELESS:     330093
cpu0_L2C AVERAGE iMISS LATENCY: 41.3672 cycles
cpu0_L2C AVERAGE dMISS LATENCY: 81.4329 cycles
cpu0_L2C AVERAGE itMISS LATENCY: 3.97689 cycles
cpu0_L2C AVERAGE dtMISS LATENCY: 15.1126 cycles
cpu0_L2C PAGE CROSSINGS (TLB HIT):         0 
cpu0_L2C PAGE CROSSINGS (TLB MISS):         0 
cpu0_L2C AVERAGE MISS LATENCY: 141.89 cycles
LLC TOTAL       ACCESS:    4488073  HIT:    1271751  MISS:    3216322  iACCESS:    1403390  iHIT:     403582  iMISS:     999808  dACCESS:    2640712  dHIT:     828034  dMISS:    1812678  itACCESS:      96041  itHIT:       6866  itMISS:      89175  dtACCESS:     347930  dtHIT:      33269  dtMISS:     314661
LLC LOAD         ACCESS:    1059182  HIT:     317222  MISS:     741960  iACCESS:     310897  iHIT:      96653  iMISS:     214244  dACCESS:     748285  dHIT:     220569  dMISS:     527716  itACCESS:          0  itHIT:          0  itMISS:          0  dtACCESS:          0  dtHIT:          0  dtMISS:          0
LLC RFO          ACCESS:     134196  HIT:      39630  MISS:      94566  iACCESS:          0  iHIT:          0  iMISS:          0  dACCESS:     134196  dHIT:      39630  dMISS:      94566  itACCESS:          0  itHIT:          0  itMISS:          0  dtACCESS:          0  dtHIT:          0  dtMISS:          0
LLC PREFETCH     ACCESS:    2635178  HIT:     669661  MISS:    1965517  iACCESS:    1092493  iHIT:     306929  iMISS:     785564  dACCESS:    1542685  dHIT:     362732  dMISS:    1179953  itACCESS:          0  itHIT:          0  itMISS:          0  dtACCESS:          0  dtHIT:          0  dtMISS:          0
LLC WRITE        ACCESS:     215546  HIT:     205103  MISS:      10443  iACCESS:          0  iHIT:          0  iMISS:          0  dACCESS:     215546  dHIT:     205103  dMISS:      10443  itACCESS:          0  itHIT:          0  itMISS:          0  dtACCESS:          0  dtHIT:          0  dtMISS:          0
LLC TRANSLATION  ACCESS:     443971  HIT:      40135  MISS:     403836  iACCESS:          0  iHIT:          0  iMISS:          0  dACCESS:          0  dHIT:          0  dMISS:          0  itACCESS:      96041  itHIT:       6866  itMISS:      89175  dtACCESS:     347930  dtHIT:      33269  dtMISS:     314661
LLC PREFETCH  REQUESTED:          0  ISSUED:          0  CROSSED:          0  USEFUL:          0  USELESS:          0
LLC AVERAGE iMISS LATENCY: 49.3123 cycles
LLC AVERAGE dMISS LATENCY: 100.153 cycles
LLC AVERAGE itMISS LATENCY: 4.97564 cycles
LLC AVERAGE dtMISS LATENCY: 19.0196 cycles
LLC PAGE CROSSINGS (TLB HIT):         0 
LLC PAGE CROSSINGS (TLB MISS):         0 
LLC AVERAGE MISS LATENCY: 173.46 cycles

PageTableWalker TOTAL       ACCESS:     198536  
PageTableWalker AVERAGE LATENCY: 6.54119 cycles
PageTableWalker TOTAL LATENCY: 1298660 cycles

DRAM Statistics
Channel 0
 RQ ROW_BUFFER_HIT:     664697
  ROW_BUFFER_MISS:    2520747
 AVG DBUS CONGESTED CYCLE:    3.65336
 WQ ROW_BUFFER_HIT:      68969
  ROW_BUFFER_MISS:      59293  FULL:          0

