last_page:0x200000000000000
VMEM_RES_CAP:0x100000
PAGE_SIZE:4096
LOG2_PAGE_SIZE:12
LOG2_PAGE_TABLE_SIZE:9
page_table_levels:5
WARNING: physical memory size is smaller than virtual memory size
FDiP enabled with aggresivity 16

*** ChampSim Multicore Out-of-Order Simulator ***

Warmup Instructions: 50000000
Simulation Instructions: 100000000
Number of CPUs: 1
Small page size: 4096
Large page size: 2097152

CPU 0 Bimodal branch predictor
Basic BTB sets: 1024 ways: 8 indirect buffer size: 4096 RAS size: 64
Instruction page size distrubution: 0
Loading instruction page size distribution from /home/bsc/bsc018186/scratch/itp_asplos25_AE/dump/smt_srv85_ap_srv128_ap_1024i.pdst
Data page size distrubution: 0
Loading data page size distribution from /home/bsc/bsc018186/scratch/itp_asplos25_AE/dump/smt_srv85_ap_srv128_ap_1024i.pdst
cpu0_L2C IP-based stride prefetcher
cpu0_L1D next line prefetcher
CHiRPing...
cpu0_L1I next line prefetcher
Off-chip DRAM Size: 4 GiB Channels: 1 Width: 64-bit Data Rate: 3200 MT/s
Heartbeat CPU 0 instructions: 10000001 cycles: 2500499 heartbeat IPC: 3.99921 cumulative IPC: 3.99921 (Simulation time: 0 hr 0 min 41 sec) 
Heartbeat CPU 0 instructions: 20000000 cycles: 5079263 heartbeat IPC: 3.87783 cumulative IPC: 3.93758 (Simulation time: 0 hr 1 min 25 sec) 
Heartbeat CPU 0 instructions: 30000001 cycles: 7627017 heartbeat IPC: 3.92503 cumulative IPC: 3.93339 (Simulation time: 0 hr 2 min 11 sec) 
Heartbeat CPU 0 instructions: 40000002 cycles: 10167827 heartbeat IPC: 3.93576 cumulative IPC: 3.93398 (Simulation time: 0 hr 2 min 56 sec) 
Heartbeat CPU 0 instructions: 50000002 cycles: 12668304 heartbeat IPC: 3.99924 cumulative IPC: 3.94686 (Simulation time: 0 hr 3 min 39 sec) 
Warmup finished CPU 0 instructions: 50000002 cycles: 12668305 cumulative IPC: 3.94686 (Simulation time: 0 hr 3 min 39 sec) 

Warmup complete CPU 0 instructions: 50000002 cycles: 12668305 (Simulation time: 0 hr 3 min 39 sec) 

Heartbeat CPU 0 instructions: 60000000 cycles: 43150486 heartbeat IPC: 0.328061 cumulative IPC: 0.328061 (Simulation time: 0 hr 5 min 11 sec) 
Heartbeat CPU 0 instructions: 70000000 cycles: 73409781 heartbeat IPC: 0.330477 cumulative IPC: 0.329265 (Simulation time: 0 hr 6 min 42 sec) 
Heartbeat CPU 0 instructions: 80000002 cycles: 104156590 heartbeat IPC: 0.325238 cumulative IPC: 0.327911 (Simulation time: 0 hr 8 min 14 sec) 
Heartbeat CPU 0 instructions: 90000002 cycles: 134294722 heartbeat IPC: 0.331806 cumulative IPC: 0.328876 (Simulation time: 0 hr 9 min 45 sec) 
Heartbeat CPU 0 instructions: 100000000 cycles: 165669978 heartbeat IPC: 0.318723 cumulative IPC: 0.326794 (Simulation time: 0 hr 11 min 18 sec) 
Heartbeat CPU 0 instructions: 110000000 cycles: 196065852 heartbeat IPC: 0.328993 cumulative IPC: 0.327159 (Simulation time: 0 hr 12 min 49 sec) 
Heartbeat CPU 0 instructions: 120000000 cycles: 227260431 heartbeat IPC: 0.320569 cumulative IPC: 0.326201 (Simulation time: 0 hr 14 min 22 sec) 
Heartbeat CPU 0 instructions: 130000000 cycles: 257620818 heartbeat IPC: 0.329377 cumulative IPC: 0.326594 (Simulation time: 0 hr 15 min 53 sec) 
Heartbeat CPU 0 instructions: 140000004 cycles: 288147843 heartbeat IPC: 0.327579 cumulative IPC: 0.326704 (Simulation time: 0 hr 17 min 25 sec) 
Heartbeat CPU 0 instructions: 150000000 cycles: 319666458 heartbeat IPC: 0.317273 cumulative IPC: 0.325735 (Simulation time: 0 hr 18 min 57 sec) 
Simulation finished CPU 0 instructions: 100000003 cycles: 306998155 cumulative IPC: 0.325735 (Simulation time: 0 hr 18 min 57 sec) 

Simulation complete CPU 0 instructions: 100000003 cycles: 306998155 (Simulation time: 0 hr 18 min 57 sec) 


ChampSim completed all CPUs

Saving instructions large page distribution to /home/bsc/bsc018186/scratch/itp_asplos25_AE/dump/smt_srv85_ap_srv128_ap_1024i.pdst...
Saving data large page distribution to /home/bsc/bsc018186/scratch/itp_asplos25_AE/dump/smt_srv85_ap_srv128_ap_1024i.pdst...
=== Simulation ===
CPU 0 runs /gpfs/projects/bsc18/MN4/bsc18/romol/ChampSim/traces/qualcomm_srv/smt_srv85_ap_srv128_ap_1024i.champsimtrace.xz

Region of Interest Statistics

CPU 0 cumulative IPC: 0.325735 instructions: 100000003 cycles: 306998155
CPU 0 Branch Prediction Accuracy: 75.0492% MPKI: 44.9943 Average ROB Occupancy at Mispredict: 10.7552
Branch type MPKI
BRANCH_DIRECT_JUMP: 1.39321
BRANCH_INDIRECT: 23.3239
BRANCH_CONDITIONAL: 13.0686
BRANCH_DIRECT_CALL: 2.66733
BRANCH_INDIRECT_CALL: 1.0116
BRANCH_RETURN: 3.52962

Instructions large pages: 0
Instructions small pages: 10022
Large page distribution for instructions: 0%

Data large pages: 0
Data small pages: 8595
Large page distribution for data: 0%

cpu0_L1I TOTAL       ACCESS:   39236503  HIT:   30467844  MISS:    8768659  iACCESS:   39236503  iHIT:   30467844  iMISS:    8768659  dACCESS:          0  dHIT:          0  dMISS:          0  itACCESS:          0  itHIT:          0  itMISS:          0  dtACCESS:          0  dtHIT:          0  dtMISS:          0
cpu0_L1I LOAD         ACCESS:   11726890  HIT:    9340322  MISS:    2386568  iACCESS:   11726890  iHIT:    9340322  iMISS:    2386568  dACCESS:          0  dHIT:          0  dMISS:          0  itACCESS:          0  itHIT:          0  itMISS:          0  dtACCESS:          0  dtHIT:          0  dtMISS:          0
cpu0_L1I RFO          ACCESS:          0  HIT:          0  MISS:          0  iACCESS:          0  iHIT:          0  iMISS:          0  dACCESS:          0  dHIT:          0  dMISS:          0  itACCESS:          0  itHIT:          0  itMISS:          0  dtACCESS:          0  dtHIT:          0  dtMISS:          0
cpu0_L1I PREFETCH     ACCESS:   27509613  HIT:   21127522  MISS:    6382091  iACCESS:   27509613  iHIT:   21127522  iMISS:    6382091  dACCESS:          0  dHIT:          0  dMISS:          0  itACCESS:          0  itHIT:          0  itMISS:          0  dtACCESS:          0  dtHIT:          0  dtMISS:          0
cpu0_L1I WRITE        ACCESS:          0  HIT:          0  MISS:          0  iACCESS:          0  iHIT:          0  iMISS:          0  dACCESS:          0  dHIT:          0  dMISS:          0  itACCESS:          0  itHIT:          0  itMISS:          0  dtACCESS:          0  dtHIT:          0  dtMISS:          0
cpu0_L1I TRANSLATION  ACCESS:          0  HIT:          0  MISS:          0  iACCESS:          0  iHIT:          0  iMISS:          0  dACCESS:          0  dHIT:          0  dMISS:          0  itACCESS:          0  itHIT:          0  itMISS:          0  dtACCESS:          0  dtHIT:          0  dtMISS:          0
cpu0_L1I PREFETCH  REQUESTED:   30307780  ISSUED:   30307463  CROSSED:          0  USEFUL:    2221616  USELESS:     775468
cpu0_L1I AVERAGE iMISS LATENCY: 24.8297 cycles
cpu0_L1I AVERAGE dMISS LATENCY: 0 cycles
cpu0_L1I AVERAGE itMISS LATENCY: 0 cycles
cpu0_L1I AVERAGE dtMISS LATENCY: 0 cycles
cpu0_L1I PAGE CROSSINGS (TLB HIT):         0 
cpu0_L1I PAGE CROSSINGS (TLB MISS):         0 
cpu0_L1I AVERAGE MISS LATENCY: 24.8297 cycles
cpu0_ITLB TOTAL       ACCESS:   33242942  HIT:   30983083  MISS:    2259859  iACCESS:   33242942  iHIT:   30983083  iMISS:    2259859  dACCESS:          0  dHIT:          0  dMISS:          0  itACCESS:          0  itHIT:          0  itMISS:          0  dtACCESS:          0  dtHIT:          0  dtMISS:          0
cpu0_ITLB LOAD         ACCESS:   33242942  HIT:   30983083  MISS:    2259859  iACCESS:   33242942  iHIT:   30983083  iMISS:    2259859  dACCESS:          0  dHIT:          0  dMISS:          0  itACCESS:          0  itHIT:          0  itMISS:          0  dtACCESS:          0  dtHIT:          0  dtMISS:          0
cpu0_ITLB RFO          ACCESS:          0  HIT:          0  MISS:          0  iACCESS:          0  iHIT:          0  iMISS:          0  dACCESS:          0  dHIT:          0  dMISS:          0  itACCESS:          0  itHIT:          0  itMISS:          0  dtACCESS:          0  dtHIT:          0  dtMISS:          0
cpu0_ITLB PREFETCH     ACCESS:          0  HIT:          0  MISS:          0  iACCESS:          0  iHIT:          0  iMISS:          0  dACCESS:          0  dHIT:          0  dMISS:          0  itACCESS:          0  itHIT:          0  itMISS:          0  dtACCESS:          0  dtHIT:          0  dtMISS:          0
cpu0_ITLB WRITE        ACCESS:          0  HIT:          0  MISS:          0  iACCESS:          0  iHIT:          0  iMISS:          0  dACCESS:          0  dHIT:          0  dMISS:          0  itACCESS:          0  itHIT:          0  itMISS:          0  dtACCESS:          0  dtHIT:          0  dtMISS:          0
cpu0_ITLB TRANSLATION  ACCESS:          0  HIT:          0  MISS:          0  iACCESS:          0  iHIT:          0  iMISS:          0  dACCESS:          0  dHIT:          0  dMISS:          0  itACCESS:          0  itHIT:          0  itMISS:          0  dtACCESS:          0  dtHIT:          0  dtMISS:          0
cpu0_ITLB PREFETCH  REQUESTED:          0  ISSUED:          0  CROSSED:          0  USEFUL:     393474  USELESS:      81092
cpu0_ITLB AVERAGE iMISS LATENCY: 10.4995 cycles
cpu0_ITLB AVERAGE dMISS LATENCY: 0 cycles
cpu0_ITLB AVERAGE itMISS LATENCY: 0 cycles
cpu0_ITLB AVERAGE dtMISS LATENCY: 0 cycles
cpu0_ITLB PAGE CROSSINGS (TLB HIT):         0 
cpu0_ITLB PAGE CROSSINGS (TLB MISS):         0 
cpu0_ITLB AVERAGE MISS LATENCY: 10.4995 cycles
cpu0_DTLB TOTAL       ACCESS:   28868595  HIT:   25262243  MISS:    3606352  iACCESS:          0  iHIT:          0  iMISS:          0  dACCESS:   28868595  dHIT:   25262243  dMISS:    3606352  itACCESS:          0  itHIT:          0  itMISS:          0  dtACCESS:          0  dtHIT:          0  dtMISS:          0
cpu0_DTLB LOAD         ACCESS:   28868595  HIT:   25262243  MISS:    3606352  iACCESS:          0  iHIT:          0  iMISS:          0  dACCESS:   28868595  dHIT:   25262243  dMISS:    3606352  itACCESS:          0  itHIT:          0  itMISS:          0  dtACCESS:          0  dtHIT:          0  dtMISS:          0
cpu0_DTLB RFO          ACCESS:          0  HIT:          0  MISS:          0  iACCESS:          0  iHIT:          0  iMISS:          0  dACCESS:          0  dHIT:          0  dMISS:          0  itACCESS:          0  itHIT:          0  itMISS:          0  dtACCESS:          0  dtHIT:          0  dtMISS:          0
cpu0_DTLB PREFETCH     ACCESS:          0  HIT:          0  MISS:          0  iACCESS:          0  iHIT:          0  iMISS:          0  dACCESS:          0  dHIT:          0  dMISS:          0  itACCESS:          0  itHIT:          0  itMISS:          0  dtACCESS:          0  dtHIT:          0  dtMISS:          0
cpu0_DTLB WRITE        ACCESS:          0  HIT:          0  MISS:          0  iACCESS:          0  iHIT:          0  iMISS:          0  dACCESS:          0  dHIT:          0  dMISS:          0  itACCESS:          0  itHIT:          0  itMISS:          0  dtACCESS:          0  dtHIT:          0  dtMISS:          0
cpu0_DTLB TRANSLATION  ACCESS:          0  HIT:          0  MISS:          0  iACCESS:          0  iHIT:          0  iMISS:          0  dACCESS:          0  dHIT:          0  dMISS:          0  itACCESS:          0  itHIT:          0  itMISS:          0  dtACCESS:          0  dtHIT:          0  dtMISS:          0
cpu0_DTLB PREFETCH  REQUESTED:          0  ISSUED:          0  CROSSED:          0  USEFUL:          0  USELESS:          0
cpu0_DTLB AVERAGE iMISS LATENCY: 0 cycles
cpu0_DTLB AVERAGE dMISS LATENCY: 25.7595 cycles
cpu0_DTLB AVERAGE itMISS LATENCY: 0 cycles
cpu0_DTLB AVERAGE dtMISS LATENCY: 0 cycles
cpu0_DTLB PAGE CROSSINGS (TLB HIT):         0 
cpu0_DTLB PAGE CROSSINGS (TLB MISS):         0 
cpu0_DTLB AVERAGE MISS LATENCY: 25.7595 cycles
cpu0_STLB TOTAL       ACCESS:    2591616  HIT:    2203110  MISS:     388506  iACCESS:     474573  iHIT:     356878  iMISS:     117695  dACCESS:    2117043  dHIT:    1846232  dMISS:     270811  itACCESS:          0  itHIT:          0  itMISS:          0  dtACCESS:          0  dtHIT:          0  dtMISS:          0
cpu0_STLB LOAD         ACCESS:    2591616  HIT:    2203110  MISS:     388506  iACCESS:     474573  iHIT:     356878  iMISS:     117695  dACCESS:    2117043  dHIT:    1846232  dMISS:     270811  itACCESS:          0  itHIT:          0  itMISS:          0  dtACCESS:          0  dtHIT:          0  dtMISS:          0
cpu0_STLB RFO          ACCESS:          0  HIT:          0  MISS:          0  iACCESS:          0  iHIT:          0  iMISS:          0  dACCESS:          0  dHIT:          0  dMISS:          0  itACCESS:          0  itHIT:          0  itMISS:          0  dtACCESS:          0  dtHIT:          0  dtMISS:          0
cpu0_STLB PREFETCH     ACCESS:          0  HIT:          0  MISS:          0  iACCESS:          0  iHIT:          0  iMISS:          0  dACCESS:          0  dHIT:          0  dMISS:          0  itACCESS:          0  itHIT:          0  itMISS:          0  dtACCESS:          0  dtHIT:          0  dtMISS:          0
cpu0_STLB WRITE        ACCESS:          0  HIT:          0  MISS:          0  iACCESS:          0  iHIT:          0  iMISS:          0  dACCESS:          0  dHIT:          0  dMISS:          0  itACCESS:          0  itHIT:          0  itMISS:          0  dtACCESS:          0  dtHIT:          0  dtMISS:          0
cpu0_STLB TRANSLATION  ACCESS:          0  HIT:          0  MISS:          0  iACCESS:          0  iHIT:          0  iMISS:          0  dACCESS:          0  dHIT:          0  dMISS:          0  itACCESS:          0  itHIT:          0  itMISS:          0  dtACCESS:          0  dtHIT:          0  dtMISS:          0
cpu0_STLB PREFETCH  REQUESTED:          0  ISSUED:          0  CROSSED:          0  USEFUL:          0  USELESS:          0
cpu0_STLB AVERAGE iMISS LATENCY: 51.2924 cycles
cpu0_STLB AVERAGE dMISS LATENCY: 195.239 cycles
cpu0_STLB AVERAGE itMISS LATENCY: 0 cycles
cpu0_STLB AVERAGE dtMISS LATENCY: 0 cycles
cpu0_STLB PAGE CROSSINGS (TLB HIT):         0 
cpu0_STLB PAGE CROSSINGS (TLB MISS):         0 
cpu0_STLB AVERAGE MISS LATENCY: 246.531 cycles
cpu0_L1D TOTAL       ACCESS:   45276071  HIT:   39229380  MISS:    6046691  iACCESS:          0  iHIT:          0  iMISS:          0  dACCESS:   44702174  dHIT:   39196168  dMISS:    5506006  itACCESS:     133671  itHIT:      14419  itMISS:     119252  dtACCESS:     440226  dtHIT:      18793  dtMISS:     421433
cpu0_L1D LOAD         ACCESS:   20385554  HIT:   17912572  MISS:    2472982  iACCESS:          0  iHIT:          0  iMISS:          0  dACCESS:   20385554  dHIT:   17912572  dMISS:    2472982  itACCESS:          0  itHIT:          0  itMISS:          0  dtACCESS:          0  dtHIT:          0  dtMISS:          0
cpu0_L1D RFO          ACCESS:          0  HIT:          0  MISS:          0  iACCESS:          0  iHIT:          0  iMISS:          0  dACCESS:          0  dHIT:          0  dMISS:          0  itACCESS:          0  itHIT:          0  itMISS:          0  dtACCESS:          0  dtHIT:          0  dtMISS:          0
cpu0_L1D PREFETCH     ACCESS:   14146056  HIT:   11702253  MISS:    2443803  iACCESS:          0  iHIT:          0  iMISS:          0  dACCESS:   14146056  dHIT:   11702253  dMISS:    2443803  itACCESS:          0  itHIT:          0  itMISS:          0  dtACCESS:          0  dtHIT:          0  dtMISS:          0
cpu0_L1D WRITE        ACCESS:   10170564  HIT:    9581343  MISS:     589221  iACCESS:          0  iHIT:          0  iMISS:          0  dACCESS:   10170564  dHIT:    9581343  dMISS:     589221  itACCESS:          0  itHIT:          0  itMISS:          0  dtACCESS:          0  dtHIT:          0  dtMISS:          0
cpu0_L1D TRANSLATION  ACCESS:     573897  HIT:      33212  MISS:     540685  iACCESS:          0  iHIT:          0  iMISS:          0  dACCESS:          0  dHIT:          0  dMISS:          0  itACCESS:     133671  itHIT:      14419  itMISS:     119252  dtACCESS:     440226  dtHIT:      18793  dtMISS:     421433
cpu0_L1D PREFETCH  REQUESTED:   20385554  ISSUED:   18510050  CROSSED:          0  USEFUL:     359048  USELESS:     940161
cpu0_L1D AVERAGE iMISS LATENCY: 0 cycles
cpu0_L1D AVERAGE dMISS LATENCY: 48.4768 cycles
cpu0_L1D AVERAGE itMISS LATENCY: 3.11254 cycles
cpu0_L1D AVERAGE dtMISS LATENCY: 11.7731 cycles
cpu0_L1D PAGE CROSSINGS (TLB HIT):         0 
cpu0_L1D PAGE CROSSINGS (TLB MISS):         0 
cpu0_L1D AVERAGE MISS LATENCY: 63.3624 cycles
cpu0_L2C TOTAL       ACCESS:    8694932  HIT:    4211305  MISS:    4483627  iACCESS:    3814744  iHIT:    2316338  iMISS:    1498406  dACCESS:    4377717  dHIT:    1833409  dMISS:    2544308  itACCESS:     116756  itHIT:      21551  itMISS:      95205  dtACCESS:     385715  dtHIT:      40007  dtMISS:     345708
cpu0_L2C LOAD         ACCESS:    2075916  HIT:    1014163  MISS:    1061753  iACCESS:     855339  iHIT:     544616  iMISS:     310723  dACCESS:    1220577  dHIT:     469547  dMISS:     751030  itACCESS:          0  itHIT:          0  itMISS:          0  dtACCESS:          0  dtHIT:          0  dtMISS:          0
cpu0_L2C RFO          ACCESS:     216806  HIT:      82581  MISS:     134225  iACCESS:          0  iHIT:          0  iMISS:          0  dACCESS:     216806  dHIT:      82581  dMISS:     134225  itACCESS:          0  itHIT:          0  itMISS:          0  dtACCESS:          0  dtHIT:          0  dtMISS:          0
cpu0_L2C PREFETCH     ACCESS:    5553855  HIT:    2710756  MISS:    2843099  iACCESS:    2959405  iHIT:    1771722  iMISS:    1187683  dACCESS:    2594450  dHIT:     939034  dMISS:    1655416  itACCESS:          0  itHIT:          0  itMISS:          0  dtACCESS:          0  dtHIT:          0  dtMISS:          0
cpu0_L2C WRITE        ACCESS:     345884  HIT:     342247  MISS:       3637  iACCESS:          0  iHIT:          0  iMISS:          0  dACCESS:     345884  dHIT:     342247  dMISS:       3637  itACCESS:          0  itHIT:          0  itMISS:          0  dtACCESS:          0  dtHIT:          0  dtMISS:          0
cpu0_L2C TRANSLATION  ACCESS:     502471  HIT:      61558  MISS:     440913  iACCESS:          0  iHIT:          0  iMISS:          0  dACCESS:          0  dHIT:          0  dMISS:          0  itACCESS:     116756  itHIT:      21551  itMISS:      95205  dtACCESS:     385715  dtHIT:      40007  dtMISS:     345708
cpu0_L2C PREFETCH  REQUESTED:    1537124  ISSUED:    1537117  CROSSED:          0  USEFUL:     358077  USELESS:     327184
cpu0_L2C AVERAGE iMISS LATENCY: 41.4804 cycles
cpu0_L2C AVERAGE dMISS LATENCY: 81.4387 cycles
cpu0_L2C AVERAGE itMISS LATENCY: 3.94123 cycles
cpu0_L2C AVERAGE dtMISS LATENCY: 15.0211 cycles
cpu0_L2C PAGE CROSSINGS (TLB HIT):         0 
cpu0_L2C PAGE CROSSINGS (TLB MISS):         0 
cpu0_L2C AVERAGE MISS LATENCY: 141.882 cycles
LLC TOTAL       ACCESS:    4471615  HIT:    1278540  MISS:    3193075  iACCESS:    1406327  iHIT:     409489  iMISS:     996838  dACCESS:    2624375  dHIT:     827933  dMISS:    1796442  itACCESS:      95205  itHIT:       7159  itMISS:      88046  dtACCESS:     345708  dtHIT:      33959  dtMISS:     311749
LLC LOAD         ACCESS:    1054282  HIT:     319512  MISS:     734770  iACCESS:     309476  iHIT:      96720  iMISS:     212756  dACCESS:     744806  dHIT:     222792  dMISS:     522014  itACCESS:          0  itHIT:          0  itMISS:          0  dtACCESS:          0  dtHIT:          0  dtMISS:          0
LLC RFO          ACCESS:     134225  HIT:      38837  MISS:      95388  iACCESS:          0  iHIT:          0  iMISS:          0  dACCESS:     134225  dHIT:      38837  dMISS:      95388  itACCESS:          0  itHIT:          0  itMISS:          0  dtACCESS:          0  dtHIT:          0  dtMISS:          0
LLC PREFETCH     ACCESS:    2627591  HIT:     675719  MISS:    1951872  iACCESS:    1096851  iHIT:     312769  iMISS:     784082  dACCESS:    1530740  dHIT:     362950  dMISS:    1167790  itACCESS:          0  itHIT:          0  itMISS:          0  dtACCESS:          0  dtHIT:          0  dtMISS:          0
LLC WRITE        ACCESS:     214604  HIT:     203354  MISS:      11250  iACCESS:          0  iHIT:          0  iMISS:          0  dACCESS:     214604  dHIT:     203354  dMISS:      11250  itACCESS:          0  itHIT:          0  itMISS:          0  dtACCESS:          0  dtHIT:          0  dtMISS:          0
LLC TRANSLATION  ACCESS:     440913  HIT:      41118  MISS:     399795  iACCESS:          0  iHIT:          0  iMISS:          0  dACCESS:          0  dHIT:          0  dMISS:          0  itACCESS:      95205  itHIT:       7159  itMISS:      88046  dtACCESS:     345708  dtHIT:      33959  dtMISS:     311749
LLC PREFETCH  REQUESTED:          0  ISSUED:          0  CROSSED:          0  USEFUL:          0  USELESS:          0
LLC AVERAGE iMISS LATENCY: 49.5596 cycles
LLC AVERAGE dMISS LATENCY: 100.554 cycles
LLC AVERAGE itMISS LATENCY: 4.94278 cycles
LLC AVERAGE dtMISS LATENCY: 18.951 cycles
LLC PAGE CROSSINGS (TLB HIT):         0 
LLC PAGE CROSSINGS (TLB MISS):         0 
LLC AVERAGE MISS LATENCY: 174.007 cycles

PageTableWalker TOTAL       ACCESS:     147244  
PageTableWalker AVERAGE LATENCY: 6.47988 cycles
PageTableWalker TOTAL LATENCY: 954123 cycles

DRAM Statistics
Channel 0
 RQ ROW_BUFFER_HIT:     653708
  ROW_BUFFER_MISS:    2507027
 AVG DBUS CONGESTED CYCLE:    3.65156
 WQ ROW_BUFFER_HIT:      68972
  ROW_BUFFER_MISS:      59461  FULL:          0

