last_page:0x200000000000000
VMEM_RES_CAP:0x100000
PAGE_SIZE:4096
LOG2_PAGE_SIZE:12
LOG2_PAGE_TABLE_SIZE:9
page_table_levels:5
WARNING: physical memory size is smaller than virtual memory size
FDiP enabled with aggresivity 16

*** ChampSim Multicore Out-of-Order Simulator ***

Warmup Instructions: 50000000
Simulation Instructions: 100000000
Number of CPUs: 1
Small page size: 4096
Large page size: 2097152

CPU 0 Bimodal branch predictor
Basic BTB sets: 1024 ways: 8 indirect buffer size: 4096 RAS size: 64
Instruction page size distrubution: 0
Loading instruction page size distribution from /home/bsc/bsc018186/scratch/itp_asplos25_AE/dump/smt_srv540_ap_srv180_ap_1024i.pdst
Data page size distrubution: 0
Loading data page size distribution from /home/bsc/bsc018186/scratch/itp_asplos25_AE/dump/smt_srv540_ap_srv180_ap_1024i.pdst
cpu0_L2C IP-based stride prefetcher
cpu0_L1D next line prefetcher
cpu0_STLB using iTP with max lru@8
cpu0_STLB using iTP with instr@0 and data@2
Init sat counter with 3 bits (max:50).
cpu0_L1I next line prefetcher
Off-chip DRAM Size: 4 GiB Channels: 1 Width: 64-bit Data Rate: 3200 MT/s
Heartbeat CPU 0 instructions: 10000001 cycles: 2500281 heartbeat IPC: 3.99956 cumulative IPC: 3.99956 (Simulation time: 0 hr 0 min 38 sec) 
Heartbeat CPU 0 instructions: 20000001 cycles: 5000300 heartbeat IPC: 3.99997 cumulative IPC: 3.99977 (Simulation time: 0 hr 1 min 17 sec) 
Heartbeat CPU 0 instructions: 30000002 cycles: 7500405 heartbeat IPC: 3.99984 cumulative IPC: 3.99979 (Simulation time: 0 hr 1 min 58 sec) 
Heartbeat CPU 0 instructions: 40000003 cycles: 10000568 heartbeat IPC: 3.99974 cumulative IPC: 3.99978 (Simulation time: 0 hr 2 min 38 sec) 
Heartbeat CPU 0 instructions: 50000002 cycles: 12500649 heartbeat IPC: 3.99988 cumulative IPC: 3.9998 (Simulation time: 0 hr 3 min 20 sec) 
Warmup finished CPU 0 instructions: 50000002 cycles: 12500650 cumulative IPC: 3.9998 (Simulation time: 0 hr 3 min 20 sec) 

Warmup complete CPU 0 instructions: 50000002 cycles: 12500650 (Simulation time: 0 hr 3 min 20 sec) 

Heartbeat CPU 0 instructions: 60000001 cycles: 41204028 heartbeat IPC: 0.348392 cumulative IPC: 0.348392 (Simulation time: 0 hr 4 min 44 sec) 
Heartbeat CPU 0 instructions: 70000001 cycles: 68793189 heartbeat IPC: 0.362462 cumulative IPC: 0.355287 (Simulation time: 0 hr 6 min 9 sec) 
Heartbeat CPU 0 instructions: 80000002 cycles: 97907259 heartbeat IPC: 0.343477 cumulative IPC: 0.351261 (Simulation time: 0 hr 7 min 39 sec) 
Heartbeat CPU 0 instructions: 90000000 cycles: 126647537 heartbeat IPC: 0.347944 cumulative IPC: 0.350426 (Simulation time: 0 hr 9 min 8 sec) 
Heartbeat CPU 0 instructions: 100000004 cycles: 156211122 heartbeat IPC: 0.338255 cumulative IPC: 0.347922 (Simulation time: 0 hr 10 min 37 sec) 
Heartbeat CPU 0 instructions: 110000000 cycles: 184869446 heartbeat IPC: 0.348939 cumulative IPC: 0.348091 (Simulation time: 0 hr 12 min 3 sec) 
Heartbeat CPU 0 instructions: 120000001 cycles: 213874468 heartbeat IPC: 0.344768 cumulative IPC: 0.347613 (Simulation time: 0 hr 13 min 30 sec) 
Heartbeat CPU 0 instructions: 130000000 cycles: 241951640 heartbeat IPC: 0.356162 cumulative IPC: 0.348659 (Simulation time: 0 hr 14 min 52 sec) 
Heartbeat CPU 0 instructions: 140000002 cycles: 271164943 heartbeat IPC: 0.34231 cumulative IPC: 0.347942 (Simulation time: 0 hr 16 min 14 sec) 
Heartbeat CPU 0 instructions: 150000001 cycles: 298897220 heartbeat IPC: 0.360591 cumulative IPC: 0.349167 (Simulation time: 0 hr 17 min 35 sec) 
Simulation finished CPU 0 instructions: 100000004 cycles: 286396572 cumulative IPC: 0.349167 (Simulation time: 0 hr 17 min 35 sec) 

Simulation complete CPU 0 instructions: 100000004 cycles: 286396572 (Simulation time: 0 hr 17 min 35 sec) 


ChampSim completed all CPUs

Saving instructions large page distribution to /home/bsc/bsc018186/scratch/itp_asplos25_AE/dump/smt_srv540_ap_srv180_ap_1024i.pdst...
Saving data large page distribution to /home/bsc/bsc018186/scratch/itp_asplos25_AE/dump/smt_srv540_ap_srv180_ap_1024i.pdst...
=== Simulation ===
CPU 0 runs /gpfs/projects/bsc18/MN4/bsc18/romol/ChampSim/traces/qualcomm_srv/smt_srv540_ap_srv180_ap_1024i.champsimtrace.xz

Region of Interest Statistics

CPU 0 cumulative IPC: 0.349167 instructions: 100000004 cycles: 286396572
CPU 0 Branch Prediction Accuracy: 75.9656% MPKI: 43.2063 Average ROB Occupancy at Mispredict: 11.6274
Branch type MPKI
BRANCH_DIRECT_JUMP: 1.30203
BRANCH_INDIRECT: 22.4852
BRANCH_CONDITIONAL: 12.5604
BRANCH_DIRECT_CALL: 2.49187
BRANCH_INDIRECT_CALL: 0.92576
BRANCH_RETURN: 3.44105

Instructions large pages: 0
Instructions small pages: 13008
Large page distribution for instructions: 0%

Data large pages: 0
Data small pages: 11794
Large page distribution for data: 0%

cpu0_L1I TOTAL       ACCESS:   39035905  HIT:   30426222  MISS:    8609683  iACCESS:   39035905  iHIT:   30426222  iMISS:    8609683  dACCESS:          0  dHIT:          0  dMISS:          0  itACCESS:          0  itHIT:          0  itMISS:          0  dtACCESS:          0  dtHIT:          0  dtMISS:          0
cpu0_L1I LOAD         ACCESS:   11749379  HIT:    9402050  MISS:    2347329  iACCESS:   11749379  iHIT:    9402050  iMISS:    2347329  dACCESS:          0  dHIT:          0  dMISS:          0  itACCESS:          0  itHIT:          0  itMISS:          0  dtACCESS:          0  dtHIT:          0  dtMISS:          0
cpu0_L1I RFO          ACCESS:          0  HIT:          0  MISS:          0  iACCESS:          0  iHIT:          0  iMISS:          0  dACCESS:          0  dHIT:          0  dMISS:          0  itACCESS:          0  itHIT:          0  itMISS:          0  dtACCESS:          0  dtHIT:          0  dtMISS:          0
cpu0_L1I PREFETCH     ACCESS:   27286526  HIT:   21024172  MISS:    6262354  iACCESS:   27286526  iHIT:   21024172  iMISS:    6262354  dACCESS:          0  dHIT:          0  dMISS:          0  itACCESS:          0  itHIT:          0  itMISS:          0  dtACCESS:          0  dtHIT:          0  dtMISS:          0
cpu0_L1I WRITE        ACCESS:          0  HIT:          0  MISS:          0  iACCESS:          0  iHIT:          0  iMISS:          0  dACCESS:          0  dHIT:          0  dMISS:          0  itACCESS:          0  itHIT:          0  itMISS:          0  dtACCESS:          0  dtHIT:          0  dtMISS:          0
cpu0_L1I TRANSLATION  ACCESS:          0  HIT:          0  MISS:          0  iACCESS:          0  iHIT:          0  iMISS:          0  dACCESS:          0  dHIT:          0  dMISS:          0  itACCESS:          0  itHIT:          0  itMISS:          0  dtACCESS:          0  dtHIT:          0  dtMISS:          0
cpu0_L1I PREFETCH  REQUESTED:   30180656  ISSUED:   30180644  CROSSED:          0  USEFUL:    2184307  USELESS:     746458
cpu0_L1I AVERAGE iMISS LATENCY: 23.278 cycles
cpu0_L1I AVERAGE dMISS LATENCY: 0 cycles
cpu0_L1I AVERAGE itMISS LATENCY: 0 cycles
cpu0_L1I AVERAGE dtMISS LATENCY: 0 cycles
cpu0_L1I PAGE CROSSINGS (TLB HIT):         0 
cpu0_L1I PAGE CROSSINGS (TLB MISS):         0 
cpu0_L1I AVERAGE MISS LATENCY: 23.278 cycles
cpu0_ITLB TOTAL       ACCESS:   32929931  HIT:   30752793  MISS:    2177138  iACCESS:   32929931  iHIT:   30752793  iMISS:    2177138  dACCESS:          0  dHIT:          0  dMISS:          0  itACCESS:          0  itHIT:          0  itMISS:          0  dtACCESS:          0  dtHIT:          0  dtMISS:          0
cpu0_ITLB LOAD         ACCESS:   32929931  HIT:   30752793  MISS:    2177138  iACCESS:   32929931  iHIT:   30752793  iMISS:    2177138  dACCESS:          0  dHIT:          0  dMISS:          0  itACCESS:          0  itHIT:          0  itMISS:          0  dtACCESS:          0  dtHIT:          0  dtMISS:          0
cpu0_ITLB RFO          ACCESS:          0  HIT:          0  MISS:          0  iACCESS:          0  iHIT:          0  iMISS:          0  dACCESS:          0  dHIT:          0  dMISS:          0  itACCESS:          0  itHIT:          0  itMISS:          0  dtACCESS:          0  dtHIT:          0  dtMISS:          0
cpu0_ITLB PREFETCH     ACCESS:          0  HIT:          0  MISS:          0  iACCESS:          0  iHIT:          0  iMISS:          0  dACCESS:          0  dHIT:          0  dMISS:          0  itACCESS:          0  itHIT:          0  itMISS:          0  dtACCESS:          0  dtHIT:          0  dtMISS:          0
cpu0_ITLB WRITE        ACCESS:          0  HIT:          0  MISS:          0  iACCESS:          0  iHIT:          0  iMISS:          0  dACCESS:          0  dHIT:          0  dMISS:          0  itACCESS:          0  itHIT:          0  itMISS:          0  dtACCESS:          0  dtHIT:          0  dtMISS:          0
cpu0_ITLB TRANSLATION  ACCESS:          0  HIT:          0  MISS:          0  iACCESS:          0  iHIT:          0  iMISS:          0  dACCESS:          0  dHIT:          0  dMISS:          0  itACCESS:          0  itHIT:          0  itMISS:          0  dtACCESS:          0  dtHIT:          0  dtMISS:          0
cpu0_ITLB PREFETCH  REQUESTED:          0  ISSUED:          0  CROSSED:          0  USEFUL:     380370  USELESS:      76710
cpu0_ITLB AVERAGE iMISS LATENCY: 6.03464 cycles
cpu0_ITLB AVERAGE dMISS LATENCY: 0 cycles
cpu0_ITLB AVERAGE itMISS LATENCY: 0 cycles
cpu0_ITLB AVERAGE dtMISS LATENCY: 0 cycles
cpu0_ITLB PAGE CROSSINGS (TLB HIT):         0 
cpu0_ITLB PAGE CROSSINGS (TLB MISS):         0 
cpu0_ITLB AVERAGE MISS LATENCY: 6.03464 cycles
cpu0_DTLB TOTAL       ACCESS:   28712511  HIT:   25025936  MISS:    3686575  iACCESS:          0  iHIT:          0  iMISS:          0  dACCESS:   28712511  dHIT:   25025936  dMISS:    3686575  itACCESS:          0  itHIT:          0  itMISS:          0  dtACCESS:          0  dtHIT:          0  dtMISS:          0
cpu0_DTLB LOAD         ACCESS:   28712511  HIT:   25025936  MISS:    3686575  iACCESS:          0  iHIT:          0  iMISS:          0  dACCESS:   28712511  dHIT:   25025936  dMISS:    3686575  itACCESS:          0  itHIT:          0  itMISS:          0  dtACCESS:          0  dtHIT:          0  dtMISS:          0
cpu0_DTLB RFO          ACCESS:          0  HIT:          0  MISS:          0  iACCESS:          0  iHIT:          0  iMISS:          0  dACCESS:          0  dHIT:          0  dMISS:          0  itACCESS:          0  itHIT:          0  itMISS:          0  dtACCESS:          0  dtHIT:          0  dtMISS:          0
cpu0_DTLB PREFETCH     ACCESS:          0  HIT:          0  MISS:          0  iACCESS:          0  iHIT:          0  iMISS:          0  dACCESS:          0  dHIT:          0  dMISS:          0  itACCESS:          0  itHIT:          0  itMISS:          0  dtACCESS:          0  dtHIT:          0  dtMISS:          0
cpu0_DTLB WRITE        ACCESS:          0  HIT:          0  MISS:          0  iACCESS:          0  iHIT:          0  iMISS:          0  dACCESS:          0  dHIT:          0  dMISS:          0  itACCESS:          0  itHIT:          0  itMISS:          0  dtACCESS:          0  dtHIT:          0  dtMISS:          0
cpu0_DTLB TRANSLATION  ACCESS:          0  HIT:          0  MISS:          0  iACCESS:          0  iHIT:          0  iMISS:          0  dACCESS:          0  dHIT:          0  dMISS:          0  itACCESS:          0  itHIT:          0  itMISS:          0  dtACCESS:          0  dtHIT:          0  dtMISS:          0
cpu0_DTLB PREFETCH  REQUESTED:          0  ISSUED:          0  CROSSED:          0  USEFUL:          0  USELESS:          0
cpu0_DTLB AVERAGE iMISS LATENCY: 0 cycles
cpu0_DTLB AVERAGE dMISS LATENCY: 26.6852 cycles
cpu0_DTLB AVERAGE itMISS LATENCY: 0 cycles
cpu0_DTLB AVERAGE dtMISS LATENCY: 0 cycles
cpu0_DTLB PAGE CROSSINGS (TLB HIT):         0 
cpu0_DTLB PAGE CROSSINGS (TLB MISS):         0 
cpu0_DTLB AVERAGE MISS LATENCY: 26.6852 cycles
cpu0_STLB TOTAL       ACCESS:    2582788  HIT:    2227494  MISS:     355294  iACCESS:     457084  iHIT:     407740  iMISS:      49344  dACCESS:    2125704  dHIT:    1819754  dMISS:     305950  itACCESS:          0  itHIT:          0  itMISS:          0  dtACCESS:          0  dtHIT:          0  dtMISS:          0
cpu0_STLB LOAD         ACCESS:    2582788  HIT:    2227494  MISS:     355294  iACCESS:     457084  iHIT:     407740  iMISS:      49344  dACCESS:    2125704  dHIT:    1819754  dMISS:     305950  itACCESS:          0  itHIT:          0  itMISS:          0  dtACCESS:          0  dtHIT:          0  dtMISS:          0
cpu0_STLB RFO          ACCESS:          0  HIT:          0  MISS:          0  iACCESS:          0  iHIT:          0  iMISS:          0  dACCESS:          0  dHIT:          0  dMISS:          0  itACCESS:          0  itHIT:          0  itMISS:          0  dtACCESS:          0  dtHIT:          0  dtMISS:          0
cpu0_STLB PREFETCH     ACCESS:          0  HIT:          0  MISS:          0  iACCESS:          0  iHIT:          0  iMISS:          0  dACCESS:          0  dHIT:          0  dMISS:          0  itACCESS:          0  itHIT:          0  itMISS:          0  dtACCESS:          0  dtHIT:          0  dtMISS:          0
cpu0_STLB WRITE        ACCESS:          0  HIT:          0  MISS:          0  iACCESS:          0  iHIT:          0  iMISS:          0  dACCESS:          0  dHIT:          0  dMISS:          0  itACCESS:          0  itHIT:          0  itMISS:          0  dtACCESS:          0  dtHIT:          0  dtMISS:          0
cpu0_STLB TRANSLATION  ACCESS:          0  HIT:          0  MISS:          0  iACCESS:          0  iHIT:          0  iMISS:          0  dACCESS:          0  dHIT:          0  dMISS:          0  itACCESS:          0  itHIT:          0  itMISS:          0  dtACCESS:          0  dtHIT:          0  dtMISS:          0
cpu0_STLB PREFETCH  REQUESTED:          0  ISSUED:          0  CROSSED:          0  USEFUL:          0  USELESS:          0
cpu0_STLB AVERAGE iMISS LATENCY: 26.8855 cycles
cpu0_STLB AVERAGE dMISS LATENCY: 228.611 cycles
cpu0_STLB AVERAGE itMISS LATENCY: 0 cycles
cpu0_STLB AVERAGE dtMISS LATENCY: 0 cycles
cpu0_STLB PAGE CROSSINGS (TLB HIT):         0 
cpu0_STLB PAGE CROSSINGS (TLB MISS):         0 
cpu0_STLB AVERAGE MISS LATENCY: 255.497 cycles
cpu0_L1D TOTAL       ACCESS:   44091009  HIT:   38894948  MISS:    5196061  iACCESS:          0  iHIT:          0  iMISS:          0  dACCESS:   43545759  dHIT:   38865589  dMISS:    4680170  itACCESS:      58474  itHIT:       4880  itMISS:      53594  dtACCESS:     486776  dtHIT:      24479  dtMISS:     462297
cpu0_L1D LOAD         ACCESS:   19896221  HIT:   17807486  MISS:    2088735  iACCESS:          0  iHIT:          0  iMISS:          0  dACCESS:   19896221  dHIT:   17807486  dMISS:    2088735  itACCESS:          0  itHIT:          0  itMISS:          0  dtACCESS:          0  dtHIT:          0  dtMISS:          0
cpu0_L1D RFO          ACCESS:          0  HIT:          0  MISS:          0  iACCESS:          0  iHIT:          0  iMISS:          0  dACCESS:          0  dHIT:          0  dMISS:          0  itACCESS:          0  itHIT:          0  itMISS:          0  dtACCESS:          0  dtHIT:          0  dtMISS:          0
cpu0_L1D PREFETCH     ACCESS:   13519318  HIT:   11476972  MISS:    2042346  iACCESS:          0  iHIT:          0  iMISS:          0  dACCESS:   13519318  dHIT:   11476972  dMISS:    2042346  itACCESS:          0  itHIT:          0  itMISS:          0  dtACCESS:          0  dtHIT:          0  dtMISS:          0
cpu0_L1D WRITE        ACCESS:   10130220  HIT:    9581131  MISS:     549089  iACCESS:          0  iHIT:          0  iMISS:          0  dACCESS:   10130220  dHIT:    9581131  dMISS:     549089  itACCESS:          0  itHIT:          0  itMISS:          0  dtACCESS:          0  dtHIT:          0  dtMISS:          0
cpu0_L1D TRANSLATION  ACCESS:     545250  HIT:      29359  MISS:     515891  iACCESS:          0  iHIT:          0  iMISS:          0  dACCESS:          0  dHIT:          0  dMISS:          0  itACCESS:      58474  itHIT:       4880  itMISS:      53594  dtACCESS:     486776  dtHIT:      24479  dtMISS:     462297
cpu0_L1D PREFETCH  REQUESTED:   19896221  ISSUED:   18233115  CROSSED:          0  USEFUL:     358064  USELESS:     922848
cpu0_L1D AVERAGE iMISS LATENCY: 0 cycles
cpu0_L1D AVERAGE dMISS LATENCY: 51.5893 cycles
cpu0_L1D AVERAGE itMISS LATENCY: 1.74231 cycles
cpu0_L1D AVERAGE dtMISS LATENCY: 14.5084 cycles
cpu0_L1D PAGE CROSSINGS (TLB HIT):         0 
cpu0_L1D PAGE CROSSINGS (TLB MISS):         0 
cpu0_L1D AVERAGE MISS LATENCY: 67.84 cycles
cpu0_L2C TOTAL       ACCESS:    8513457  HIT:    4165453  MISS:    4348004  iACCESS:    3728104  iHIT:    2278601  iMISS:    1449503  dACCESS:    4293452  dHIT:    1822469  dMISS:    2470983  itACCESS:      53538  itHIT:       7874  itMISS:      45664  dtACCESS:     438363  dtHIT:      56509  dtMISS:     381854
cpu0_L2C LOAD         ACCESS:    2023241  HIT:     996619  MISS:    1026622  iACCESS:     836254  iHIT:     534030  iMISS:     302224  dACCESS:    1186987  dHIT:     462589  dMISS:     724398  itACCESS:          0  itHIT:          0  itMISS:          0  dtACCESS:          0  dtHIT:          0  dtMISS:          0
cpu0_L2C RFO          ACCESS:     213100  HIT:      84652  MISS:     128448  iACCESS:          0  iHIT:          0  iMISS:          0  dACCESS:     213100  dHIT:      84652  dMISS:     128448  itACCESS:          0  itHIT:          0  itMISS:          0  dtACCESS:          0  dtHIT:          0  dtMISS:          0
cpu0_L2C PREFETCH     ACCESS:    5437864  HIT:    2676383  MISS:    2761481  iACCESS:    2891850  iHIT:    1744571  iMISS:    1147279  dACCESS:    2546014  dHIT:     931812  dMISS:    1614202  itACCESS:          0  itHIT:          0  itMISS:          0  dtACCESS:          0  dtHIT:          0  dtMISS:          0
cpu0_L2C WRITE        ACCESS:     347351  HIT:     343416  MISS:       3935  iACCESS:          0  iHIT:          0  iMISS:          0  dACCESS:     347351  dHIT:     343416  dMISS:       3935  itACCESS:          0  itHIT:          0  itMISS:          0  dtACCESS:          0  dtHIT:          0  dtMISS:          0
cpu0_L2C TRANSLATION  ACCESS:     491901  HIT:      64383  MISS:     427518  iACCESS:          0  iHIT:          0  iMISS:          0  dACCESS:          0  dHIT:          0  dMISS:          0  itACCESS:      53538  itHIT:       7874  itMISS:      45664  dtACCESS:     438363  dtHIT:      56509  dtMISS:     381854
cpu0_L2C PREFETCH  REQUESTED:    1513698  ISSUED:    1513695  CROSSED:          0  USEFUL:     361606  USELESS:     317370
cpu0_L2C AVERAGE iMISS LATENCY: 38.8257 cycles
cpu0_L2C AVERAGE dMISS LATENCY: 76.6032 cycles
cpu0_L2C AVERAGE itMISS LATENCY: 1.96049 cycles
cpu0_L2C AVERAGE dtMISS LATENCY: 16.3369 cycles
cpu0_L2C PAGE CROSSINGS (TLB HIT):         0 
cpu0_L2C PAGE CROSSINGS (TLB MISS):         0 
cpu0_L2C AVERAGE MISS LATENCY: 133.727 cycles
LLC TOTAL       ACCESS:    4349530  HIT:    1438060  MISS:    2911470  iACCESS:    1359404  iHIT:     465068  iMISS:     894336  dACCESS:    2562608  dHIT:     918486  dMISS:    1644122  itACCESS:      45664  itHIT:       3336  itMISS:      42328  dtACCESS:     381854  dtHIT:      51170  dtMISS:     330684
LLC LOAD         ACCESS:    1021945  HIT:     356731  MISS:     665214  iACCESS:     301084  iHIT:     109789  iMISS:     191295  dACCESS:     720861  dHIT:     246942  dMISS:     473919  itACCESS:          0  itHIT:          0  itMISS:          0  dtACCESS:          0  dtHIT:          0  dtMISS:          0
LLC RFO          ACCESS:     128440  HIT:      41963  MISS:      86477  iACCESS:          0  iHIT:          0  iMISS:          0  dACCESS:     128440  dHIT:      41963  dMISS:      86477  itACCESS:          0  itHIT:          0  itMISS:          0  dtACCESS:          0  dtHIT:          0  dtMISS:          0
LLC PREFETCH     ACCESS:    2557711  HIT:     781750  MISS:    1775961  iACCESS:    1058320  iHIT:     355279  iMISS:     703041  dACCESS:    1499391  dHIT:     426471  dMISS:    1072920  itACCESS:          0  itHIT:          0  itMISS:          0  dtACCESS:          0  dtHIT:          0  dtMISS:          0
LLC WRITE        ACCESS:     213916  HIT:     203110  MISS:      10806  iACCESS:          0  iHIT:          0  iMISS:          0  dACCESS:     213916  dHIT:     203110  dMISS:      10806  itACCESS:          0  itHIT:          0  itMISS:          0  dtACCESS:          0  dtHIT:          0  dtMISS:          0
LLC TRANSLATION  ACCESS:     427518  HIT:      54506  MISS:     373012  iACCESS:          0  iHIT:          0  iMISS:          0  dACCESS:          0  dHIT:          0  dMISS:          0  itACCESS:      45664  itHIT:       3336  itMISS:      42328  dtACCESS:     381854  dtHIT:      51170  dtMISS:     330684
LLC PREFETCH  REQUESTED:          0  ISSUED:          0  CROSSED:          0  USEFUL:          0  USELESS:          0
LLC AVERAGE iMISS LATENCY: 48.7998 cycles
LLC AVERAGE dMISS LATENCY: 99.2023 cycles
LLC AVERAGE itMISS LATENCY: 2.61675 cycles
LLC AVERAGE dtMISS LATENCY: 21.8067 cycles
LLC PAGE CROSSINGS (TLB HIT):         0 
LLC PAGE CROSSINGS (TLB MISS):         0 
LLC AVERAGE MISS LATENCY: 172.426 cycles

PageTableWalker TOTAL       ACCESS:     177033  
PageTableWalker AVERAGE LATENCY: 6.82851 cycles
PageTableWalker TOTAL LATENCY: 1208871 cycles

DRAM Statistics
Channel 0
 RQ ROW_BUFFER_HIT:     618353
  ROW_BUFFER_MISS:    2271729
 AVG DBUS CONGESTED CYCLE:    3.64885
 WQ ROW_BUFFER_HIT:      63214
  ROW_BUFFER_MISS:      53483  FULL:          0

