last_page:0x200000000000000
VMEM_RES_CAP:0x100000
PAGE_SIZE:4096
LOG2_PAGE_SIZE:12
LOG2_PAGE_TABLE_SIZE:9
page_table_levels:5
WARNING: physical memory size is smaller than virtual memory size
FDiP enabled with aggresivity 16

*** ChampSim Multicore Out-of-Order Simulator ***

Warmup Instructions: 50000000
Simulation Instructions: 100000000
Number of CPUs: 1
Small page size: 4096
Large page size: 2097152

CPU 0 Bimodal branch predictor
Basic BTB sets: 1024 ways: 8 indirect buffer size: 4096 RAS size: 64
Instruction page size distrubution: 0
Loading instruction page size distribution from /home/bsc/bsc018186/scratch/itp_asplos25_AE/dump/smt_srv12_ap_srv526_ap_1024i.pdst
Data page size distrubution: 0
Loading data page size distribution from /home/bsc/bsc018186/scratch/itp_asplos25_AE/dump/smt_srv12_ap_srv526_ap_1024i.pdst
cpu0_L2C IP-based stride prefetcher
cpu0_L1D next line prefetcher
cpu0_STLB using iTP with max lru@8
cpu0_STLB using iTP with instr@0 and data@2
Init sat counter with 3 bits (max:50).
cpu0_L1I next line prefetcher
Off-chip DRAM Size: 4 GiB Channels: 1 Width: 64-bit Data Rate: 3200 MT/s
Heartbeat CPU 0 instructions: 10000003 cycles: 2500442 heartbeat IPC: 3.9993 cumulative IPC: 3.9993 (Simulation time: 0 hr 0 min 36 sec) 
Heartbeat CPU 0 instructions: 20000002 cycles: 5000671 heartbeat IPC: 3.99964 cumulative IPC: 3.99947 (Simulation time: 0 hr 1 min 14 sec) 
Heartbeat CPU 0 instructions: 30000003 cycles: 7610435 heartbeat IPC: 3.83177 cumulative IPC: 3.94196 (Simulation time: 0 hr 1 min 55 sec) 
Heartbeat CPU 0 instructions: 40000002 cycles: 10152153 heartbeat IPC: 3.93435 cumulative IPC: 3.94006 (Simulation time: 0 hr 2 min 35 sec) 
Heartbeat CPU 0 instructions: 50000002 cycles: 12677010 heartbeat IPC: 3.96063 cumulative IPC: 3.94415 (Simulation time: 0 hr 3 min 16 sec) 
Warmup finished CPU 0 instructions: 50000002 cycles: 12677011 cumulative IPC: 3.94415 (Simulation time: 0 hr 3 min 16 sec) 

Warmup complete CPU 0 instructions: 50000002 cycles: 12677011 (Simulation time: 0 hr 3 min 16 sec) 

Heartbeat CPU 0 instructions: 60000003 cycles: 40673308 heartbeat IPC: 0.357191 cumulative IPC: 0.357191 (Simulation time: 0 hr 4 min 36 sec) 
Heartbeat CPU 0 instructions: 70000004 cycles: 69423890 heartbeat IPC: 0.34782 cumulative IPC: 0.352443 (Simulation time: 0 hr 5 min 57 sec) 
Heartbeat CPU 0 instructions: 80000001 cycles: 97898996 heartbeat IPC: 0.351184 cumulative IPC: 0.352022 (Simulation time: 0 hr 7 min 18 sec) 
Heartbeat CPU 0 instructions: 90000000 cycles: 122632357 heartbeat IPC: 0.404313 cumulative IPC: 0.363785 (Simulation time: 0 hr 8 min 32 sec) 
Heartbeat CPU 0 instructions: 100000000 cycles: 150339295 heartbeat IPC: 0.360921 cumulative IPC: 0.363208 (Simulation time: 0 hr 9 min 52 sec) 
Heartbeat CPU 0 instructions: 110000000 cycles: 178587235 heartbeat IPC: 0.354009 cumulative IPC: 0.361642 (Simulation time: 0 hr 11 min 12 sec) 
Heartbeat CPU 0 instructions: 120000001 cycles: 205488701 heartbeat IPC: 0.371727 cumulative IPC: 0.363049 (Simulation time: 0 hr 12 min 31 sec) 
Heartbeat CPU 0 instructions: 130000002 cycles: 233530142 heartbeat IPC: 0.356616 cumulative IPC: 0.362232 (Simulation time: 0 hr 13 min 51 sec) 
Heartbeat CPU 0 instructions: 140000000 cycles: 261973916 heartbeat IPC: 0.351571 cumulative IPC: 0.361016 (Simulation time: 0 hr 15 min 12 sec) 
Heartbeat CPU 0 instructions: 150000000 cycles: 290503906 heartbeat IPC: 0.350509 cumulative IPC: 0.359937 (Simulation time: 0 hr 16 min 32 sec) 
Simulation finished CPU 0 instructions: 100000002 cycles: 277826897 cumulative IPC: 0.359937 (Simulation time: 0 hr 16 min 32 sec) 

Simulation complete CPU 0 instructions: 100000002 cycles: 277826897 (Simulation time: 0 hr 16 min 32 sec) 


ChampSim completed all CPUs

Saving instructions large page distribution to /home/bsc/bsc018186/scratch/itp_asplos25_AE/dump/smt_srv12_ap_srv526_ap_1024i.pdst...
Saving data large page distribution to /home/bsc/bsc018186/scratch/itp_asplos25_AE/dump/smt_srv12_ap_srv526_ap_1024i.pdst...
=== Simulation ===
CPU 0 runs /gpfs/projects/bsc18/MN4/bsc18/romol/ChampSim/traces/qualcomm_srv/smt_srv12_ap_srv526_ap_1024i.champsimtrace.xz

Region of Interest Statistics

CPU 0 cumulative IPC: 0.359937 instructions: 100000002 cycles: 277826897
CPU 0 Branch Prediction Accuracy: 75.201% MPKI: 44.9013 Average ROB Occupancy at Mispredict: 10.584
Branch type MPKI
BRANCH_DIRECT_JUMP: 1.48248
BRANCH_INDIRECT: 23.0104
BRANCH_CONDITIONAL: 13.0108
BRANCH_DIRECT_CALL: 2.72019
BRANCH_INDIRECT_CALL: 1.11178
BRANCH_RETURN: 3.56577

Instructions large pages: 0
Instructions small pages: 15077
Large page distribution for instructions: 0%

Data large pages: 0
Data small pages: 13250
Large page distribution for data: 0%

cpu0_L1I TOTAL       ACCESS:   39454138  HIT:   30195932  MISS:    9258206  iACCESS:   39454138  iHIT:   30195932  iMISS:    9258206  dACCESS:          0  dHIT:          0  dMISS:          0  itACCESS:          0  itHIT:          0  itMISS:          0  dtACCESS:          0  dtHIT:          0  dtMISS:          0
cpu0_L1I LOAD         ACCESS:   11714009  HIT:    9190615  MISS:    2523394  iACCESS:   11714009  iHIT:    9190615  iMISS:    2523394  dACCESS:          0  dHIT:          0  dMISS:          0  itACCESS:          0  itHIT:          0  itMISS:          0  dtACCESS:          0  dtHIT:          0  dtMISS:          0
cpu0_L1I RFO          ACCESS:          0  HIT:          0  MISS:          0  iACCESS:          0  iHIT:          0  iMISS:          0  dACCESS:          0  dHIT:          0  dMISS:          0  itACCESS:          0  itHIT:          0  itMISS:          0  dtACCESS:          0  dtHIT:          0  dtMISS:          0
cpu0_L1I PREFETCH     ACCESS:   27740129  HIT:   21005317  MISS:    6734812  iACCESS:   27740129  iHIT:   21005317  iMISS:    6734812  dACCESS:          0  dHIT:          0  dMISS:          0  itACCESS:          0  itHIT:          0  itMISS:          0  dtACCESS:          0  dtHIT:          0  dtMISS:          0
cpu0_L1I WRITE        ACCESS:          0  HIT:          0  MISS:          0  iACCESS:          0  iHIT:          0  iMISS:          0  dACCESS:          0  dHIT:          0  dMISS:          0  itACCESS:          0  itHIT:          0  itMISS:          0  dtACCESS:          0  dtHIT:          0  dtMISS:          0
cpu0_L1I TRANSLATION  ACCESS:          0  HIT:          0  MISS:          0  iACCESS:          0  iHIT:          0  iMISS:          0  dACCESS:          0  dHIT:          0  dMISS:          0  itACCESS:          0  itHIT:          0  itMISS:          0  dtACCESS:          0  dtHIT:          0  dtMISS:          0
cpu0_L1I PREFETCH  REQUESTED:   30316795  ISSUED:   30315144  CROSSED:          0  USEFUL:    2221197  USELESS:     778498
cpu0_L1I AVERAGE iMISS LATENCY: 23.9868 cycles
cpu0_L1I AVERAGE dMISS LATENCY: 0 cycles
cpu0_L1I AVERAGE itMISS LATENCY: 0 cycles
cpu0_L1I AVERAGE dtMISS LATENCY: 0 cycles
cpu0_L1I PAGE CROSSINGS (TLB HIT):         0 
cpu0_L1I PAGE CROSSINGS (TLB MISS):         0 
cpu0_L1I AVERAGE MISS LATENCY: 23.9868 cycles
cpu0_ITLB TOTAL       ACCESS:   33263095  HIT:   30986517  MISS:    2276578  iACCESS:   33263095  iHIT:   30986517  iMISS:    2276578  dACCESS:          0  dHIT:          0  dMISS:          0  itACCESS:          0  itHIT:          0  itMISS:          0  dtACCESS:          0  dtHIT:          0  dtMISS:          0
cpu0_ITLB LOAD         ACCESS:   33263095  HIT:   30986517  MISS:    2276578  iACCESS:   33263095  iHIT:   30986517  iMISS:    2276578  dACCESS:          0  dHIT:          0  dMISS:          0  itACCESS:          0  itHIT:          0  itMISS:          0  dtACCESS:          0  dtHIT:          0  dtMISS:          0
cpu0_ITLB RFO          ACCESS:          0  HIT:          0  MISS:          0  iACCESS:          0  iHIT:          0  iMISS:          0  dACCESS:          0  dHIT:          0  dMISS:          0  itACCESS:          0  itHIT:          0  itMISS:          0  dtACCESS:          0  dtHIT:          0  dtMISS:          0
cpu0_ITLB PREFETCH     ACCESS:          0  HIT:          0  MISS:          0  iACCESS:          0  iHIT:          0  iMISS:          0  dACCESS:          0  dHIT:          0  dMISS:          0  itACCESS:          0  itHIT:          0  itMISS:          0  dtACCESS:          0  dtHIT:          0  dtMISS:          0
cpu0_ITLB WRITE        ACCESS:          0  HIT:          0  MISS:          0  iACCESS:          0  iHIT:          0  iMISS:          0  dACCESS:          0  dHIT:          0  dMISS:          0  itACCESS:          0  itHIT:          0  itMISS:          0  dtACCESS:          0  dtHIT:          0  dtMISS:          0
cpu0_ITLB TRANSLATION  ACCESS:          0  HIT:          0  MISS:          0  iACCESS:          0  iHIT:          0  iMISS:          0  dACCESS:          0  dHIT:          0  dMISS:          0  itACCESS:          0  itHIT:          0  itMISS:          0  dtACCESS:          0  dtHIT:          0  dtMISS:          0
cpu0_ITLB PREFETCH  REQUESTED:          0  ISSUED:          0  CROSSED:          0  USEFUL:     401772  USELESS:      85243
cpu0_ITLB AVERAGE iMISS LATENCY: 5.96354 cycles
cpu0_ITLB AVERAGE dMISS LATENCY: 0 cycles
cpu0_ITLB AVERAGE itMISS LATENCY: 0 cycles
cpu0_ITLB AVERAGE dtMISS LATENCY: 0 cycles
cpu0_ITLB PAGE CROSSINGS (TLB HIT):         0 
cpu0_ITLB PAGE CROSSINGS (TLB MISS):         0 
cpu0_ITLB AVERAGE MISS LATENCY: 5.96354 cycles
cpu0_DTLB TOTAL       ACCESS:   29041628  HIT:   25501993  MISS:    3539635  iACCESS:          0  iHIT:          0  iMISS:          0  dACCESS:   29041628  dHIT:   25501993  dMISS:    3539635  itACCESS:          0  itHIT:          0  itMISS:          0  dtACCESS:          0  dtHIT:          0  dtMISS:          0
cpu0_DTLB LOAD         ACCESS:   29041628  HIT:   25501993  MISS:    3539635  iACCESS:          0  iHIT:          0  iMISS:          0  dACCESS:   29041628  dHIT:   25501993  dMISS:    3539635  itACCESS:          0  itHIT:          0  itMISS:          0  dtACCESS:          0  dtHIT:          0  dtMISS:          0
cpu0_DTLB RFO          ACCESS:          0  HIT:          0  MISS:          0  iACCESS:          0  iHIT:          0  iMISS:          0  dACCESS:          0  dHIT:          0  dMISS:          0  itACCESS:          0  itHIT:          0  itMISS:          0  dtACCESS:          0  dtHIT:          0  dtMISS:          0
cpu0_DTLB PREFETCH     ACCESS:          0  HIT:          0  MISS:          0  iACCESS:          0  iHIT:          0  iMISS:          0  dACCESS:          0  dHIT:          0  dMISS:          0  itACCESS:          0  itHIT:          0  itMISS:          0  dtACCESS:          0  dtHIT:          0  dtMISS:          0
cpu0_DTLB WRITE        ACCESS:          0  HIT:          0  MISS:          0  iACCESS:          0  iHIT:          0  iMISS:          0  dACCESS:          0  dHIT:          0  dMISS:          0  itACCESS:          0  itHIT:          0  itMISS:          0  dtACCESS:          0  dtHIT:          0  dtMISS:          0
cpu0_DTLB TRANSLATION  ACCESS:          0  HIT:          0  MISS:          0  iACCESS:          0  iHIT:          0  iMISS:          0  dACCESS:          0  dHIT:          0  dMISS:          0  itACCESS:          0  itHIT:          0  itMISS:          0  dtACCESS:          0  dtHIT:          0  dtMISS:          0
cpu0_DTLB PREFETCH  REQUESTED:          0  ISSUED:          0  CROSSED:          0  USEFUL:          0  USELESS:          0
cpu0_DTLB AVERAGE iMISS LATENCY: 0 cycles
cpu0_DTLB AVERAGE dMISS LATENCY: 19.4292 cycles
cpu0_DTLB AVERAGE itMISS LATENCY: 0 cycles
cpu0_DTLB AVERAGE dtMISS LATENCY: 0 cycles
cpu0_DTLB PAGE CROSSINGS (TLB HIT):         0 
cpu0_DTLB PAGE CROSSINGS (TLB MISS):         0 
cpu0_DTLB AVERAGE MISS LATENCY: 19.4292 cycles
cpu0_STLB TOTAL       ACCESS:    2555323  HIT:    2178710  MISS:     376613  iACCESS:     487027  iHIT:     422516  iMISS:      64511  dACCESS:    2068296  dHIT:    1756194  dMISS:     312102  itACCESS:          0  itHIT:          0  itMISS:          0  dtACCESS:          0  dtHIT:          0  dtMISS:          0
cpu0_STLB LOAD         ACCESS:    2555323  HIT:    2178710  MISS:     376613  iACCESS:     487027  iHIT:     422516  iMISS:      64511  dACCESS:    2068296  dHIT:    1756194  dMISS:     312102  itACCESS:          0  itHIT:          0  itMISS:          0  dtACCESS:          0  dtHIT:          0  dtMISS:          0
cpu0_STLB RFO          ACCESS:          0  HIT:          0  MISS:          0  iACCESS:          0  iHIT:          0  iMISS:          0  dACCESS:          0  dHIT:          0  dMISS:          0  itACCESS:          0  itHIT:          0  itMISS:          0  dtACCESS:          0  dtHIT:          0  dtMISS:          0
cpu0_STLB PREFETCH     ACCESS:          0  HIT:          0  MISS:          0  iACCESS:          0  iHIT:          0  iMISS:          0  dACCESS:          0  dHIT:          0  dMISS:          0  itACCESS:          0  itHIT:          0  itMISS:          0  dtACCESS:          0  dtHIT:          0  dtMISS:          0
cpu0_STLB WRITE        ACCESS:          0  HIT:          0  MISS:          0  iACCESS:          0  iHIT:          0  iMISS:          0  dACCESS:          0  dHIT:          0  dMISS:          0  itACCESS:          0  itHIT:          0  itMISS:          0  dtACCESS:          0  dtHIT:          0  dtMISS:          0
cpu0_STLB TRANSLATION  ACCESS:          0  HIT:          0  MISS:          0  iACCESS:          0  iHIT:          0  iMISS:          0  dACCESS:          0  dHIT:          0  dMISS:          0  itACCESS:          0  itHIT:          0  itMISS:          0  dtACCESS:          0  dtHIT:          0  dtMISS:          0
cpu0_STLB PREFETCH  REQUESTED:          0  ISSUED:          0  CROSSED:          0  USEFUL:          0  USELESS:          0
cpu0_STLB AVERAGE iMISS LATENCY: 25.8746 cycles
cpu0_STLB AVERAGE dMISS LATENCY: 138.339 cycles
cpu0_STLB AVERAGE itMISS LATENCY: 0 cycles
cpu0_STLB AVERAGE dtMISS LATENCY: 0 cycles
cpu0_STLB PAGE CROSSINGS (TLB HIT):         0 
cpu0_STLB PAGE CROSSINGS (TLB MISS):         0 
cpu0_STLB AVERAGE MISS LATENCY: 164.213 cycles
cpu0_L1D TOTAL       ACCESS:   44893917  HIT:   39379846  MISS:    5514071  iACCESS:          0  iHIT:          0  iMISS:          0  dACCESS:   44311960  dHIT:   39348217  dMISS:    4963743  itACCESS:      76349  itHIT:       6157  itMISS:      70192  dtACCESS:     505608  dtHIT:      25472  dtMISS:     480136
cpu0_L1D LOAD         ACCESS:   20206076  HIT:   18009063  MISS:    2197013  iACCESS:          0  iHIT:          0  iMISS:          0  dACCESS:   20206076  dHIT:   18009063  dMISS:    2197013  itACCESS:          0  itHIT:          0  itMISS:          0  dtACCESS:          0  dtHIT:          0  dtMISS:          0
cpu0_L1D RFO          ACCESS:          0  HIT:          0  MISS:          0  iACCESS:          0  iHIT:          0  iMISS:          0  dACCESS:          0  dHIT:          0  dMISS:          0  itACCESS:          0  itHIT:          0  itMISS:          0  dtACCESS:          0  dtHIT:          0  dtMISS:          0
cpu0_L1D PREFETCH     ACCESS:   13851568  HIT:   11679048  MISS:    2172520  iACCESS:          0  iHIT:          0  iMISS:          0  dACCESS:   13851568  dHIT:   11679048  dMISS:    2172520  itACCESS:          0  itHIT:          0  itMISS:          0  dtACCESS:          0  dtHIT:          0  dtMISS:          0
cpu0_L1D WRITE        ACCESS:   10254316  HIT:    9660106  MISS:     594210  iACCESS:          0  iHIT:          0  iMISS:          0  dACCESS:   10254316  dHIT:    9660106  dMISS:     594210  itACCESS:          0  itHIT:          0  itMISS:          0  dtACCESS:          0  dtHIT:          0  dtMISS:          0
cpu0_L1D TRANSLATION  ACCESS:     581957  HIT:      31629  MISS:     550328  iACCESS:          0  iHIT:          0  iMISS:          0  dACCESS:          0  dHIT:          0  dMISS:          0  itACCESS:      76349  itHIT:       6157  itMISS:      70192  dtACCESS:     505608  dtHIT:      25472  dtMISS:     480136
cpu0_L1D PREFETCH  REQUESTED:   20206076  ISSUED:   18566804  CROSSED:          0  USEFUL:     355608  USELESS:     937626
cpu0_L1D AVERAGE iMISS LATENCY: 0 cycles
cpu0_L1D AVERAGE dMISS LATENCY: 52.3228 cycles
cpu0_L1D AVERAGE itMISS LATENCY: 1.63075 cycles
cpu0_L1D AVERAGE dtMISS LATENCY: 8.30923 cycles
cpu0_L1D PAGE CROSSINGS (TLB HIT):         0 
cpu0_L1D PAGE CROSSINGS (TLB MISS):         0 
cpu0_L1D AVERAGE MISS LATENCY: 62.2628 cycles
cpu0_L2C TOTAL       ACCESS:    8640996  HIT:    1522050  MISS:    7118946  iACCESS:    3816586  iHIT:     790509  iMISS:    3026077  dACCESS:    4307436  dHIT:     528019  dMISS:    3779417  itACCESS:      69523  itHIT:      18313  itMISS:      51210  dtACCESS:     447451  dtHIT:     185209  dtMISS:     262242
cpu0_L2C LOAD         ACCESS:    2056878  HIT:     210804  MISS:    1846074  iACCESS:     851990  iHIT:     115847  iMISS:     736143  dACCESS:    1204888  dHIT:      94957  dMISS:    1109931  itACCESS:          0  itHIT:          0  itMISS:          0  dtACCESS:          0  dtHIT:          0  dtMISS:          0
cpu0_L2C RFO          ACCESS:     219556  HIT:      29501  MISS:     190055  iACCESS:          0  iHIT:          0  iMISS:          0  dACCESS:     219556  dHIT:      29501  dMISS:     190055  itACCESS:          0  itHIT:          0  itMISS:          0  dtACCESS:          0  dtHIT:          0  dtMISS:          0
cpu0_L2C PREFETCH     ACCESS:    5506390  HIT:     975858  MISS:    4530532  iACCESS:    2964596  iHIT:     674662  iMISS:    2289934  dACCESS:    2541794  dHIT:     301196  dMISS:    2240598  itACCESS:          0  itHIT:          0  itMISS:          0  dtACCESS:          0  dtHIT:          0  dtMISS:          0
cpu0_L2C WRITE        ACCESS:     341198  HIT:     102365  MISS:     238833  iACCESS:          0  iHIT:          0  iMISS:          0  dACCESS:     341198  dHIT:     102365  dMISS:     238833  itACCESS:          0  itHIT:          0  itMISS:          0  dtACCESS:          0  dtHIT:          0  dtMISS:          0
cpu0_L2C TRANSLATION  ACCESS:     516974  HIT:     203522  MISS:     313452  iACCESS:          0  iHIT:          0  iMISS:          0  dACCESS:          0  dHIT:          0  dMISS:          0  itACCESS:      69523  itHIT:      18313  itMISS:      51210  dtACCESS:     447451  dtHIT:     185209  dtMISS:     262242
cpu0_L2C PREFETCH  REQUESTED:    1478872  ISSUED:    1478871  CROSSED:          0  USEFUL:     403838  USELESS:     490532
cpu0_L2C AVERAGE iMISS LATENCY: 26.5676 cycles
cpu0_L2C AVERAGE dMISS LATENCY: 49.6819 cycles
cpu0_L2C AVERAGE itMISS LATENCY: 1.16779 cycles
cpu0_L2C AVERAGE dtMISS LATENCY: 5.83063 cycles
cpu0_L2C PAGE CROSSINGS (TLB HIT):         0 
cpu0_L2C PAGE CROSSINGS (TLB MISS):         0 
cpu0_L2C AVERAGE MISS LATENCY: 83.2479 cycles
LLC TOTAL       ACCESS:    6936298  HIT:    4228800  MISS:    2707498  iACCESS:    2935362  iHIT:    2088431  iMISS:     846931  dACCESS:    3687484  dHIT:    2060954  dMISS:    1626530  itACCESS:      51210  itHIT:      10145  itMISS:      41065  dtACCESS:     262242  dtHIT:      69270  dtMISS:     192972
LLC LOAD         ACCESS:    1840529  HIT:    1191401  MISS:     649128  iACCESS:     734659  iHIT:     556916  iMISS:     177743  dACCESS:    1105870  dHIT:     634485  dMISS:     471385  itACCESS:          0  itHIT:          0  itMISS:          0  dtACCESS:          0  dtHIT:          0  dtMISS:          0
LLC RFO          ACCESS:     190048  HIT:      92500  MISS:      97548  iACCESS:          0  iHIT:          0  iMISS:          0  dACCESS:     190048  dHIT:      92500  dMISS:      97548  itACCESS:          0  itHIT:          0  itMISS:          0  dtACCESS:          0  dtHIT:          0  dtMISS:          0
LLC PREFETCH     ACCESS:    4326144  HIT:    2607709  MISS:    1718435  iACCESS:    2200703  iHIT:    1531515  iMISS:     669188  dACCESS:    2125441  dHIT:    1076194  dMISS:    1049247  itACCESS:          0  itHIT:          0  itMISS:          0  dtACCESS:          0  dtHIT:          0  dtMISS:          0
LLC WRITE        ACCESS:     266125  HIT:     257775  MISS:       8350  iACCESS:          0  iHIT:          0  iMISS:          0  dACCESS:     266125  dHIT:     257775  dMISS:       8350  itACCESS:          0  itHIT:          0  itMISS:          0  dtACCESS:          0  dtHIT:          0  dtMISS:          0
LLC TRANSLATION  ACCESS:     313452  HIT:      79415  MISS:     234037  iACCESS:          0  iHIT:          0  iMISS:          0  dACCESS:          0  dHIT:          0  dMISS:          0  itACCESS:      51210  itHIT:      10145  itMISS:      41065  dtACCESS:     262242  dtHIT:      69270  dtMISS:     192972
LLC PREFETCH  REQUESTED:          0  ISSUED:          0  CROSSED:          0  USEFUL:          0  USELESS:          0
LLC AVERAGE iMISS LATENCY: 48.8085 cycles
LLC AVERAGE dMISS LATENCY: 106.745 cycles
LLC AVERAGE itMISS LATENCY: 2.69739 cycles
LLC AVERAGE dtMISS LATENCY: 13.4251 cycles
LLC PAGE CROSSINGS (TLB HIT):         0 
LLC PAGE CROSSINGS (TLB MISS):         0 
LLC AVERAGE MISS LATENCY: 171.676 cycles

PageTableWalker TOTAL       ACCESS:     131358  
PageTableWalker AVERAGE LATENCY: 6.20227 cycles
PageTableWalker TOTAL LATENCY: 814717 cycles

DRAM Statistics
Channel 0
 RQ ROW_BUFFER_HIT:     619967
  ROW_BUFFER_MISS:    2068838
 AVG DBUS CONGESTED CYCLE:    3.65305
 WQ ROW_BUFFER_HIT:      64440
  ROW_BUFFER_MISS:      61841  FULL:          0

