last_page:0x200000000000000
VMEM_RES_CAP:0x100000
PAGE_SIZE:4096
LOG2_PAGE_SIZE:12
LOG2_PAGE_TABLE_SIZE:9
page_table_levels:5
WARNING: physical memory size is smaller than virtual memory size
FDiP enabled with aggresivity 16

*** ChampSim Multicore Out-of-Order Simulator ***

Warmup Instructions: 50000000
Simulation Instructions: 100000000
Number of CPUs: 1
Small page size: 4096
Large page size: 2097152

CPU 0 Bimodal branch predictor
Basic BTB sets: 1024 ways: 8 indirect buffer size: 4096 RAS size: 64
Instruction page size distrubution: 0
Loading instruction page size distribution from /home/bsc/bsc018186/scratch/itp_asplos25_AE/dump/smt_srv537_ap_srv298_ap_1024i.pdst
Data page size distrubution: 0
Loading data page size distribution from /home/bsc/bsc018186/scratch/itp_asplos25_AE/dump/smt_srv537_ap_srv298_ap_1024i.pdst
cpu0_L2C IP-based stride prefetcher
cpu0_L2C is using PTP replacement policy:
	TLB_STRESS_THRESHOLD:0
	PTE_EVICTION_RATIO:0
cpu0_L1D next line prefetcher
CHiRPing...
cpu0_L1I next line prefetcher
Off-chip DRAM Size: 4 GiB Channels: 1 Width: 64-bit Data Rate: 3200 MT/s
Heartbeat CPU 0 instructions: 10000001 cycles: 2500441 heartbeat IPC: 3.9993 cumulative IPC: 3.9993 (Simulation time: 0 hr 0 min 38 sec) 
Heartbeat CPU 0 instructions: 20000002 cycles: 5000718 heartbeat IPC: 3.99956 cumulative IPC: 3.99943 (Simulation time: 0 hr 1 min 18 sec) 
Heartbeat CPU 0 instructions: 30000000 cycles: 7500947 heartbeat IPC: 3.99964 cumulative IPC: 3.9995 (Simulation time: 0 hr 1 min 59 sec) 
Heartbeat CPU 0 instructions: 40000001 cycles: 10001168 heartbeat IPC: 3.99965 cumulative IPC: 3.99954 (Simulation time: 0 hr 2 min 41 sec) 
Heartbeat CPU 0 instructions: 50000003 cycles: 12501456 heartbeat IPC: 3.99955 cumulative IPC: 3.99954 (Simulation time: 0 hr 3 min 23 sec) 
Warmup finished CPU 0 instructions: 50000003 cycles: 12501457 cumulative IPC: 3.99954 (Simulation time: 0 hr 3 min 23 sec) 

Warmup complete CPU 0 instructions: 50000003 cycles: 12501457 (Simulation time: 0 hr 3 min 23 sec) 

Heartbeat CPU 0 instructions: 60000003 cycles: 40418603 heartbeat IPC: 0.358203 cumulative IPC: 0.358203 (Simulation time: 0 hr 4 min 49 sec) 
Heartbeat CPU 0 instructions: 70000001 cycles: 67890069 heartbeat IPC: 0.364014 cumulative IPC: 0.361086 (Simulation time: 0 hr 6 min 17 sec) 
Heartbeat CPU 0 instructions: 80000001 cycles: 94814948 heartbeat IPC: 0.371404 cumulative IPC: 0.364461 (Simulation time: 0 hr 7 min 46 sec) 
Heartbeat CPU 0 instructions: 90000000 cycles: 122733217 heartbeat IPC: 0.358189 cumulative IPC: 0.362872 (Simulation time: 0 hr 9 min 15 sec) 
Heartbeat CPU 0 instructions: 100000003 cycles: 150198522 heartbeat IPC: 0.364096 cumulative IPC: 0.363116 (Simulation time: 0 hr 10 min 42 sec) 
Heartbeat CPU 0 instructions: 110000003 cycles: 179668247 heartbeat IPC: 0.339332 cumulative IPC: 0.358923 (Simulation time: 0 hr 12 min 12 sec) 
Heartbeat CPU 0 instructions: 120000000 cycles: 207083679 heartbeat IPC: 0.364758 cumulative IPC: 0.359746 (Simulation time: 0 hr 13 min 36 sec) 
Heartbeat CPU 0 instructions: 130000003 cycles: 235952352 heartbeat IPC: 0.346397 cumulative IPC: 0.358021 (Simulation time: 0 hr 15 min 0 sec) 
Heartbeat CPU 0 instructions: 140000003 cycles: 264496332 heartbeat IPC: 0.350337 cumulative IPC: 0.357151 (Simulation time: 0 hr 16 min 23 sec) 
Heartbeat CPU 0 instructions: 150000003 cycles: 293322255 heartbeat IPC: 0.34691 cumulative IPC: 0.356099 (Simulation time: 0 hr 17 min 46 sec) 
Simulation finished CPU 0 instructions: 100000000 cycles: 280820799 cumulative IPC: 0.356099 (Simulation time: 0 hr 17 min 46 sec) 

Simulation complete CPU 0 instructions: 100000000 cycles: 280820799 (Simulation time: 0 hr 17 min 46 sec) 


ChampSim completed all CPUs

Saving instructions large page distribution to /home/bsc/bsc018186/scratch/itp_asplos25_AE/dump/smt_srv537_ap_srv298_ap_1024i.pdst...
Saving data large page distribution to /home/bsc/bsc018186/scratch/itp_asplos25_AE/dump/smt_srv537_ap_srv298_ap_1024i.pdst...
=== Simulation ===
CPU 0 runs /gpfs/projects/bsc18/MN4/bsc18/romol/ChampSim/traces/qualcomm_srv/smt_srv537_ap_srv298_ap_1024i.champsimtrace.xz

Region of Interest Statistics

CPU 0 cumulative IPC: 0.356099 instructions: 100000000 cycles: 280820799
CPU 0 Branch Prediction Accuracy: 76.2198% MPKI: 42.8862 Average ROB Occupancy at Mispredict: 11.357
Branch type MPKI
BRANCH_DIRECT_JUMP: 1.26172
BRANCH_INDIRECT: 22.4047
BRANCH_CONDITIONAL: 12.4369
BRANCH_DIRECT_CALL: 2.43831
BRANCH_INDIRECT_CALL: 0.944601
BRANCH_RETURN: 3.40007

Instructions large pages: 0
Instructions small pages: 13840
Large page distribution for instructions: 0%

Data large pages: 0
Data small pages: 12554
Large page distribution for data: 0%

cpu0_L1I TOTAL       ACCESS:   39059098  HIT:   30360393  MISS:    8698705  iACCESS:   39059098  iHIT:   30360393  iMISS:    8698705  dACCESS:          0  dHIT:          0  dMISS:          0  itACCESS:          0  itHIT:          0  itMISS:          0  dtACCESS:          0  dtHIT:          0  dtMISS:          0
cpu0_L1I LOAD         ACCESS:   11735816  HIT:    9352066  MISS:    2383750  iACCESS:   11735816  iHIT:    9352066  iMISS:    2383750  dACCESS:          0  dHIT:          0  dMISS:          0  itACCESS:          0  itHIT:          0  itMISS:          0  dtACCESS:          0  dtHIT:          0  dtMISS:          0
cpu0_L1I RFO          ACCESS:          0  HIT:          0  MISS:          0  iACCESS:          0  iHIT:          0  iMISS:          0  dACCESS:          0  dHIT:          0  dMISS:          0  itACCESS:          0  itHIT:          0  itMISS:          0  dtACCESS:          0  dtHIT:          0  dtMISS:          0
cpu0_L1I PREFETCH     ACCESS:   27323282  HIT:   21008327  MISS:    6314955  iACCESS:   27323282  iHIT:   21008327  iMISS:    6314955  dACCESS:          0  dHIT:          0  dMISS:          0  itACCESS:          0  itHIT:          0  itMISS:          0  dtACCESS:          0  dtHIT:          0  dtMISS:          0
cpu0_L1I WRITE        ACCESS:          0  HIT:          0  MISS:          0  iACCESS:          0  iHIT:          0  iMISS:          0  dACCESS:          0  dHIT:          0  dMISS:          0  itACCESS:          0  itHIT:          0  itMISS:          0  dtACCESS:          0  dtHIT:          0  dtMISS:          0
cpu0_L1I TRANSLATION  ACCESS:          0  HIT:          0  MISS:          0  iACCESS:          0  iHIT:          0  iMISS:          0  dACCESS:          0  dHIT:          0  dMISS:          0  itACCESS:          0  itHIT:          0  itMISS:          0  dtACCESS:          0  dtHIT:          0  dtMISS:          0
cpu0_L1I PREFETCH  REQUESTED:   30192076  ISSUED:   30192062  CROSSED:          0  USEFUL:    2194349  USELESS:     757160
cpu0_L1I AVERAGE iMISS LATENCY: 22.5082 cycles
cpu0_L1I AVERAGE dMISS LATENCY: 0 cycles
cpu0_L1I AVERAGE itMISS LATENCY: 0 cycles
cpu0_L1I AVERAGE dtMISS LATENCY: 0 cycles
cpu0_L1I PAGE CROSSINGS (TLB HIT):         0 
cpu0_L1I PAGE CROSSINGS (TLB MISS):         0 
cpu0_L1I AVERAGE MISS LATENCY: 22.5082 cycles
cpu0_ITLB TOTAL       ACCESS:   32968025  HIT:   30746565  MISS:    2221460  iACCESS:   32968025  iHIT:   30746565  iMISS:    2221460  dACCESS:          0  dHIT:          0  dMISS:          0  itACCESS:          0  itHIT:          0  itMISS:          0  dtACCESS:          0  dtHIT:          0  dtMISS:          0
cpu0_ITLB LOAD         ACCESS:   32968025  HIT:   30746565  MISS:    2221460  iACCESS:   32968025  iHIT:   30746565  iMISS:    2221460  dACCESS:          0  dHIT:          0  dMISS:          0  itACCESS:          0  itHIT:          0  itMISS:          0  dtACCESS:          0  dtHIT:          0  dtMISS:          0
cpu0_ITLB RFO          ACCESS:          0  HIT:          0  MISS:          0  iACCESS:          0  iHIT:          0  iMISS:          0  dACCESS:          0  dHIT:          0  dMISS:          0  itACCESS:          0  itHIT:          0  itMISS:          0  dtACCESS:          0  dtHIT:          0  dtMISS:          0
cpu0_ITLB PREFETCH     ACCESS:          0  HIT:          0  MISS:          0  iACCESS:          0  iHIT:          0  iMISS:          0  dACCESS:          0  dHIT:          0  dMISS:          0  itACCESS:          0  itHIT:          0  itMISS:          0  dtACCESS:          0  dtHIT:          0  dtMISS:          0
cpu0_ITLB WRITE        ACCESS:          0  HIT:          0  MISS:          0  iACCESS:          0  iHIT:          0  iMISS:          0  dACCESS:          0  dHIT:          0  dMISS:          0  itACCESS:          0  itHIT:          0  itMISS:          0  dtACCESS:          0  dtHIT:          0  dtMISS:          0
cpu0_ITLB TRANSLATION  ACCESS:          0  HIT:          0  MISS:          0  iACCESS:          0  iHIT:          0  iMISS:          0  dACCESS:          0  dHIT:          0  dMISS:          0  itACCESS:          0  itHIT:          0  itMISS:          0  dtACCESS:          0  dtHIT:          0  dtMISS:          0
cpu0_ITLB PREFETCH  REQUESTED:          0  ISSUED:          0  CROSSED:          0  USEFUL:     384523  USELESS:      77861
cpu0_ITLB AVERAGE iMISS LATENCY: 9.20483 cycles
cpu0_ITLB AVERAGE dMISS LATENCY: 0 cycles
cpu0_ITLB AVERAGE itMISS LATENCY: 0 cycles
cpu0_ITLB AVERAGE dtMISS LATENCY: 0 cycles
cpu0_ITLB PAGE CROSSINGS (TLB HIT):         0 
cpu0_ITLB PAGE CROSSINGS (TLB MISS):         0 
cpu0_ITLB AVERAGE MISS LATENCY: 9.20483 cycles
cpu0_DTLB TOTAL       ACCESS:   28754410  HIT:   25278073  MISS:    3476337  iACCESS:          0  iHIT:          0  iMISS:          0  dACCESS:   28754410  dHIT:   25278073  dMISS:    3476337  itACCESS:          0  itHIT:          0  itMISS:          0  dtACCESS:          0  dtHIT:          0  dtMISS:          0
cpu0_DTLB LOAD         ACCESS:   28754410  HIT:   25278073  MISS:    3476337  iACCESS:          0  iHIT:          0  iMISS:          0  dACCESS:   28754410  dHIT:   25278073  dMISS:    3476337  itACCESS:          0  itHIT:          0  itMISS:          0  dtACCESS:          0  dtHIT:          0  dtMISS:          0
cpu0_DTLB RFO          ACCESS:          0  HIT:          0  MISS:          0  iACCESS:          0  iHIT:          0  iMISS:          0  dACCESS:          0  dHIT:          0  dMISS:          0  itACCESS:          0  itHIT:          0  itMISS:          0  dtACCESS:          0  dtHIT:          0  dtMISS:          0
cpu0_DTLB PREFETCH     ACCESS:          0  HIT:          0  MISS:          0  iACCESS:          0  iHIT:          0  iMISS:          0  dACCESS:          0  dHIT:          0  dMISS:          0  itACCESS:          0  itHIT:          0  itMISS:          0  dtACCESS:          0  dtHIT:          0  dtMISS:          0
cpu0_DTLB WRITE        ACCESS:          0  HIT:          0  MISS:          0  iACCESS:          0  iHIT:          0  iMISS:          0  dACCESS:          0  dHIT:          0  dMISS:          0  itACCESS:          0  itHIT:          0  itMISS:          0  dtACCESS:          0  dtHIT:          0  dtMISS:          0
cpu0_DTLB TRANSLATION  ACCESS:          0  HIT:          0  MISS:          0  iACCESS:          0  iHIT:          0  iMISS:          0  dACCESS:          0  dHIT:          0  dMISS:          0  itACCESS:          0  itHIT:          0  itMISS:          0  dtACCESS:          0  dtHIT:          0  dtMISS:          0
cpu0_DTLB PREFETCH  REQUESTED:          0  ISSUED:          0  CROSSED:          0  USEFUL:          0  USELESS:          0
cpu0_DTLB AVERAGE iMISS LATENCY: 0 cycles
cpu0_DTLB AVERAGE dMISS LATENCY: 24.0641 cycles
cpu0_DTLB AVERAGE itMISS LATENCY: 0 cycles
cpu0_DTLB AVERAGE dtMISS LATENCY: 0 cycles
cpu0_DTLB PAGE CROSSINGS (TLB HIT):         0 
cpu0_DTLB PAGE CROSSINGS (TLB MISS):         0 
cpu0_DTLB AVERAGE MISS LATENCY: 24.0641 cycles
cpu0_STLB TOTAL       ACCESS:    2430793  HIT:    2089474  MISS:     341319  iACCESS:     462385  iHIT:     358065  iMISS:     104320  dACCESS:    1968408  dHIT:    1731409  dMISS:     236999  itACCESS:          0  itHIT:          0  itMISS:          0  dtACCESS:          0  dtHIT:          0  dtMISS:          0
cpu0_STLB LOAD         ACCESS:    2430793  HIT:    2089474  MISS:     341319  iACCESS:     462385  iHIT:     358065  iMISS:     104320  dACCESS:    1968408  dHIT:    1731409  dMISS:     236999  itACCESS:          0  itHIT:          0  itMISS:          0  dtACCESS:          0  dtHIT:          0  dtMISS:          0
cpu0_STLB RFO          ACCESS:          0  HIT:          0  MISS:          0  iACCESS:          0  iHIT:          0  iMISS:          0  dACCESS:          0  dHIT:          0  dMISS:          0  itACCESS:          0  itHIT:          0  itMISS:          0  dtACCESS:          0  dtHIT:          0  dtMISS:          0
cpu0_STLB PREFETCH     ACCESS:          0  HIT:          0  MISS:          0  iACCESS:          0  iHIT:          0  iMISS:          0  dACCESS:          0  dHIT:          0  dMISS:          0  itACCESS:          0  itHIT:          0  itMISS:          0  dtACCESS:          0  dtHIT:          0  dtMISS:          0
cpu0_STLB WRITE        ACCESS:          0  HIT:          0  MISS:          0  iACCESS:          0  iHIT:          0  iMISS:          0  dACCESS:          0  dHIT:          0  dMISS:          0  itACCESS:          0  itHIT:          0  itMISS:          0  dtACCESS:          0  dtHIT:          0  dtMISS:          0
cpu0_STLB TRANSLATION  ACCESS:          0  HIT:          0  MISS:          0  iACCESS:          0  iHIT:          0  iMISS:          0  dACCESS:          0  dHIT:          0  dMISS:          0  itACCESS:          0  itHIT:          0  itMISS:          0  dtACCESS:          0  dtHIT:          0  dtMISS:          0
cpu0_STLB PREFETCH  REQUESTED:          0  ISSUED:          0  CROSSED:          0  USEFUL:          0  USELESS:          0
cpu0_STLB AVERAGE iMISS LATENCY: 49.099 cycles
cpu0_STLB AVERAGE dMISS LATENCY: 198.751 cycles
cpu0_STLB AVERAGE itMISS LATENCY: 0 cycles
cpu0_STLB AVERAGE dtMISS LATENCY: 0 cycles
cpu0_STLB PAGE CROSSINGS (TLB HIT):         0 
cpu0_STLB PAGE CROSSINGS (TLB MISS):         0 
cpu0_STLB AVERAGE MISS LATENCY: 247.85 cycles
cpu0_L1D TOTAL       ACCESS:   44320832  HIT:   39072795  MISS:    5248037  iACCESS:          0  iHIT:          0  iMISS:          0  dACCESS:   43808946  dHIT:   39039471  dMISS:    4769475  itACCESS:     116245  itHIT:      15348  itMISS:     100897  dtACCESS:     395641  dtHIT:      17976  dtMISS:     377665
cpu0_L1D LOAD         ACCESS:   19971425  HIT:   17829812  MISS:    2141613  iACCESS:          0  iHIT:          0  iMISS:          0  dACCESS:   19971425  dHIT:   17829812  dMISS:    2141613  itACCESS:          0  itHIT:          0  itMISS:          0  dtACCESS:          0  dtHIT:          0  dtMISS:          0
cpu0_L1D RFO          ACCESS:          0  HIT:          0  MISS:          0  iACCESS:          0  iHIT:          0  iMISS:          0  dACCESS:          0  dHIT:          0  dMISS:          0  itACCESS:          0  itHIT:          0  itMISS:          0  dtACCESS:          0  dtHIT:          0  dtMISS:          0
cpu0_L1D PREFETCH     ACCESS:   13648862  HIT:   11560801  MISS:    2088061  iACCESS:          0  iHIT:          0  iMISS:          0  dACCESS:   13648862  dHIT:   11560801  dMISS:    2088061  itACCESS:          0  itHIT:          0  itMISS:          0  dtACCESS:          0  dtHIT:          0  dtMISS:          0
cpu0_L1D WRITE        ACCESS:   10188659  HIT:    9648858  MISS:     539801  iACCESS:          0  iHIT:          0  iMISS:          0  dACCESS:   10188659  dHIT:    9648858  dMISS:     539801  itACCESS:          0  itHIT:          0  itMISS:          0  dtACCESS:          0  dtHIT:          0  dtMISS:          0
cpu0_L1D TRANSLATION  ACCESS:     511886  HIT:      33324  MISS:     478562  iACCESS:          0  iHIT:          0  iMISS:          0  dACCESS:          0  dHIT:          0  dMISS:          0  itACCESS:     116245  itHIT:      15348  itMISS:     100897  dtACCESS:     395641  dtHIT:      17976  dtMISS:     377665
cpu0_L1D PREFETCH  REQUESTED:   19971425  ISSUED:   18233375  CROSSED:          0  USEFUL:     369750  USELESS:     906973
cpu0_L1D AVERAGE iMISS LATENCY: 0 cycles
cpu0_L1D AVERAGE dMISS LATENCY: 49.6277 cycles
cpu0_L1D AVERAGE itMISS LATENCY: 3.00535 cycles
cpu0_L1D AVERAGE dtMISS LATENCY: 11.9334 cycles
cpu0_L1D PAGE CROSSINGS (TLB HIT):         0 
cpu0_L1D PAGE CROSSINGS (TLB MISS):         0 
cpu0_L1D AVERAGE MISS LATENCY: 64.5664 cycles
cpu0_L2C TOTAL       ACCESS:    8491661  HIT:    4275916  MISS:    4215745  iACCESS:    3765025  iHIT:    2358002  iMISS:    1407023  dACCESS:    4282756  dHIT:    1863493  dMISS:    2419263  itACCESS:     100710  itHIT:      18918  itMISS:      81792  dtACCESS:     343170  dtHIT:      35503  dtMISS:     307667
cpu0_L2C LOAD         ACCESS:    2049639  HIT:    1047386  MISS:    1002253  iACCESS:     852581  iHIT:     560938  iMISS:     291643  dACCESS:    1197058  dHIT:     486448  dMISS:     710610  itACCESS:          0  itHIT:          0  itMISS:          0  dtACCESS:          0  dtHIT:          0  dtMISS:          0
cpu0_L2C RFO          ACCESS:     208341  HIT:      80886  MISS:     127455  iACCESS:          0  iHIT:          0  iMISS:          0  dACCESS:     208341  dHIT:      80886  dMISS:     127455  itACCESS:          0  itHIT:          0  itMISS:          0  dtACCESS:          0  dtHIT:          0  dtMISS:          0
cpu0_L2C PREFETCH     ACCESS:    5439601  HIT:    2747107  MISS:    2692494  iACCESS:    2912444  iHIT:    1797064  iMISS:    1115380  dACCESS:    2527157  dHIT:     950043  dMISS:    1577114  itACCESS:          0  itHIT:          0  itMISS:          0  dtACCESS:          0  dtHIT:          0  dtMISS:          0
cpu0_L2C WRITE        ACCESS:     350200  HIT:     346116  MISS:       4084  iACCESS:          0  iHIT:          0  iMISS:          0  dACCESS:     350200  dHIT:     346116  dMISS:       4084  itACCESS:          0  itHIT:          0  itMISS:          0  dtACCESS:          0  dtHIT:          0  dtMISS:          0
cpu0_L2C TRANSLATION  ACCESS:     443880  HIT:      54421  MISS:     389459  iACCESS:          0  iHIT:          0  iMISS:          0  dACCESS:          0  dHIT:          0  dMISS:          0  itACCESS:     100710  itHIT:      18918  itMISS:      81792  dtACCESS:     343170  dtHIT:      35503  dtMISS:     307667
cpu0_L2C PREFETCH  REQUESTED:    1494549  ISSUED:    1494549  CROSSED:          0  USEFUL:     354223  USELESS:     309837
cpu0_L2C AVERAGE iMISS LATENCY: 38.7913 cycles
cpu0_L2C AVERAGE dMISS LATENCY: 76.8718 cycles
cpu0_L2C AVERAGE itMISS LATENCY: 3.50619 cycles
cpu0_L2C AVERAGE dtMISS LATENCY: 14.0451 cycles
cpu0_L2C PAGE CROSSINGS (TLB HIT):         0 
cpu0_L2C PAGE CROSSINGS (TLB MISS):         0 
cpu0_L2C AVERAGE MISS LATENCY: 133.215 cycles
LLC TOTAL       ACCESS:    4215520  HIT:    1377363  MISS:    2838157  iACCESS:    1317889  iHIT:     442851  iMISS:     875038  dACCESS:    2508172  dHIT:     894820  dMISS:    1613352  itACCESS:      81792  itHIT:       8113  itMISS:      73679  dtACCESS:     307667  dtHIT:      31579  dtMISS:     276088
LLC LOAD         ACCESS:     996933  HIT:     347201  MISS:     649732  iACCESS:     290425  iHIT:     104483  iMISS:     185942  dACCESS:     706508  dHIT:     242718  dMISS:     463790  itACCESS:          0  itHIT:          0  itMISS:          0  dtACCESS:          0  dtHIT:          0  dtMISS:          0
LLC RFO          ACCESS:     127447  HIT:      42984  MISS:      84463  iACCESS:          0  iHIT:          0  iMISS:          0  dACCESS:     127447  dHIT:      42984  dMISS:      84463  itACCESS:          0  itHIT:          0  itMISS:          0  dtACCESS:          0  dtHIT:          0  dtMISS:          0
LLC PREFETCH     ACCESS:    2489859  HIT:     746139  MISS:    1743720  iACCESS:    1027464  iHIT:     338368  iMISS:     689096  dACCESS:    1462395  dHIT:     407771  dMISS:    1054624  itACCESS:          0  itHIT:          0  itMISS:          0  dtACCESS:          0  dtHIT:          0  dtMISS:          0
LLC WRITE        ACCESS:     211822  HIT:     201347  MISS:      10475  iACCESS:          0  iHIT:          0  iMISS:          0  dACCESS:     211822  dHIT:     201347  dMISS:      10475  itACCESS:          0  itHIT:          0  itMISS:          0  dtACCESS:          0  dtHIT:          0  dtMISS:          0
LLC TRANSLATION  ACCESS:     389459  HIT:      39692  MISS:     349767  iACCESS:          0  iHIT:          0  iMISS:          0  dACCESS:          0  dHIT:          0  dMISS:          0  itACCESS:      81792  itHIT:       8113  itMISS:      73679  dtACCESS:     307667  dtHIT:      31579  dtMISS:     276088
LLC PREFETCH  REQUESTED:          0  ISSUED:          0  CROSSED:          0  USEFUL:          0  USELESS:          0
LLC AVERAGE iMISS LATENCY: 48.4777 cycles
LLC AVERAGE dMISS LATENCY: 98.8467 cycles
LLC AVERAGE itMISS LATENCY: 4.63709 cycles
LLC AVERAGE dtMISS LATENCY: 18.719 cycles
LLC PAGE CROSSINGS (TLB HIT):         0 
LLC PAGE CROSSINGS (TLB MISS):         0 
LLC AVERAGE MISS LATENCY: 170.681 cycles

PageTableWalker TOTAL       ACCESS:     169945  
PageTableWalker AVERAGE LATENCY: 6.53534 cycles
PageTableWalker TOTAL LATENCY: 1110647 cycles

DRAM Statistics
Channel 0
 RQ ROW_BUFFER_HIT:     615700
  ROW_BUFFER_MISS:    2201674
 AVG DBUS CONGESTED CYCLE:    3.64852
 WQ ROW_BUFFER_HIT:      60881
  ROW_BUFFER_MISS:      53568  FULL:          0

