last_page:0x200000000000000
VMEM_RES_CAP:0x100000
PAGE_SIZE:4096
LOG2_PAGE_SIZE:12
LOG2_PAGE_TABLE_SIZE:9
page_table_levels:5
WARNING: physical memory size is smaller than virtual memory size
FDiP enabled with aggresivity 16

*** ChampSim Multicore Out-of-Order Simulator ***

Warmup Instructions: 50000000
Simulation Instructions: 100000000
Number of CPUs: 1
Small page size: 4096
Large page size: 2097152

CPU 0 Bimodal branch predictor
Basic BTB sets: 1024 ways: 8 indirect buffer size: 4096 RAS size: 64
Instruction page size distrubution: 0
Loading instruction page size distribution from /home/bsc/bsc018186/scratch/itp_asplos25_AE/dump/smt_srv12_ap_srv582_ap_1024i.pdst
Data page size distrubution: 0
Loading data page size distribution from /home/bsc/bsc018186/scratch/itp_asplos25_AE/dump/smt_srv12_ap_srv582_ap_1024i.pdst
cpu0_L2C IP-based stride prefetcher
cpu0_L2C is using PTP replacement policy:
	TLB_STRESS_THRESHOLD:0
	PTE_EVICTION_RATIO:0
cpu0_L1D next line prefetcher
CHiRPing...
cpu0_L1I next line prefetcher
Off-chip DRAM Size: 4 GiB Channels: 1 Width: 64-bit Data Rate: 3200 MT/s
Heartbeat CPU 0 instructions: 10000000 cycles: 2500370 heartbeat IPC: 3.99941 cumulative IPC: 3.99941 (Simulation time: 0 hr 0 min 41 sec) 
Heartbeat CPU 0 instructions: 20000001 cycles: 5000661 heartbeat IPC: 3.99954 cumulative IPC: 3.99948 (Simulation time: 0 hr 1 min 28 sec) 
Heartbeat CPU 0 instructions: 30000002 cycles: 7501438 heartbeat IPC: 3.99876 cumulative IPC: 3.99924 (Simulation time: 0 hr 2 min 18 sec) 
Heartbeat CPU 0 instructions: 40000000 cycles: 10001756 heartbeat IPC: 3.9995 cumulative IPC: 3.9993 (Simulation time: 0 hr 3 min 7 sec) 
Heartbeat CPU 0 instructions: 50000001 cycles: 12502091 heartbeat IPC: 3.99947 cumulative IPC: 3.99934 (Simulation time: 0 hr 3 min 56 sec) 
Warmup finished CPU 0 instructions: 50000001 cycles: 12502092 cumulative IPC: 3.99934 (Simulation time: 0 hr 3 min 56 sec) 

Warmup complete CPU 0 instructions: 50000001 cycles: 12502092 (Simulation time: 0 hr 3 min 56 sec) 

Heartbeat CPU 0 instructions: 60000002 cycles: 44208006 heartbeat IPC: 0.315399 cumulative IPC: 0.315399 (Simulation time: 0 hr 5 min 35 sec) 
Heartbeat CPU 0 instructions: 70000000 cycles: 75698057 heartbeat IPC: 0.317561 cumulative IPC: 0.316476 (Simulation time: 0 hr 7 min 15 sec) 
Heartbeat CPU 0 instructions: 80000001 cycles: 106538706 heartbeat IPC: 0.324248 cumulative IPC: 0.319025 (Simulation time: 0 hr 8 min 53 sec) 
Heartbeat CPU 0 instructions: 90000000 cycles: 134503293 heartbeat IPC: 0.357596 cumulative IPC: 0.327866 (Simulation time: 0 hr 10 min 27 sec) 
Heartbeat CPU 0 instructions: 100000000 cycles: 165819472 heartbeat IPC: 0.319324 cumulative IPC: 0.326121 (Simulation time: 0 hr 12 min 6 sec) 
Heartbeat CPU 0 instructions: 110000004 cycles: 196164431 heartbeat IPC: 0.329545 cumulative IPC: 0.326687 (Simulation time: 0 hr 13 min 45 sec) 
Heartbeat CPU 0 instructions: 120000002 cycles: 226786264 heartbeat IPC: 0.326565 cumulative IPC: 0.32667 (Simulation time: 0 hr 15 min 23 sec) 
Heartbeat CPU 0 instructions: 130000000 cycles: 258097615 heartbeat IPC: 0.319373 cumulative IPC: 0.325739 (Simulation time: 0 hr 17 min 3 sec) 
Heartbeat CPU 0 instructions: 140000000 cycles: 289346245 heartbeat IPC: 0.320015 cumulative IPC: 0.325093 (Simulation time: 0 hr 18 min 41 sec) 
Heartbeat CPU 0 instructions: 150000002 cycles: 319918482 heartbeat IPC: 0.327095 cumulative IPC: 0.325292 (Simulation time: 0 hr 20 min 20 sec) 
Simulation finished CPU 0 instructions: 100000001 cycles: 307416391 cumulative IPC: 0.325292 (Simulation time: 0 hr 20 min 20 sec) 

Simulation complete CPU 0 instructions: 100000001 cycles: 307416391 (Simulation time: 0 hr 20 min 20 sec) 


ChampSim completed all CPUs

Saving instructions large page distribution to /home/bsc/bsc018186/scratch/itp_asplos25_AE/dump/smt_srv12_ap_srv582_ap_1024i.pdst...
Saving data large page distribution to /home/bsc/bsc018186/scratch/itp_asplos25_AE/dump/smt_srv12_ap_srv582_ap_1024i.pdst...
=== Simulation ===
CPU 0 runs /gpfs/projects/bsc18/MN4/bsc18/romol/ChampSim/traces/qualcomm_srv/smt_srv12_ap_srv582_ap_1024i.champsimtrace.xz

Region of Interest Statistics

CPU 0 cumulative IPC: 0.325292 instructions: 100000001 cycles: 307416391
CPU 0 Branch Prediction Accuracy: 74.5831% MPKI: 46.0686 Average ROB Occupancy at Mispredict: 10.466
Branch type MPKI
BRANCH_DIRECT_JUMP: 1.46673
BRANCH_INDIRECT: 23.5042
BRANCH_CONDITIONAL: 13.5504
BRANCH_DIRECT_CALL: 2.81825
BRANCH_INDIRECT_CALL: 1.14927
BRANCH_RETURN: 3.57978

Instructions large pages: 0
Instructions small pages: 11403
Large page distribution for instructions: 0%

Data large pages: 0
Data small pages: 9565
Large page distribution for data: 0%

cpu0_L1I TOTAL       ACCESS:   39380879  HIT:   30641505  MISS:    8739374  iACCESS:   39380879  iHIT:   30641505  iMISS:    8739374  dACCESS:          0  dHIT:          0  dMISS:          0  itACCESS:          0  itHIT:          0  itMISS:          0  dtACCESS:          0  dtHIT:          0  dtMISS:          0
cpu0_L1I LOAD         ACCESS:   11729995  HIT:    9357620  MISS:    2372375  iACCESS:   11729995  iHIT:    9357620  iMISS:    2372375  dACCESS:          0  dHIT:          0  dMISS:          0  itACCESS:          0  itHIT:          0  itMISS:          0  dtACCESS:          0  dtHIT:          0  dtMISS:          0
cpu0_L1I RFO          ACCESS:          0  HIT:          0  MISS:          0  iACCESS:          0  iHIT:          0  iMISS:          0  dACCESS:          0  dHIT:          0  dMISS:          0  itACCESS:          0  itHIT:          0  itMISS:          0  dtACCESS:          0  dtHIT:          0  dtMISS:          0
cpu0_L1I PREFETCH     ACCESS:   27650884  HIT:   21283885  MISS:    6366999  iACCESS:   27650884  iHIT:   21283885  iMISS:    6366999  dACCESS:          0  dHIT:          0  dMISS:          0  itACCESS:          0  itHIT:          0  itMISS:          0  dtACCESS:          0  dtHIT:          0  dtMISS:          0
cpu0_L1I WRITE        ACCESS:          0  HIT:          0  MISS:          0  iACCESS:          0  iHIT:          0  iMISS:          0  dACCESS:          0  dHIT:          0  dMISS:          0  itACCESS:          0  itHIT:          0  itMISS:          0  dtACCESS:          0  dtHIT:          0  dtMISS:          0
cpu0_L1I TRANSLATION  ACCESS:          0  HIT:          0  MISS:          0  iACCESS:          0  iHIT:          0  iMISS:          0  dACCESS:          0  dHIT:          0  dMISS:          0  itACCESS:          0  itHIT:          0  itMISS:          0  dtACCESS:          0  dtHIT:          0  dtMISS:          0
cpu0_L1I PREFETCH  REQUESTED:   30429835  ISSUED:   30429741  CROSSED:          0  USEFUL:    2224877  USELESS:     779635
cpu0_L1I AVERAGE iMISS LATENCY: 25.0749 cycles
cpu0_L1I AVERAGE dMISS LATENCY: 0 cycles
cpu0_L1I AVERAGE itMISS LATENCY: 0 cycles
cpu0_L1I AVERAGE dtMISS LATENCY: 0 cycles
cpu0_L1I PAGE CROSSINGS (TLB HIT):         0 
cpu0_L1I PAGE CROSSINGS (TLB MISS):         0 
cpu0_L1I AVERAGE MISS LATENCY: 25.0749 cycles
cpu0_ITLB TOTAL       ACCESS:   33428930  HIT:   31171661  MISS:    2257269  iACCESS:   33428930  iHIT:   31171661  iMISS:    2257269  dACCESS:          0  dHIT:          0  dMISS:          0  itACCESS:          0  itHIT:          0  itMISS:          0  dtACCESS:          0  dtHIT:          0  dtMISS:          0
cpu0_ITLB LOAD         ACCESS:   33428930  HIT:   31171661  MISS:    2257269  iACCESS:   33428930  iHIT:   31171661  iMISS:    2257269  dACCESS:          0  dHIT:          0  dMISS:          0  itACCESS:          0  itHIT:          0  itMISS:          0  dtACCESS:          0  dtHIT:          0  dtMISS:          0
cpu0_ITLB RFO          ACCESS:          0  HIT:          0  MISS:          0  iACCESS:          0  iHIT:          0  iMISS:          0  dACCESS:          0  dHIT:          0  dMISS:          0  itACCESS:          0  itHIT:          0  itMISS:          0  dtACCESS:          0  dtHIT:          0  dtMISS:          0
cpu0_ITLB PREFETCH     ACCESS:          0  HIT:          0  MISS:          0  iACCESS:          0  iHIT:          0  iMISS:          0  dACCESS:          0  dHIT:          0  dMISS:          0  itACCESS:          0  itHIT:          0  itMISS:          0  dtACCESS:          0  dtHIT:          0  dtMISS:          0
cpu0_ITLB WRITE        ACCESS:          0  HIT:          0  MISS:          0  iACCESS:          0  iHIT:          0  iMISS:          0  dACCESS:          0  dHIT:          0  dMISS:          0  itACCESS:          0  itHIT:          0  itMISS:          0  dtACCESS:          0  dtHIT:          0  dtMISS:          0
cpu0_ITLB TRANSLATION  ACCESS:          0  HIT:          0  MISS:          0  iACCESS:          0  iHIT:          0  iMISS:          0  dACCESS:          0  dHIT:          0  dMISS:          0  itACCESS:          0  itHIT:          0  itMISS:          0  dtACCESS:          0  dtHIT:          0  dtMISS:          0
cpu0_ITLB PREFETCH  REQUESTED:          0  ISSUED:          0  CROSSED:          0  USEFUL:     398581  USELESS:      81710
cpu0_ITLB AVERAGE iMISS LATENCY: 10.8775 cycles
cpu0_ITLB AVERAGE dMISS LATENCY: 0 cycles
cpu0_ITLB AVERAGE itMISS LATENCY: 0 cycles
cpu0_ITLB AVERAGE dtMISS LATENCY: 0 cycles
cpu0_ITLB PAGE CROSSINGS (TLB HIT):         0 
cpu0_ITLB PAGE CROSSINGS (TLB MISS):         0 
cpu0_ITLB AVERAGE MISS LATENCY: 10.8775 cycles
cpu0_DTLB TOTAL       ACCESS:   28985673  HIT:   25484418  MISS:    3501255  iACCESS:          0  iHIT:          0  iMISS:          0  dACCESS:   28985673  dHIT:   25484418  dMISS:    3501255  itACCESS:          0  itHIT:          0  itMISS:          0  dtACCESS:          0  dtHIT:          0  dtMISS:          0
cpu0_DTLB LOAD         ACCESS:   28985673  HIT:   25484418  MISS:    3501255  iACCESS:          0  iHIT:          0  iMISS:          0  dACCESS:   28985673  dHIT:   25484418  dMISS:    3501255  itACCESS:          0  itHIT:          0  itMISS:          0  dtACCESS:          0  dtHIT:          0  dtMISS:          0
cpu0_DTLB RFO          ACCESS:          0  HIT:          0  MISS:          0  iACCESS:          0  iHIT:          0  iMISS:          0  dACCESS:          0  dHIT:          0  dMISS:          0  itACCESS:          0  itHIT:          0  itMISS:          0  dtACCESS:          0  dtHIT:          0  dtMISS:          0
cpu0_DTLB PREFETCH     ACCESS:          0  HIT:          0  MISS:          0  iACCESS:          0  iHIT:          0  iMISS:          0  dACCESS:          0  dHIT:          0  dMISS:          0  itACCESS:          0  itHIT:          0  itMISS:          0  dtACCESS:          0  dtHIT:          0  dtMISS:          0
cpu0_DTLB WRITE        ACCESS:          0  HIT:          0  MISS:          0  iACCESS:          0  iHIT:          0  iMISS:          0  dACCESS:          0  dHIT:          0  dMISS:          0  itACCESS:          0  itHIT:          0  itMISS:          0  dtACCESS:          0  dtHIT:          0  dtMISS:          0
cpu0_DTLB TRANSLATION  ACCESS:          0  HIT:          0  MISS:          0  iACCESS:          0  iHIT:          0  iMISS:          0  dACCESS:          0  dHIT:          0  dMISS:          0  itACCESS:          0  itHIT:          0  itMISS:          0  dtACCESS:          0  dtHIT:          0  dtMISS:          0
cpu0_DTLB PREFETCH  REQUESTED:          0  ISSUED:          0  CROSSED:          0  USEFUL:          0  USELESS:          0
cpu0_DTLB AVERAGE iMISS LATENCY: 0 cycles
cpu0_DTLB AVERAGE dMISS LATENCY: 25.5932 cycles
cpu0_DTLB AVERAGE itMISS LATENCY: 0 cycles
cpu0_DTLB AVERAGE dtMISS LATENCY: 0 cycles
cpu0_DTLB PAGE CROSSINGS (TLB HIT):         0 
cpu0_DTLB PAGE CROSSINGS (TLB MISS):         0 
cpu0_DTLB AVERAGE MISS LATENCY: 25.5932 cycles
cpu0_STLB TOTAL       ACCESS:    2542925  HIT:    2161694  MISS:     381231  iACCESS:     480296  iHIT:     359008  iMISS:     121288  dACCESS:    2062629  dHIT:    1802686  dMISS:     259943  itACCESS:          0  itHIT:          0  itMISS:          0  dtACCESS:          0  dtHIT:          0  dtMISS:          0
cpu0_STLB LOAD         ACCESS:    2542925  HIT:    2161694  MISS:     381231  iACCESS:     480296  iHIT:     359008  iMISS:     121288  dACCESS:    2062629  dHIT:    1802686  dMISS:     259943  itACCESS:          0  itHIT:          0  itMISS:          0  dtACCESS:          0  dtHIT:          0  dtMISS:          0
cpu0_STLB RFO          ACCESS:          0  HIT:          0  MISS:          0  iACCESS:          0  iHIT:          0  iMISS:          0  dACCESS:          0  dHIT:          0  dMISS:          0  itACCESS:          0  itHIT:          0  itMISS:          0  dtACCESS:          0  dtHIT:          0  dtMISS:          0
cpu0_STLB PREFETCH     ACCESS:          0  HIT:          0  MISS:          0  iACCESS:          0  iHIT:          0  iMISS:          0  dACCESS:          0  dHIT:          0  dMISS:          0  itACCESS:          0  itHIT:          0  itMISS:          0  dtACCESS:          0  dtHIT:          0  dtMISS:          0
cpu0_STLB WRITE        ACCESS:          0  HIT:          0  MISS:          0  iACCESS:          0  iHIT:          0  iMISS:          0  dACCESS:          0  dHIT:          0  dMISS:          0  itACCESS:          0  itHIT:          0  itMISS:          0  dtACCESS:          0  dtHIT:          0  dtMISS:          0
cpu0_STLB TRANSLATION  ACCESS:          0  HIT:          0  MISS:          0  iACCESS:          0  iHIT:          0  iMISS:          0  dACCESS:          0  dHIT:          0  dMISS:          0  itACCESS:          0  itHIT:          0  itMISS:          0  dtACCESS:          0  dtHIT:          0  dtMISS:          0
cpu0_STLB PREFETCH  REQUESTED:          0  ISSUED:          0  CROSSED:          0  USEFUL:          0  USELESS:          0
cpu0_STLB AVERAGE iMISS LATENCY: 54.3129 cycles
cpu0_STLB AVERAGE dMISS LATENCY: 191.489 cycles
cpu0_STLB AVERAGE itMISS LATENCY: 0 cycles
cpu0_STLB AVERAGE dtMISS LATENCY: 0 cycles
cpu0_STLB PAGE CROSSINGS (TLB HIT):         0 
cpu0_STLB PAGE CROSSINGS (TLB MISS):         0 
cpu0_STLB AVERAGE MISS LATENCY: 245.802 cycles
cpu0_L1D TOTAL       ACCESS:   45037776  HIT:   39367046  MISS:    5670730  iACCESS:          0  iHIT:          0  iMISS:          0  dACCESS:   44475831  dHIT:   39333384  dMISS:    5142447  itACCESS:     135490  itHIT:      15343  itMISS:     120147  dtACCESS:     426455  dtHIT:      18319  dtMISS:     408136
cpu0_L1D LOAD         ACCESS:   20315560  HIT:   18026908  MISS:    2288652  iACCESS:          0  iHIT:          0  iMISS:          0  dACCESS:   20315560  dHIT:   18026908  dMISS:    2288652  itACCESS:          0  itHIT:          0  itMISS:          0  dtACCESS:          0  dtHIT:          0  dtMISS:          0
cpu0_L1D RFO          ACCESS:          0  HIT:          0  MISS:          0  iACCESS:          0  iHIT:          0  iMISS:          0  dACCESS:          0  dHIT:          0  dMISS:          0  itACCESS:          0  itHIT:          0  itMISS:          0  dtACCESS:          0  dtHIT:          0  dtMISS:          0
cpu0_L1D PREFETCH     ACCESS:   13983203  HIT:   11705328  MISS:    2277875  iACCESS:          0  iHIT:          0  iMISS:          0  dACCESS:   13983203  dHIT:   11705328  dMISS:    2277875  itACCESS:          0  itHIT:          0  itMISS:          0  dtACCESS:          0  dtHIT:          0  dtMISS:          0
cpu0_L1D WRITE        ACCESS:   10177068  HIT:    9601148  MISS:     575920  iACCESS:          0  iHIT:          0  iMISS:          0  dACCESS:   10177068  dHIT:    9601148  dMISS:     575920  itACCESS:          0  itHIT:          0  itMISS:          0  dtACCESS:          0  dtHIT:          0  dtMISS:          0
cpu0_L1D TRANSLATION  ACCESS:     561945  HIT:      33662  MISS:     528283  iACCESS:          0  iHIT:          0  iMISS:          0  dACCESS:          0  dHIT:          0  dMISS:          0  itACCESS:     135490  itHIT:      15343  itMISS:     120147  dtACCESS:     426455  dtHIT:      18319  dtMISS:     408136
cpu0_L1D PREFETCH  REQUESTED:   20315560  ISSUED:   18564712  CROSSED:          0  USEFUL:     361736  USELESS:     931725
cpu0_L1D AVERAGE iMISS LATENCY: 0 cycles
cpu0_L1D AVERAGE dMISS LATENCY: 50.6668 cycles
cpu0_L1D AVERAGE itMISS LATENCY: 3.4376 cycles
cpu0_L1D AVERAGE dtMISS LATENCY: 12.0335 cycles
cpu0_L1D PAGE CROSSINGS (TLB HIT):         0 
cpu0_L1D PAGE CROSSINGS (TLB MISS):         0 
cpu0_L1D AVERAGE MISS LATENCY: 66.1378 cycles
cpu0_L2C TOTAL       ACCESS:    8672528  HIT:    4083409  MISS:    4589119  iACCESS:    3816543  iHIT:    2240197  iMISS:    1576346  dACCESS:    4365641  dHIT:    1782615  dMISS:    2583026  itACCESS:     119698  itHIT:      20698  itMISS:      99000  dtACCESS:     370646  dtHIT:      39899  dtMISS:     330747
cpu0_L2C LOAD         ACCESS:    2054889  HIT:     977776  MISS:    1077113  iACCESS:     849239  iHIT:     520738  iMISS:     328501  dACCESS:    1205650  dHIT:     457038  dMISS:     748612  itACCESS:          0  itHIT:          0  itMISS:          0  dtACCESS:          0  dtHIT:          0  dtMISS:          0
cpu0_L2C RFO          ACCESS:     215317  HIT:      76938  MISS:     138379  iACCESS:          0  iHIT:          0  iMISS:          0  dACCESS:     215317  dHIT:      76938  dMISS:     138379  itACCESS:          0  itHIT:          0  itMISS:          0  dtACCESS:          0  dtHIT:          0  dtMISS:          0
cpu0_L2C PREFETCH     ACCESS:    5572428  HIT:    2641937  MISS:    2930491  iACCESS:    2967304  iHIT:    1719459  iMISS:    1247845  dACCESS:    2605124  dHIT:     922478  dMISS:    1682646  itACCESS:          0  itHIT:          0  itMISS:          0  dtACCESS:          0  dtHIT:          0  dtMISS:          0
cpu0_L2C WRITE        ACCESS:     339550  HIT:     326161  MISS:      13389  iACCESS:          0  iHIT:          0  iMISS:          0  dACCESS:     339550  dHIT:     326161  dMISS:      13389  itACCESS:          0  itHIT:          0  itMISS:          0  dtACCESS:          0  dtHIT:          0  dtMISS:          0
cpu0_L2C TRANSLATION  ACCESS:     490344  HIT:      60597  MISS:     429747  iACCESS:          0  iHIT:          0  iMISS:          0  dACCESS:          0  dHIT:          0  dMISS:          0  itACCESS:     119698  itHIT:      20698  itMISS:      99000  dtACCESS:     370646  dtHIT:      39899  dtMISS:     330747
cpu0_L2C PREFETCH  REQUESTED:    1548810  ISSUED:    1548805  CROSSED:          0  USEFUL:     363089  USELESS:     342923
cpu0_L2C AVERAGE iMISS LATENCY: 40.7969 cycles
cpu0_L2C AVERAGE dMISS LATENCY: 78.3925 cycles
cpu0_L2C AVERAGE itMISS LATENCY: 3.99075 cycles
cpu0_L2C AVERAGE dtMISS LATENCY: 14.0662 cycles
cpu0_L2C PAGE CROSSINGS (TLB HIT):         0 
cpu0_L2C PAGE CROSSINGS (TLB MISS):         0 
cpu0_L2C AVERAGE MISS LATENCY: 137.247 cycles
LLC TOTAL       ACCESS:    4562520  HIT:    1373431  MISS:    3189089  iACCESS:    1483223  iHIT:     471848  iMISS:    1011375  dACCESS:    2649550  dHIT:     861839  dMISS:    1787711  itACCESS:      99000  itHIT:       7493  itMISS:      91507  dtACCESS:     330747  dtHIT:      32251  dtMISS:     298496
LLC LOAD         ACCESS:    1069980  HIT:     341290  MISS:     728690  iACCESS:     327246  iHIT:     112077  iMISS:     215169  dACCESS:     742734  dHIT:     229213  dMISS:     513521  itACCESS:          0  itHIT:          0  itMISS:          0  dtACCESS:          0  dtHIT:          0  dtMISS:          0
LLC RFO          ACCESS:     138371  HIT:      41490  MISS:      96881  iACCESS:          0  iHIT:          0  iMISS:          0  dACCESS:     138371  dHIT:      41490  dMISS:      96881  itACCESS:          0  itHIT:          0  itMISS:          0  dtACCESS:          0  dtHIT:          0  dtMISS:          0
LLC PREFETCH     ACCESS:    2712379  HIT:     749080  MISS:    1963299  iACCESS:    1155977  iHIT:     359771  iMISS:     796206  dACCESS:    1556402  dHIT:     389309  dMISS:    1167093  itACCESS:          0  itHIT:          0  itMISS:          0  dtACCESS:          0  dtHIT:          0  dtMISS:          0
LLC WRITE        ACCESS:     212043  HIT:     201827  MISS:      10216  iACCESS:          0  iHIT:          0  iMISS:          0  dACCESS:     212043  dHIT:     201827  dMISS:      10216  itACCESS:          0  itHIT:          0  itMISS:          0  dtACCESS:          0  dtHIT:          0  dtMISS:          0
LLC TRANSLATION  ACCESS:     429747  HIT:      39744  MISS:     390003  iACCESS:          0  iHIT:          0  iMISS:          0  dACCESS:          0  dHIT:          0  dMISS:          0  itACCESS:      99000  itHIT:       7493  itMISS:      91507  dtACCESS:     330747  dtHIT:      32251  dtMISS:     298496
LLC PREFETCH  REQUESTED:          0  ISSUED:          0  CROSSED:          0  USEFUL:          0  USELESS:          0
LLC AVERAGE iMISS LATENCY: 49.5497 cycles
LLC AVERAGE dMISS LATENCY: 98.5959 cycles
LLC AVERAGE itMISS LATENCY: 5.12699 cycles
LLC AVERAGE dtMISS LATENCY: 18.1907 cycles
LLC PAGE CROSSINGS (TLB HIT):         0 
LLC PAGE CROSSINGS (TLB MISS):         0 
LLC AVERAGE MISS LATENCY: 171.464 cycles

PageTableWalker TOTAL       ACCESS:     187571  
PageTableWalker AVERAGE LATENCY: 6.35824 cycles
PageTableWalker TOTAL LATENCY: 1192621 cycles

DRAM Statistics
Channel 0
 RQ ROW_BUFFER_HIT:     700068
  ROW_BUFFER_MISS:    2460645
 AVG DBUS CONGESTED CYCLE:    3.64996
 WQ ROW_BUFFER_HIT:      67901
  ROW_BUFFER_MISS:      55621  FULL:          0

