last_page:0x200000000000000
VMEM_RES_CAP:0x100000
PAGE_SIZE:4096
LOG2_PAGE_SIZE:12
LOG2_PAGE_TABLE_SIZE:9
page_table_levels:5
WARNING: physical memory size is smaller than virtual memory size
FDiP enabled with aggresivity 16

*** ChampSim Multicore Out-of-Order Simulator ***

Warmup Instructions: 50000000
Simulation Instructions: 100000000
Number of CPUs: 1
Small page size: 4096
Large page size: 2097152

CPU 0 Bimodal branch predictor
Basic BTB sets: 1024 ways: 8 indirect buffer size: 4096 RAS size: 64
Instruction page size distrubution: 0
Loading instruction page size distribution from /home/bsc/bsc018186/scratch/itp_asplos25_AE/dump/smt_srv207_ap_srv582_ap_1024i.pdst
Data page size distrubution: 0
Loading data page size distribution from /home/bsc/bsc018186/scratch/itp_asplos25_AE/dump/smt_srv207_ap_srv582_ap_1024i.pdst
cpu0_L2C IP-based stride prefetcher
cpu0_L1D next line prefetcher
cpu0_L1I next line prefetcher
Off-chip DRAM Size: 4 GiB Channels: 1 Width: 64-bit Data Rate: 3200 MT/s
Heartbeat CPU 0 instructions: 10000002 cycles: 2500673 heartbeat IPC: 3.99893 cumulative IPC: 3.99893 (Simulation time: 0 hr 0 min 38 sec) 
Heartbeat CPU 0 instructions: 20000002 cycles: 5001169 heartbeat IPC: 3.99921 cumulative IPC: 3.99907 (Simulation time: 0 hr 1 min 19 sec) 
Heartbeat CPU 0 instructions: 30000001 cycles: 7501638 heartbeat IPC: 3.99925 cumulative IPC: 3.99913 (Simulation time: 0 hr 2 min 0 sec) 
Heartbeat CPU 0 instructions: 40000000 cycles: 10001861 heartbeat IPC: 3.99965 cumulative IPC: 3.99926 (Simulation time: 0 hr 2 min 43 sec) 
Heartbeat CPU 0 instructions: 50000000 cycles: 12502341 heartbeat IPC: 3.99924 cumulative IPC: 3.99926 (Simulation time: 0 hr 3 min 30 sec) 
Warmup finished CPU 0 instructions: 50000000 cycles: 12502342 cumulative IPC: 3.99926 (Simulation time: 0 hr 3 min 30 sec) 

Warmup complete CPU 0 instructions: 50000000 cycles: 12502342 (Simulation time: 0 hr 3 min 30 sec) 

Heartbeat CPU 0 instructions: 60000002 cycles: 43738622 heartbeat IPC: 0.320141 cumulative IPC: 0.320141 (Simulation time: 0 hr 5 min 7 sec) 
Heartbeat CPU 0 instructions: 70000000 cycles: 75109422 heartbeat IPC: 0.318768 cumulative IPC: 0.319453 (Simulation time: 0 hr 6 min 45 sec) 
Heartbeat CPU 0 instructions: 80000000 cycles: 106252740 heartbeat IPC: 0.321097 cumulative IPC: 0.319999 (Simulation time: 0 hr 8 min 22 sec) 
Heartbeat CPU 0 instructions: 90000000 cycles: 137958956 heartbeat IPC: 0.315396 cumulative IPC: 0.318836 (Simulation time: 0 hr 9 min 57 sec) 
Heartbeat CPU 0 instructions: 100000002 cycles: 169467732 heartbeat IPC: 0.317372 cumulative IPC: 0.318542 (Simulation time: 0 hr 11 min 30 sec) 
Heartbeat CPU 0 instructions: 110000004 cycles: 200537123 heartbeat IPC: 0.321861 cumulative IPC: 0.31909 (Simulation time: 0 hr 13 min 5 sec) 
Heartbeat CPU 0 instructions: 120000002 cycles: 231475140 heartbeat IPC: 0.323227 cumulative IPC: 0.319675 (Simulation time: 0 hr 14 min 40 sec) 
Heartbeat CPU 0 instructions: 130000000 cycles: 262165508 heartbeat IPC: 0.325836 cumulative IPC: 0.320432 (Simulation time: 0 hr 16 min 15 sec) 
Heartbeat CPU 0 instructions: 140000003 cycles: 293963088 heartbeat IPC: 0.31449 cumulative IPC: 0.319761 (Simulation time: 0 hr 17 min 52 sec) 
Heartbeat CPU 0 instructions: 150000000 cycles: 323549311 heartbeat IPC: 0.337996 cumulative IPC: 0.321495 (Simulation time: 0 hr 19 min 27 sec) 
Simulation finished CPU 0 instructions: 100000000 cycles: 311046970 cumulative IPC: 0.321495 (Simulation time: 0 hr 19 min 27 sec) 

Simulation complete CPU 0 instructions: 100000000 cycles: 311046970 (Simulation time: 0 hr 19 min 27 sec) 


ChampSim completed all CPUs

Saving instructions large page distribution to /home/bsc/bsc018186/scratch/itp_asplos25_AE/dump/smt_srv207_ap_srv582_ap_1024i.pdst...
Saving data large page distribution to /home/bsc/bsc018186/scratch/itp_asplos25_AE/dump/smt_srv207_ap_srv582_ap_1024i.pdst...
=== Simulation ===
CPU 0 runs /gpfs/projects/bsc18/MN4/bsc18/romol/ChampSim/traces/qualcomm_srv/smt_srv207_ap_srv582_ap_1024i.champsimtrace.xz

Region of Interest Statistics

CPU 0 cumulative IPC: 0.321495 instructions: 100000000 cycles: 311046970
CPU 0 Branch Prediction Accuracy: 74.6154% MPKI: 45.7265 Average ROB Occupancy at Mispredict: 10.8538
Branch type MPKI
BRANCH_DIRECT_JUMP: 1.4266
BRANCH_INDIRECT: 24.0265
BRANCH_CONDITIONAL: 12.9323
BRANCH_DIRECT_CALL: 2.71321
BRANCH_INDIRECT_CALL: 1.03809
BRANCH_RETURN: 3.58991

Instructions large pages: 0
Instructions small pages: 11471
Large page distribution for instructions: 0%

Data large pages: 0
Data small pages: 9974
Large page distribution for data: 0%

cpu0_L1I TOTAL       ACCESS:   39123895  HIT:   30355995  MISS:    8767900  iACCESS:   39123895  iHIT:   30355995  iMISS:    8767900  dACCESS:          0  dHIT:          0  dMISS:          0  itACCESS:          0  itHIT:          0  itMISS:          0  dtACCESS:          0  dtHIT:          0  dtMISS:          0
cpu0_L1I LOAD         ACCESS:   11588246  HIT:    9196439  MISS:    2391807  iACCESS:   11588246  iHIT:    9196439  iMISS:    2391807  dACCESS:          0  dHIT:          0  dMISS:          0  itACCESS:          0  itHIT:          0  itMISS:          0  dtACCESS:          0  dtHIT:          0  dtMISS:          0
cpu0_L1I RFO          ACCESS:          0  HIT:          0  MISS:          0  iACCESS:          0  iHIT:          0  iMISS:          0  dACCESS:          0  dHIT:          0  dMISS:          0  itACCESS:          0  itHIT:          0  itMISS:          0  dtACCESS:          0  dtHIT:          0  dtMISS:          0
cpu0_L1I PREFETCH     ACCESS:   27535649  HIT:   21159556  MISS:    6376093  iACCESS:   27535649  iHIT:   21159556  iMISS:    6376093  dACCESS:          0  dHIT:          0  dMISS:          0  itACCESS:          0  itHIT:          0  itMISS:          0  dtACCESS:          0  dtHIT:          0  dtMISS:          0
cpu0_L1I WRITE        ACCESS:          0  HIT:          0  MISS:          0  iACCESS:          0  iHIT:          0  iMISS:          0  dACCESS:          0  dHIT:          0  dMISS:          0  itACCESS:          0  itHIT:          0  itMISS:          0  dtACCESS:          0  dtHIT:          0  dtMISS:          0
cpu0_L1I TRANSLATION  ACCESS:          0  HIT:          0  MISS:          0  iACCESS:          0  iHIT:          0  iMISS:          0  dACCESS:          0  dHIT:          0  dMISS:          0  itACCESS:          0  itHIT:          0  itMISS:          0  dtACCESS:          0  dtHIT:          0  dtMISS:          0
cpu0_L1I PREFETCH  REQUESTED:   30269270  ISSUED:   30269141  CROSSED:          0  USEFUL:    2215628  USELESS:     800089
cpu0_L1I AVERAGE iMISS LATENCY: 24.94 cycles
cpu0_L1I AVERAGE dMISS LATENCY: 0 cycles
cpu0_L1I AVERAGE itMISS LATENCY: 0 cycles
cpu0_L1I AVERAGE dtMISS LATENCY: 0 cycles
cpu0_L1I PAGE CROSSINGS (TLB HIT):         0 
cpu0_L1I PAGE CROSSINGS (TLB MISS):         0 
cpu0_L1I AVERAGE MISS LATENCY: 24.94 cycles
cpu0_ITLB TOTAL       ACCESS:   33224406  HIT:   30940571  MISS:    2283835  iACCESS:   33224406  iHIT:   30940571  iMISS:    2283835  dACCESS:          0  dHIT:          0  dMISS:          0  itACCESS:          0  itHIT:          0  itMISS:          0  dtACCESS:          0  dtHIT:          0  dtMISS:          0
cpu0_ITLB LOAD         ACCESS:   33224406  HIT:   30940571  MISS:    2283835  iACCESS:   33224406  iHIT:   30940571  iMISS:    2283835  dACCESS:          0  dHIT:          0  dMISS:          0  itACCESS:          0  itHIT:          0  itMISS:          0  dtACCESS:          0  dtHIT:          0  dtMISS:          0
cpu0_ITLB RFO          ACCESS:          0  HIT:          0  MISS:          0  iACCESS:          0  iHIT:          0  iMISS:          0  dACCESS:          0  dHIT:          0  dMISS:          0  itACCESS:          0  itHIT:          0  itMISS:          0  dtACCESS:          0  dtHIT:          0  dtMISS:          0
cpu0_ITLB PREFETCH     ACCESS:          0  HIT:          0  MISS:          0  iACCESS:          0  iHIT:          0  iMISS:          0  dACCESS:          0  dHIT:          0  dMISS:          0  itACCESS:          0  itHIT:          0  itMISS:          0  dtACCESS:          0  dtHIT:          0  dtMISS:          0
cpu0_ITLB WRITE        ACCESS:          0  HIT:          0  MISS:          0  iACCESS:          0  iHIT:          0  iMISS:          0  dACCESS:          0  dHIT:          0  dMISS:          0  itACCESS:          0  itHIT:          0  itMISS:          0  dtACCESS:          0  dtHIT:          0  dtMISS:          0
cpu0_ITLB TRANSLATION  ACCESS:          0  HIT:          0  MISS:          0  iACCESS:          0  iHIT:          0  iMISS:          0  dACCESS:          0  dHIT:          0  dMISS:          0  itACCESS:          0  itHIT:          0  itMISS:          0  dtACCESS:          0  dtHIT:          0  dtMISS:          0
cpu0_ITLB PREFETCH  REQUESTED:          0  ISSUED:          0  CROSSED:          0  USEFUL:     401249  USELESS:      83089
cpu0_ITLB AVERAGE iMISS LATENCY: 10.6631 cycles
cpu0_ITLB AVERAGE dMISS LATENCY: 0 cycles
cpu0_ITLB AVERAGE itMISS LATENCY: 0 cycles
cpu0_ITLB AVERAGE dtMISS LATENCY: 0 cycles
cpu0_ITLB PAGE CROSSINGS (TLB HIT):         0 
cpu0_ITLB PAGE CROSSINGS (TLB MISS):         0 
cpu0_ITLB AVERAGE MISS LATENCY: 10.6631 cycles
cpu0_DTLB TOTAL       ACCESS:   29214556  HIT:   25676548  MISS:    3538008  iACCESS:          0  iHIT:          0  iMISS:          0  dACCESS:   29214556  dHIT:   25676548  dMISS:    3538008  itACCESS:          0  itHIT:          0  itMISS:          0  dtACCESS:          0  dtHIT:          0  dtMISS:          0
cpu0_DTLB LOAD         ACCESS:   29214556  HIT:   25676548  MISS:    3538008  iACCESS:          0  iHIT:          0  iMISS:          0  dACCESS:   29214556  dHIT:   25676548  dMISS:    3538008  itACCESS:          0  itHIT:          0  itMISS:          0  dtACCESS:          0  dtHIT:          0  dtMISS:          0
cpu0_DTLB RFO          ACCESS:          0  HIT:          0  MISS:          0  iACCESS:          0  iHIT:          0  iMISS:          0  dACCESS:          0  dHIT:          0  dMISS:          0  itACCESS:          0  itHIT:          0  itMISS:          0  dtACCESS:          0  dtHIT:          0  dtMISS:          0
cpu0_DTLB PREFETCH     ACCESS:          0  HIT:          0  MISS:          0  iACCESS:          0  iHIT:          0  iMISS:          0  dACCESS:          0  dHIT:          0  dMISS:          0  itACCESS:          0  itHIT:          0  itMISS:          0  dtACCESS:          0  dtHIT:          0  dtMISS:          0
cpu0_DTLB WRITE        ACCESS:          0  HIT:          0  MISS:          0  iACCESS:          0  iHIT:          0  iMISS:          0  dACCESS:          0  dHIT:          0  dMISS:          0  itACCESS:          0  itHIT:          0  itMISS:          0  dtACCESS:          0  dtHIT:          0  dtMISS:          0
cpu0_DTLB TRANSLATION  ACCESS:          0  HIT:          0  MISS:          0  iACCESS:          0  iHIT:          0  iMISS:          0  dACCESS:          0  dHIT:          0  dMISS:          0  itACCESS:          0  itHIT:          0  itMISS:          0  dtACCESS:          0  dtHIT:          0  dtMISS:          0
cpu0_DTLB PREFETCH  REQUESTED:          0  ISSUED:          0  CROSSED:          0  USEFUL:          0  USELESS:          0
cpu0_DTLB AVERAGE iMISS LATENCY: 0 cycles
cpu0_DTLB AVERAGE dMISS LATENCY: 26.1052 cycles
cpu0_DTLB AVERAGE itMISS LATENCY: 0 cycles
cpu0_DTLB AVERAGE dtMISS LATENCY: 0 cycles
cpu0_DTLB PAGE CROSSINGS (TLB HIT):         0 
cpu0_DTLB PAGE CROSSINGS (TLB MISS):         0 
cpu0_DTLB AVERAGE MISS LATENCY: 26.1052 cycles
cpu0_STLB TOTAL       ACCESS:    2568931  HIT:    2178867  MISS:     390064  iACCESS:     484340  iHIT:     365321  iMISS:     119019  dACCESS:    2084591  dHIT:    1813546  dMISS:     271045  itACCESS:          0  itHIT:          0  itMISS:          0  dtACCESS:          0  dtHIT:          0  dtMISS:          0
cpu0_STLB LOAD         ACCESS:    2568931  HIT:    2178867  MISS:     390064  iACCESS:     484340  iHIT:     365321  iMISS:     119019  dACCESS:    2084591  dHIT:    1813546  dMISS:     271045  itACCESS:          0  itHIT:          0  itMISS:          0  dtACCESS:          0  dtHIT:          0  dtMISS:          0
cpu0_STLB RFO          ACCESS:          0  HIT:          0  MISS:          0  iACCESS:          0  iHIT:          0  iMISS:          0  dACCESS:          0  dHIT:          0  dMISS:          0  itACCESS:          0  itHIT:          0  itMISS:          0  dtACCESS:          0  dtHIT:          0  dtMISS:          0
cpu0_STLB PREFETCH     ACCESS:          0  HIT:          0  MISS:          0  iACCESS:          0  iHIT:          0  iMISS:          0  dACCESS:          0  dHIT:          0  dMISS:          0  itACCESS:          0  itHIT:          0  itMISS:          0  dtACCESS:          0  dtHIT:          0  dtMISS:          0
cpu0_STLB WRITE        ACCESS:          0  HIT:          0  MISS:          0  iACCESS:          0  iHIT:          0  iMISS:          0  dACCESS:          0  dHIT:          0  dMISS:          0  itACCESS:          0  itHIT:          0  itMISS:          0  dtACCESS:          0  dtHIT:          0  dtMISS:          0
cpu0_STLB TRANSLATION  ACCESS:          0  HIT:          0  MISS:          0  iACCESS:          0  iHIT:          0  iMISS:          0  dACCESS:          0  dHIT:          0  dMISS:          0  itACCESS:          0  itHIT:          0  itMISS:          0  dtACCESS:          0  dtHIT:          0  dtMISS:          0
cpu0_STLB PREFETCH  REQUESTED:          0  ISSUED:          0  CROSSED:          0  USEFUL:          0  USELESS:          0
cpu0_STLB AVERAGE iMISS LATENCY: 52.4953 cycles
cpu0_STLB AVERAGE dMISS LATENCY: 193.743 cycles
cpu0_STLB AVERAGE itMISS LATENCY: 0 cycles
cpu0_STLB AVERAGE dtMISS LATENCY: 0 cycles
cpu0_STLB PAGE CROSSINGS (TLB HIT):         0 
cpu0_STLB PAGE CROSSINGS (TLB MISS):         0 
cpu0_STLB AVERAGE MISS LATENCY: 246.239 cycles
cpu0_L1D TOTAL       ACCESS:   45696298  HIT:   39683729  MISS:    6012569  iACCESS:          0  iHIT:          0  iMISS:          0  dACCESS:   45134796  dHIT:   39650778  dMISS:    5484018  itACCESS:     132938  itHIT:      13897  itMISS:     119041  dtACCESS:     428564  dtHIT:      19054  dtMISS:     409510
cpu0_L1D LOAD         ACCESS:   20673889  HIT:   18194506  MISS:    2479383  iACCESS:          0  iHIT:          0  iMISS:          0  dACCESS:   20673889  dHIT:   18194506  dMISS:    2479383  itACCESS:          0  itHIT:          0  itMISS:          0  dtACCESS:          0  dtHIT:          0  dtMISS:          0
cpu0_L1D RFO          ACCESS:          0  HIT:          0  MISS:          0  iACCESS:          0  iHIT:          0  iMISS:          0  dACCESS:          0  dHIT:          0  dMISS:          0  itACCESS:          0  itHIT:          0  itMISS:          0  dtACCESS:          0  dtHIT:          0  dtMISS:          0
cpu0_L1D PREFETCH     ACCESS:   14336527  HIT:   11926118  MISS:    2410409  iACCESS:          0  iHIT:          0  iMISS:          0  dACCESS:   14336527  dHIT:   11926118  dMISS:    2410409  itACCESS:          0  itHIT:          0  itMISS:          0  dtACCESS:          0  dtHIT:          0  dtMISS:          0
cpu0_L1D WRITE        ACCESS:   10124380  HIT:    9530154  MISS:     594226  iACCESS:          0  iHIT:          0  iMISS:          0  dACCESS:   10124380  dHIT:    9530154  dMISS:     594226  itACCESS:          0  itHIT:          0  itMISS:          0  dtACCESS:          0  dtHIT:          0  dtMISS:          0
cpu0_L1D TRANSLATION  ACCESS:     561502  HIT:      32951  MISS:     528551  iACCESS:          0  iHIT:          0  iMISS:          0  dACCESS:          0  dHIT:          0  dMISS:          0  itACCESS:     132938  itHIT:      13897  itMISS:     119041  dtACCESS:     428564  dtHIT:      19054  dtMISS:     409510
cpu0_L1D PREFETCH  REQUESTED:   20673889  ISSUED:   18863716  CROSSED:          0  USEFUL:     378519  USELESS:     957602
cpu0_L1D AVERAGE iMISS LATENCY: 0 cycles
cpu0_L1D AVERAGE dMISS LATENCY: 50.0735 cycles
cpu0_L1D AVERAGE itMISS LATENCY: 3.22055 cycles
cpu0_L1D AVERAGE dtMISS LATENCY: 11.7986 cycles
cpu0_L1D PAGE CROSSINGS (TLB HIT):         0 
cpu0_L1D PAGE CROSSINGS (TLB MISS):         0 
cpu0_L1D AVERAGE MISS LATENCY: 65.0926 cycles
cpu0_L2C TOTAL       ACCESS:    8795642  HIT:    4243010  MISS:    4552632  iACCESS:    3842625  iHIT:    2318652  iMISS:    1523973  dACCESS:    4452233  dHIT:    1864409  dMISS:    2587824  itACCESS:     118725  itHIT:      21227  itMISS:      97498  dtACCESS:     382059  dtHIT:      38722  dtMISS:     343337
cpu0_L2C LOAD         ACCESS:    2115933  HIT:    1022263  MISS:    1093670  iACCESS:     861822  iHIT:     540891  iMISS:     320931  dACCESS:    1254111  dHIT:     481372  dMISS:     772739  itACCESS:          0  itHIT:          0  itMISS:          0  dtACCESS:          0  dtHIT:          0  dtMISS:          0
cpu0_L2C RFO          ACCESS:     225318  HIT:      89015  MISS:     136303  iACCESS:          0  iHIT:          0  iMISS:          0  dACCESS:     225318  dHIT:      89015  dMISS:     136303  itACCESS:          0  itHIT:          0  itMISS:          0  dtACCESS:          0  dtHIT:          0  dtMISS:          0
cpu0_L2C PREFETCH     ACCESS:    5604324  HIT:    2726471  MISS:    2877853  iACCESS:    2980803  iHIT:    1777761  iMISS:    1203042  dACCESS:    2623521  dHIT:     948710  dMISS:    1674811  itACCESS:          0  itHIT:          0  itMISS:          0  dtACCESS:          0  dtHIT:          0  dtMISS:          0
cpu0_L2C WRITE        ACCESS:     349283  HIT:     345312  MISS:       3971  iACCESS:          0  iHIT:          0  iMISS:          0  dACCESS:     349283  dHIT:     345312  dMISS:       3971  itACCESS:          0  itHIT:          0  itMISS:          0  dtACCESS:          0  dtHIT:          0  dtMISS:          0
cpu0_L2C TRANSLATION  ACCESS:     500784  HIT:      59949  MISS:     440835  iACCESS:          0  iHIT:          0  iMISS:          0  dACCESS:          0  dHIT:          0  dMISS:          0  itACCESS:     118725  itHIT:      21227  itMISS:      97498  dtACCESS:     382059  dtHIT:      38722  dtMISS:     343337
cpu0_L2C PREFETCH  REQUESTED:    1525006  ISSUED:    1525006  CROSSED:          0  USEFUL:     350204  USELESS:     329729
cpu0_L2C AVERAGE iMISS LATENCY: 41.0202 cycles
cpu0_L2C AVERAGE dMISS LATENCY: 81.5038 cycles
cpu0_L2C AVERAGE itMISS LATENCY: 3.99644 cycles
cpu0_L2C AVERAGE dtMISS LATENCY: 14.7465 cycles
cpu0_L2C PAGE CROSSINGS (TLB HIT):         0 
cpu0_L2C PAGE CROSSINGS (TLB MISS):         0 
cpu0_L2C AVERAGE MISS LATENCY: 141.267 cycles
LLC TOTAL       ACCESS:    4545481  HIT:    1317184  MISS:    3228297  iACCESS:    1436787  iHIT:     440152  iMISS:     996635  dACCESS:    2667859  dHIT:     838007  dMISS:    1829852  itACCESS:      97498  itHIT:       6882  itMISS:      90616  dtACCESS:     343337  dtHIT:      32143  dtMISS:     311194
LLC LOAD         ACCESS:    1085465  HIT:     331129  MISS:     754336  iACCESS:     319726  iHIT:     107358  iMISS:     212368  dACCESS:     765739  dHIT:     223771  dMISS:     541968  itACCESS:          0  itHIT:          0  itMISS:          0  dtACCESS:          0  dtHIT:          0  dtMISS:          0
LLC RFO          ACCESS:     136296  HIT:      39283  MISS:      97013  iACCESS:          0  iHIT:          0  iMISS:          0  dACCESS:     136296  dHIT:      39283  dMISS:      97013  itACCESS:          0  itHIT:          0  itMISS:          0  dtACCESS:          0  dtHIT:          0  dtMISS:          0
LLC PREFETCH     ACCESS:    2670468  HIT:     706193  MISS:    1964275  iACCESS:    1117061  iHIT:     332794  iMISS:     784267  dACCESS:    1553407  dHIT:     373399  dMISS:    1180008  itACCESS:          0  itHIT:          0  itMISS:          0  dtACCESS:          0  dtHIT:          0  dtMISS:          0
LLC WRITE        ACCESS:     212417  HIT:     201554  MISS:      10863  iACCESS:          0  iHIT:          0  iMISS:          0  dACCESS:     212417  dHIT:     201554  dMISS:      10863  itACCESS:          0  itHIT:          0  itMISS:          0  dtACCESS:          0  dtHIT:          0  dtMISS:          0
LLC TRANSLATION  ACCESS:     440835  HIT:      39025  MISS:     401810  iACCESS:          0  iHIT:          0  iMISS:          0  dACCESS:          0  dHIT:          0  dMISS:          0  itACCESS:      97498  itHIT:       6882  itMISS:      90616  dtACCESS:     343337  dtHIT:      32143  dtMISS:     311194
LLC PREFETCH  REQUESTED:          0  ISSUED:          0  CROSSED:          0  USEFUL:          0  USELESS:          0
LLC AVERAGE iMISS LATENCY: 49.0764 cycles
LLC AVERAGE dMISS LATENCY: 100.859 cycles
LLC AVERAGE itMISS LATENCY: 5.03684 cycles
LLC AVERAGE dtMISS LATENCY: 18.6925 cycles
LLC PAGE CROSSINGS (TLB HIT):         0 
LLC PAGE CROSSINGS (TLB MISS):         0 
LLC AVERAGE MISS LATENCY: 173.665 cycles

PageTableWalker TOTAL       ACCESS:     193875  
PageTableWalker AVERAGE LATENCY: 6.5177 cycles
PageTableWalker TOTAL LATENCY: 1263618 cycles

DRAM Statistics
Channel 0
 RQ ROW_BUFFER_HIT:     665106
  ROW_BUFFER_MISS:    2532275
 AVG DBUS CONGESTED CYCLE:    3.65161
 WQ ROW_BUFFER_HIT:      68416
  ROW_BUFFER_MISS:      57929  FULL:          0

