last_page:0x200000000000000
VMEM_RES_CAP:0x100000
PAGE_SIZE:4096
LOG2_PAGE_SIZE:12
LOG2_PAGE_TABLE_SIZE:9
page_table_levels:5
WARNING: physical memory size is smaller than virtual memory size
FDiP enabled with aggresivity 16

*** ChampSim Multicore Out-of-Order Simulator ***

Warmup Instructions: 50000000
Simulation Instructions: 100000000
Number of CPUs: 1
Small page size: 4096
Large page size: 2097152

CPU 0 Bimodal branch predictor
Basic BTB sets: 1024 ways: 8 indirect buffer size: 4096 RAS size: 64
Instruction page size distrubution: 0
Loading instruction page size distribution from /home/bsc/bsc018186/scratch/itp_asplos25_AE/dump/smt_srv85_ap_srv551_ap_1024i.pdst
Data page size distrubution: 0
Loading data page size distribution from /home/bsc/bsc018186/scratch/itp_asplos25_AE/dump/smt_srv85_ap_srv551_ap_1024i.pdst
cpu0_L2C IP-based stride prefetcher
cpu0_L1D next line prefetcher
CHiRPing...
cpu0_L1I next line prefetcher
Off-chip DRAM Size: 4 GiB Channels: 1 Width: 64-bit Data Rate: 3200 MT/s
Heartbeat CPU 0 instructions: 10000000 cycles: 2500307 heartbeat IPC: 3.99951 cumulative IPC: 3.99951 (Simulation time: 0 hr 0 min 41 sec) 
Heartbeat CPU 0 instructions: 20000000 cycles: 5000542 heartbeat IPC: 3.99963 cumulative IPC: 3.99957 (Simulation time: 0 hr 1 min 24 sec) 
Heartbeat CPU 0 instructions: 30000003 cycles: 7501009 heartbeat IPC: 3.99926 cumulative IPC: 3.99947 (Simulation time: 0 hr 2 min 8 sec) 
Heartbeat CPU 0 instructions: 40000001 cycles: 10001572 heartbeat IPC: 3.9991 cumulative IPC: 3.99938 (Simulation time: 0 hr 2 min 51 sec) 
Heartbeat CPU 0 instructions: 50000001 cycles: 12501970 heartbeat IPC: 3.99937 cumulative IPC: 3.99937 (Simulation time: 0 hr 3 min 35 sec) 
Warmup finished CPU 0 instructions: 50000001 cycles: 12501971 cumulative IPC: 3.99937 (Simulation time: 0 hr 3 min 35 sec) 

Warmup complete CPU 0 instructions: 50000001 cycles: 12501971 (Simulation time: 0 hr 3 min 35 sec) 

Heartbeat CPU 0 instructions: 60000000 cycles: 43469402 heartbeat IPC: 0.32292 cumulative IPC: 0.32292 (Simulation time: 0 hr 5 min 7 sec) 
Heartbeat CPU 0 instructions: 70000000 cycles: 75101825 heartbeat IPC: 0.316132 cumulative IPC: 0.31949 (Simulation time: 0 hr 6 min 40 sec) 
Heartbeat CPU 0 instructions: 80000002 cycles: 105547193 heartbeat IPC: 0.328458 cumulative IPC: 0.322424 (Simulation time: 0 hr 8 min 11 sec) 
Heartbeat CPU 0 instructions: 90000002 cycles: 136520497 heartbeat IPC: 0.322859 cumulative IPC: 0.322533 (Simulation time: 0 hr 9 min 43 sec) 
Heartbeat CPU 0 instructions: 100000000 cycles: 167928031 heartbeat IPC: 0.318395 cumulative IPC: 0.321697 (Simulation time: 0 hr 11 min 15 sec) 
Heartbeat CPU 0 instructions: 110000000 cycles: 197820850 heartbeat IPC: 0.334529 cumulative IPC: 0.323767 (Simulation time: 0 hr 12 min 46 sec) 
Heartbeat CPU 0 instructions: 120000000 cycles: 223693464 heartbeat IPC: 0.38651 cumulative IPC: 0.331453 (Simulation time: 0 hr 14 min 12 sec) 
Heartbeat CPU 0 instructions: 130000001 cycles: 241004623 heartbeat IPC: 0.577663 cumulative IPC: 0.350106 (Simulation time: 0 hr 15 min 27 sec) 
Heartbeat CPU 0 instructions: 140000001 cycles: 258995379 heartbeat IPC: 0.555842 cumulative IPC: 0.365122 (Simulation time: 0 hr 16 min 43 sec) 
Heartbeat CPU 0 instructions: 150000000 cycles: 291617822 heartbeat IPC: 0.306538 cumulative IPC: 0.358275 (Simulation time: 0 hr 18 min 17 sec) 
Simulation finished CPU 0 instructions: 100000004 cycles: 279115853 cumulative IPC: 0.358275 (Simulation time: 0 hr 18 min 17 sec) 

Simulation complete CPU 0 instructions: 100000004 cycles: 279115853 (Simulation time: 0 hr 18 min 17 sec) 


ChampSim completed all CPUs

Saving instructions large page distribution to /home/bsc/bsc018186/scratch/itp_asplos25_AE/dump/smt_srv85_ap_srv551_ap_1024i.pdst...
Saving data large page distribution to /home/bsc/bsc018186/scratch/itp_asplos25_AE/dump/smt_srv85_ap_srv551_ap_1024i.pdst...
=== Simulation ===
CPU 0 runs /gpfs/projects/bsc18/MN4/bsc18/romol/ChampSim/traces/qualcomm_srv/smt_srv85_ap_srv551_ap_1024i.champsimtrace.xz

Region of Interest Statistics

CPU 0 cumulative IPC: 0.358275 instructions: 100000004 cycles: 279115853
CPU 0 Branch Prediction Accuracy: 77.8805% MPKI: 42.6554 Average ROB Occupancy at Mispredict: 11.2642
Branch type MPKI
BRANCH_DIRECT_JUMP: 1.24167
BRANCH_INDIRECT: 23.0029
BRANCH_CONDITIONAL: 11.689
BRANCH_DIRECT_CALL: 2.35968
BRANCH_INDIRECT_CALL: 1.06193
BRANCH_RETURN: 3.30024

Instructions large pages: 0
Instructions small pages: 10447
Large page distribution for instructions: 0%

Data large pages: 0
Data small pages: 8982
Large page distribution for data: 0%

cpu0_L1I TOTAL       ACCESS:   39753503  HIT:   32018294  MISS:    7735209  iACCESS:   39753503  iHIT:   32018294  iMISS:    7735209  dACCESS:          0  dHIT:          0  dMISS:          0  itACCESS:          0  itHIT:          0  itMISS:          0  dtACCESS:          0  dtHIT:          0  dtMISS:          0
cpu0_L1I LOAD         ACCESS:   11354832  HIT:    9248585  MISS:    2106247  iACCESS:   11354832  iHIT:    9248585  iMISS:    2106247  dACCESS:          0  dHIT:          0  dMISS:          0  itACCESS:          0  itHIT:          0  itMISS:          0  dtACCESS:          0  dtHIT:          0  dtMISS:          0
cpu0_L1I RFO          ACCESS:          0  HIT:          0  MISS:          0  iACCESS:          0  iHIT:          0  iMISS:          0  dACCESS:          0  dHIT:          0  dMISS:          0  itACCESS:          0  itHIT:          0  itMISS:          0  dtACCESS:          0  dtHIT:          0  dtMISS:          0
cpu0_L1I PREFETCH     ACCESS:   28398671  HIT:   22769709  MISS:    5628962  iACCESS:   28398671  iHIT:   22769709  iMISS:    5628962  dACCESS:          0  dHIT:          0  dMISS:          0  itACCESS:          0  itHIT:          0  itMISS:          0  dtACCESS:          0  dtHIT:          0  dtMISS:          0
cpu0_L1I WRITE        ACCESS:          0  HIT:          0  MISS:          0  iACCESS:          0  iHIT:          0  iMISS:          0  dACCESS:          0  dHIT:          0  dMISS:          0  itACCESS:          0  itHIT:          0  itMISS:          0  dtACCESS:          0  dtHIT:          0  dtMISS:          0
cpu0_L1I TRANSLATION  ACCESS:          0  HIT:          0  MISS:          0  iACCESS:          0  iHIT:          0  iMISS:          0  dACCESS:          0  dHIT:          0  dMISS:          0  itACCESS:          0  itHIT:          0  itMISS:          0  dtACCESS:          0  dtHIT:          0  dtMISS:          0
cpu0_L1I PREFETCH  REQUESTED:   31084627  ISSUED:   31084623  CROSSED:          0  USEFUL:    1969261  USELESS:     685773
cpu0_L1I AVERAGE iMISS LATENCY: 24.6421 cycles
cpu0_L1I AVERAGE dMISS LATENCY: 0 cycles
cpu0_L1I AVERAGE itMISS LATENCY: 0 cycles
cpu0_L1I AVERAGE dtMISS LATENCY: 0 cycles
cpu0_L1I PAGE CROSSINGS (TLB HIT):         0 
cpu0_L1I PAGE CROSSINGS (TLB MISS):         0 
cpu0_L1I AVERAGE MISS LATENCY: 24.6421 cycles
cpu0_ITLB TOTAL       ACCESS:   33459193  HIT:   31469610  MISS:    1989583  iACCESS:   33459193  iHIT:   31469610  iMISS:    1989583  dACCESS:          0  dHIT:          0  dMISS:          0  itACCESS:          0  itHIT:          0  itMISS:          0  dtACCESS:          0  dtHIT:          0  dtMISS:          0
cpu0_ITLB LOAD         ACCESS:   33459193  HIT:   31469610  MISS:    1989583  iACCESS:   33459193  iHIT:   31469610  iMISS:    1989583  dACCESS:          0  dHIT:          0  dMISS:          0  itACCESS:          0  itHIT:          0  itMISS:          0  dtACCESS:          0  dtHIT:          0  dtMISS:          0
cpu0_ITLB RFO          ACCESS:          0  HIT:          0  MISS:          0  iACCESS:          0  iHIT:          0  iMISS:          0  dACCESS:          0  dHIT:          0  dMISS:          0  itACCESS:          0  itHIT:          0  itMISS:          0  dtACCESS:          0  dtHIT:          0  dtMISS:          0
cpu0_ITLB PREFETCH     ACCESS:          0  HIT:          0  MISS:          0  iACCESS:          0  iHIT:          0  iMISS:          0  dACCESS:          0  dHIT:          0  dMISS:          0  itACCESS:          0  itHIT:          0  itMISS:          0  dtACCESS:          0  dtHIT:          0  dtMISS:          0
cpu0_ITLB WRITE        ACCESS:          0  HIT:          0  MISS:          0  iACCESS:          0  iHIT:          0  iMISS:          0  dACCESS:          0  dHIT:          0  dMISS:          0  itACCESS:          0  itHIT:          0  itMISS:          0  dtACCESS:          0  dtHIT:          0  dtMISS:          0
cpu0_ITLB TRANSLATION  ACCESS:          0  HIT:          0  MISS:          0  iACCESS:          0  iHIT:          0  iMISS:          0  dACCESS:          0  dHIT:          0  dMISS:          0  itACCESS:          0  itHIT:          0  itMISS:          0  dtACCESS:          0  dtHIT:          0  dtMISS:          0
cpu0_ITLB PREFETCH  REQUESTED:          0  ISSUED:          0  CROSSED:          0  USEFUL:     347456  USELESS:      71394
cpu0_ITLB AVERAGE iMISS LATENCY: 10.514 cycles
cpu0_ITLB AVERAGE dMISS LATENCY: 0 cycles
cpu0_ITLB AVERAGE itMISS LATENCY: 0 cycles
cpu0_ITLB AVERAGE dtMISS LATENCY: 0 cycles
cpu0_ITLB PAGE CROSSINGS (TLB HIT):         0 
cpu0_ITLB PAGE CROSSINGS (TLB MISS):         0 
cpu0_ITLB AVERAGE MISS LATENCY: 10.514 cycles
cpu0_DTLB TOTAL       ACCESS:   30761910  HIT:   24596286  MISS:    6165624  iACCESS:          0  iHIT:          0  iMISS:          0  dACCESS:   30761910  dHIT:   24596286  dMISS:    6165624  itACCESS:          0  itHIT:          0  itMISS:          0  dtACCESS:          0  dtHIT:          0  dtMISS:          0
cpu0_DTLB LOAD         ACCESS:   30761910  HIT:   24596286  MISS:    6165624  iACCESS:          0  iHIT:          0  iMISS:          0  dACCESS:   30761910  dHIT:   24596286  dMISS:    6165624  itACCESS:          0  itHIT:          0  itMISS:          0  dtACCESS:          0  dtHIT:          0  dtMISS:          0
cpu0_DTLB RFO          ACCESS:          0  HIT:          0  MISS:          0  iACCESS:          0  iHIT:          0  iMISS:          0  dACCESS:          0  dHIT:          0  dMISS:          0  itACCESS:          0  itHIT:          0  itMISS:          0  dtACCESS:          0  dtHIT:          0  dtMISS:          0
cpu0_DTLB PREFETCH     ACCESS:          0  HIT:          0  MISS:          0  iACCESS:          0  iHIT:          0  iMISS:          0  dACCESS:          0  dHIT:          0  dMISS:          0  itACCESS:          0  itHIT:          0  itMISS:          0  dtACCESS:          0  dtHIT:          0  dtMISS:          0
cpu0_DTLB WRITE        ACCESS:          0  HIT:          0  MISS:          0  iACCESS:          0  iHIT:          0  iMISS:          0  dACCESS:          0  dHIT:          0  dMISS:          0  itACCESS:          0  itHIT:          0  itMISS:          0  dtACCESS:          0  dtHIT:          0  dtMISS:          0
cpu0_DTLB TRANSLATION  ACCESS:          0  HIT:          0  MISS:          0  iACCESS:          0  iHIT:          0  iMISS:          0  dACCESS:          0  dHIT:          0  dMISS:          0  itACCESS:          0  itHIT:          0  itMISS:          0  dtACCESS:          0  dtHIT:          0  dtMISS:          0
cpu0_DTLB PREFETCH  REQUESTED:          0  ISSUED:          0  CROSSED:          0  USEFUL:          0  USELESS:          0
cpu0_DTLB AVERAGE iMISS LATENCY: 0 cycles
cpu0_DTLB AVERAGE dMISS LATENCY: 14.7948 cycles
cpu0_DTLB AVERAGE itMISS LATENCY: 0 cycles
cpu0_DTLB AVERAGE dtMISS LATENCY: 0 cycles
cpu0_DTLB PAGE CROSSINGS (TLB HIT):         0 
cpu0_DTLB PAGE CROSSINGS (TLB MISS):         0 
cpu0_DTLB AVERAGE MISS LATENCY: 14.7948 cycles
cpu0_STLB TOTAL       ACCESS:    3690598  HIT:    3353333  MISS:     337265  iACCESS:     418859  iHIT:     314864  iMISS:     103995  dACCESS:    3271739  dHIT:    3038469  dMISS:     233270  itACCESS:          0  itHIT:          0  itMISS:          0  dtACCESS:          0  dtHIT:          0  dtMISS:          0
cpu0_STLB LOAD         ACCESS:    3690598  HIT:    3353333  MISS:     337265  iACCESS:     418859  iHIT:     314864  iMISS:     103995  dACCESS:    3271739  dHIT:    3038469  dMISS:     233270  itACCESS:          0  itHIT:          0  itMISS:          0  dtACCESS:          0  dtHIT:          0  dtMISS:          0
cpu0_STLB RFO          ACCESS:          0  HIT:          0  MISS:          0  iACCESS:          0  iHIT:          0  iMISS:          0  dACCESS:          0  dHIT:          0  dMISS:          0  itACCESS:          0  itHIT:          0  itMISS:          0  dtACCESS:          0  dtHIT:          0  dtMISS:          0
cpu0_STLB PREFETCH     ACCESS:          0  HIT:          0  MISS:          0  iACCESS:          0  iHIT:          0  iMISS:          0  dACCESS:          0  dHIT:          0  dMISS:          0  itACCESS:          0  itHIT:          0  itMISS:          0  dtACCESS:          0  dtHIT:          0  dtMISS:          0
cpu0_STLB WRITE        ACCESS:          0  HIT:          0  MISS:          0  iACCESS:          0  iHIT:          0  iMISS:          0  dACCESS:          0  dHIT:          0  dMISS:          0  itACCESS:          0  itHIT:          0  itMISS:          0  dtACCESS:          0  dtHIT:          0  dtMISS:          0
cpu0_STLB TRANSLATION  ACCESS:          0  HIT:          0  MISS:          0  iACCESS:          0  iHIT:          0  iMISS:          0  dACCESS:          0  dHIT:          0  dMISS:          0  itACCESS:          0  itHIT:          0  itMISS:          0  dtACCESS:          0  dtHIT:          0  dtMISS:          0
cpu0_STLB PREFETCH  REQUESTED:          0  ISSUED:          0  CROSSED:          0  USEFUL:          0  USELESS:          0
cpu0_STLB AVERAGE iMISS LATENCY: 52.0796 cycles
cpu0_STLB AVERAGE dMISS LATENCY: 191.994 cycles
cpu0_STLB AVERAGE itMISS LATENCY: 0 cycles
cpu0_STLB AVERAGE dtMISS LATENCY: 0 cycles
cpu0_STLB PAGE CROSSINGS (TLB HIT):         0 
cpu0_STLB PAGE CROSSINGS (TLB MISS):         0 
cpu0_STLB AVERAGE MISS LATENCY: 244.074 cycles
cpu0_L1D TOTAL       ACCESS:   47784342  HIT:   39626991  MISS:    8157351  iACCESS:          0  iHIT:          0  iMISS:          0  dACCESS:   47297480  dHIT:   39598746  dMISS:    7698734  itACCESS:     116252  itHIT:      12582  itMISS:     103670  dtACCESS:     370610  dtHIT:      15663  dtMISS:     354947
cpu0_L1D LOAD         ACCESS:   22697218  HIT:   18367527  MISS:    4329691  iACCESS:          0  iHIT:          0  iMISS:          0  dACCESS:   22697218  dHIT:   18367527  dMISS:    4329691  itACCESS:          0  itHIT:          0  itMISS:          0  dtACCESS:          0  dtHIT:          0  dtMISS:          0
cpu0_L1D RFO          ACCESS:          0  HIT:          0  MISS:          0  iACCESS:          0  iHIT:          0  iMISS:          0  dACCESS:          0  dHIT:          0  dMISS:          0  itACCESS:          0  itHIT:          0  itMISS:          0  dtACCESS:          0  dtHIT:          0  dtMISS:          0
cpu0_L1D PREFETCH     ACCESS:   14815565  HIT:   12028443  MISS:    2787122  iACCESS:          0  iHIT:          0  iMISS:          0  dACCESS:   14815565  dHIT:   12028443  dMISS:    2787122  itACCESS:          0  itHIT:          0  itMISS:          0  dtACCESS:          0  dtHIT:          0  dtMISS:          0
cpu0_L1D WRITE        ACCESS:    9784697  HIT:    9202776  MISS:     581921  iACCESS:          0  iHIT:          0  iMISS:          0  dACCESS:    9784697  dHIT:    9202776  dMISS:     581921  itACCESS:          0  itHIT:          0  itMISS:          0  dtACCESS:          0  dtHIT:          0  dtMISS:          0
cpu0_L1D TRANSLATION  ACCESS:     486862  HIT:      28245  MISS:     458617  iACCESS:          0  iHIT:          0  iMISS:          0  dACCESS:          0  dHIT:          0  dMISS:          0  itACCESS:     116252  itHIT:      12582  itMISS:     103670  dtACCESS:     370610  dtHIT:      15663  dtMISS:     354947
cpu0_L1D PREFETCH  REQUESTED:   22697218  ISSUED:   18928822  CROSSED:          0  USEFUL:     327609  USELESS:    1173427
cpu0_L1D AVERAGE iMISS LATENCY: 0 cycles
cpu0_L1D AVERAGE dMISS LATENCY: 34.3993 cycles
cpu0_L1D AVERAGE itMISS LATENCY: 2.03121 cycles
cpu0_L1D AVERAGE dtMISS LATENCY: 7.41842 cycles
cpu0_L1D PAGE CROSSINGS (TLB HIT):         0 
cpu0_L1D PAGE CROSSINGS (TLB MISS):         0 
cpu0_L1D AVERAGE MISS LATENCY: 43.8489 cycles
cpu0_L2C TOTAL       ACCESS:    9961162  HIT:    6037930  MISS:    3923232  iACCESS:    3372409  iHIT:    2050682  iMISS:    1321727  dACCESS:    6154830  dHIT:    3932677  dMISS:    2222153  itACCESS:     103384  itHIT:      19071  itMISS:      84313  dtACCESS:     330539  dtHIT:      35500  dtMISS:     295039
cpu0_L2C LOAD         ACCESS:    3673239  HIT:    2744748  MISS:     928491  iACCESS:     749917  iHIT:     476032  iMISS:     273885  dACCESS:    2923322  dHIT:    2268716  dMISS:     654606  itACCESS:          0  itHIT:          0  itMISS:          0  dtACCESS:          0  dtHIT:          0  dtMISS:          0
cpu0_L2C RFO          ACCESS:     225806  HIT:     110984  MISS:     114822  iACCESS:          0  iHIT:          0  iMISS:          0  dACCESS:     225806  dHIT:     110984  dMISS:     114822  itACCESS:          0  itHIT:          0  itMISS:          0  dtACCESS:          0  dtHIT:          0  dtMISS:          0
cpu0_L2C PREFETCH     ACCESS:    5302518  HIT:    2804978  MISS:    2497540  iACCESS:    2622492  iHIT:    1574650  iMISS:    1047842  dACCESS:    2680026  dHIT:    1230328  dMISS:    1449698  itACCESS:          0  itHIT:          0  itMISS:          0  dtACCESS:          0  dtHIT:          0  dtMISS:          0
cpu0_L2C WRITE        ACCESS:     325676  HIT:     322649  MISS:       3027  iACCESS:          0  iHIT:          0  iMISS:          0  dACCESS:     325676  dHIT:     322649  dMISS:       3027  itACCESS:          0  itHIT:          0  itMISS:          0  dtACCESS:          0  dtHIT:          0  dtMISS:          0
cpu0_L2C TRANSLATION  ACCESS:     433923  HIT:      54571  MISS:     379352  iACCESS:          0  iHIT:          0  iMISS:          0  dACCESS:          0  dHIT:          0  dMISS:          0  itACCESS:     103384  itHIT:      19071  itMISS:      84313  dtACCESS:     330539  dtHIT:      35500  dtMISS:     295039
cpu0_L2C PREFETCH  REQUESTED:    1392392  ISSUED:    1392300  CROSSED:          0  USEFUL:     315741  USELESS:     287303
cpu0_L2C AVERAGE iMISS LATENCY: 41.4593 cycles
cpu0_L2C AVERAGE dMISS LATENCY: 80.0461 cycles
cpu0_L2C AVERAGE itMISS LATENCY: 3.96392 cycles
cpu0_L2C AVERAGE dtMISS LATENCY: 14.5865 cycles
cpu0_L2C PAGE CROSSINGS (TLB HIT):         0 
cpu0_L2C PAGE CROSSINGS (TLB MISS):         0 
cpu0_L2C AVERAGE MISS LATENCY: 140.056 cycles
LLC TOTAL       ACCESS:    3909787  HIT:    1126151  MISS:    2783636  iACCESS:    1241509  iHIT:     364029  iMISS:     877480  dACCESS:    2288926  dHIT:     725405  dMISS:    1563521  itACCESS:      84313  itHIT:       6782  itMISS:      77531  dtACCESS:     295039  dtHIT:      29935  dtMISS:     265104
LLC LOAD         ACCESS:     921088  HIT:     279838  MISS:     641250  iACCESS:     272726  iHIT:      86324  iMISS:     186402  dACCESS:     648362  dHIT:     193514  dMISS:     454848  itACCESS:          0  itHIT:          0  itMISS:          0  dtACCESS:          0  dtHIT:          0  dtMISS:          0
LLC RFO          ACCESS:     114819  HIT:      33252  MISS:      81567  iACCESS:          0  iHIT:          0  iMISS:          0  dACCESS:     114819  dHIT:      33252  dMISS:      81567  itACCESS:          0  itHIT:          0  itMISS:          0  dtACCESS:          0  dtHIT:          0  dtMISS:          0
LLC PREFETCH     ACCESS:    2309277  HIT:     600257  MISS:    1709020  iACCESS:     968783  iHIT:     277705  iMISS:     691078  dACCESS:    1340494  dHIT:     322552  dMISS:    1017942  itACCESS:          0  itHIT:          0  itMISS:          0  dtACCESS:          0  dtHIT:          0  dtMISS:          0
LLC WRITE        ACCESS:     185251  HIT:     176087  MISS:       9164  iACCESS:          0  iHIT:          0  iMISS:          0  dACCESS:     185251  dHIT:     176087  dMISS:       9164  itACCESS:          0  itHIT:          0  itMISS:          0  dtACCESS:          0  dtHIT:          0  dtMISS:          0
LLC TRANSLATION  ACCESS:     379352  HIT:      36717  MISS:     342635  iACCESS:          0  iHIT:          0  iMISS:          0  dACCESS:          0  dHIT:          0  dMISS:          0  itACCESS:      84313  itHIT:       6782  itMISS:      77531  dtACCESS:     295039  dtHIT:      29935  dtMISS:     265104
LLC PREFETCH  REQUESTED:          0  ISSUED:          0  CROSSED:          0  USEFUL:          0  USELESS:          0
LLC AVERAGE iMISS LATENCY: 49.6372 cycles
LLC AVERAGE dMISS LATENCY: 98.7971 cycles
LLC AVERAGE itMISS LATENCY: 4.98612 cycles
LLC AVERAGE dtMISS LATENCY: 18.4624 cycles
LLC PAGE CROSSINGS (TLB HIT):         0 
LLC PAGE CROSSINGS (TLB MISS):         0 
LLC AVERAGE MISS LATENCY: 171.883 cycles

PageTableWalker TOTAL       ACCESS:     197262  
PageTableWalker AVERAGE LATENCY: 6.52869 cycles
PageTableWalker TOTAL LATENCY: 1287862 cycles

DRAM Statistics
Channel 0
 RQ ROW_BUFFER_HIT:     598699
  ROW_BUFFER_MISS:    2158920
 AVG DBUS CONGESTED CYCLE:    3.65114
 WQ ROW_BUFFER_HIT:      59264
  ROW_BUFFER_MISS:      51281  FULL:          0

