last_page:0x200000000000000
VMEM_RES_CAP:0x100000
PAGE_SIZE:4096
LOG2_PAGE_SIZE:12
LOG2_PAGE_TABLE_SIZE:9
page_table_levels:5
WARNING: physical memory size is smaller than virtual memory size
FDiP enabled with aggresivity 16

*** ChampSim Multicore Out-of-Order Simulator ***

Warmup Instructions: 50000000
Simulation Instructions: 100000000
Number of CPUs: 1
Small page size: 4096
Large page size: 2097152

CPU 0 Bimodal branch predictor
Basic BTB sets: 1024 ways: 8 indirect buffer size: 4096 RAS size: 64
Instruction page size distrubution: 0
Loading instruction page size distribution from /home/bsc/bsc018186/scratch/itp_asplos25_AE/dump/smt_srv207_ap_srv442_ap_1024i.pdst
Data page size distrubution: 0
Loading data page size distribution from /home/bsc/bsc018186/scratch/itp_asplos25_AE/dump/smt_srv207_ap_srv442_ap_1024i.pdst
cpu0_L2C IP-based stride prefetcher
cpu0_L1D next line prefetcher
cpu0_L1I next line prefetcher
Off-chip DRAM Size: 4 GiB Channels: 1 Width: 64-bit Data Rate: 3200 MT/s
Heartbeat CPU 0 instructions: 10000002 cycles: 2500795 heartbeat IPC: 3.99873 cumulative IPC: 3.99873 (Simulation time: 0 hr 0 min 48 sec) 
Heartbeat CPU 0 instructions: 20000002 cycles: 5001123 heartbeat IPC: 3.99948 cumulative IPC: 3.99911 (Simulation time: 0 hr 1 min 37 sec) 
Heartbeat CPU 0 instructions: 30000002 cycles: 7501348 heartbeat IPC: 3.99965 cumulative IPC: 3.99929 (Simulation time: 0 hr 2 min 23 sec) 
Heartbeat CPU 0 instructions: 40000002 cycles: 10001682 heartbeat IPC: 3.99947 cumulative IPC: 3.99933 (Simulation time: 0 hr 3 min 14 sec) 
Heartbeat CPU 0 instructions: 50000003 cycles: 12502200 heartbeat IPC: 3.99918 cumulative IPC: 3.9993 (Simulation time: 0 hr 4 min 5 sec) 
Warmup finished CPU 0 instructions: 50000003 cycles: 12502201 cumulative IPC: 3.9993 (Simulation time: 0 hr 4 min 5 sec) 

Warmup complete CPU 0 instructions: 50000003 cycles: 12502201 (Simulation time: 0 hr 4 min 5 sec) 

Heartbeat CPU 0 instructions: 60000000 cycles: 40541220 heartbeat IPC: 0.356646 cumulative IPC: 0.356646 (Simulation time: 0 hr 5 min 47 sec) 
Heartbeat CPU 0 instructions: 70000004 cycles: 67499786 heartbeat IPC: 0.37094 cumulative IPC: 0.363653 (Simulation time: 0 hr 7 min 23 sec) 
Heartbeat CPU 0 instructions: 80000000 cycles: 95746860 heartbeat IPC: 0.354019 cumulative IPC: 0.360384 (Simulation time: 0 hr 9 min 5 sec) 
Heartbeat CPU 0 instructions: 90000003 cycles: 123752177 heartbeat IPC: 0.357076 cumulative IPC: 0.359551 (Simulation time: 0 hr 10 min 45 sec) 
Heartbeat CPU 0 instructions: 100000000 cycles: 151603139 heartbeat IPC: 0.359054 cumulative IPC: 0.359452 (Simulation time: 0 hr 12 min 25 sec) 
Heartbeat CPU 0 instructions: 110000000 cycles: 180045327 heartbeat IPC: 0.351591 cumulative IPC: 0.358117 (Simulation time: 0 hr 14 min 6 sec) 
Heartbeat CPU 0 instructions: 120000002 cycles: 207485663 heartbeat IPC: 0.364428 cumulative IPC: 0.359005 (Simulation time: 0 hr 15 min 38 sec) 
Heartbeat CPU 0 instructions: 130000000 cycles: 234682663 heartbeat IPC: 0.367688 cumulative IPC: 0.360068 (Simulation time: 0 hr 17 min 13 sec) 
Heartbeat CPU 0 instructions: 140000002 cycles: 262074950 heartbeat IPC: 0.365067 cumulative IPC: 0.360617 (Simulation time: 0 hr 18 min 46 sec) 
Heartbeat CPU 0 instructions: 150000002 cycles: 289216653 heartbeat IPC: 0.368437 cumulative IPC: 0.361384 (Simulation time: 0 hr 20 min 15 sec) 
Simulation finished CPU 0 instructions: 100000003 cycles: 276714454 cumulative IPC: 0.361384 (Simulation time: 0 hr 20 min 15 sec) 

Simulation complete CPU 0 instructions: 100000003 cycles: 276714454 (Simulation time: 0 hr 20 min 15 sec) 


ChampSim completed all CPUs

Saving instructions large page distribution to /home/bsc/bsc018186/scratch/itp_asplos25_AE/dump/smt_srv207_ap_srv442_ap_1024i.pdst...
Saving data large page distribution to /home/bsc/bsc018186/scratch/itp_asplos25_AE/dump/smt_srv207_ap_srv442_ap_1024i.pdst...
=== Simulation ===
CPU 0 runs /gpfs/projects/bsc18/MN4/bsc18/romol/ChampSim/traces/qualcomm_srv/smt_srv207_ap_srv442_ap_1024i.champsimtrace.xz

Region of Interest Statistics

CPU 0 cumulative IPC: 0.361384 instructions: 100000003 cycles: 276714454
CPU 0 Branch Prediction Accuracy: 75.6611% MPKI: 43.8453 Average ROB Occupancy at Mispredict: 10.9152
Branch type MPKI
BRANCH_DIRECT_JUMP: 1.36284
BRANCH_INDIRECT: 23.7831
BRANCH_CONDITIONAL: 11.7096
BRANCH_DIRECT_CALL: 2.49862
BRANCH_INDIRECT_CALL: 1.01578
BRANCH_RETURN: 3.47536

Instructions large pages: 0
Instructions small pages: 11573
Large page distribution for instructions: 0%

Data large pages: 0
Data small pages: 10267
Large page distribution for data: 0%

cpu0_L1I TOTAL       ACCESS:   39240632  HIT:   29790374  MISS:    9450258  iACCESS:   39240632  iHIT:   29790374  iMISS:    9450258  dACCESS:          0  dHIT:          0  dMISS:          0  itACCESS:          0  itHIT:          0  itMISS:          0  dtACCESS:          0  dtHIT:          0  dtMISS:          0
cpu0_L1I LOAD         ACCESS:   11630102  HIT:    9035328  MISS:    2594774  iACCESS:   11630102  iHIT:    9035328  iMISS:    2594774  dACCESS:          0  dHIT:          0  dMISS:          0  itACCESS:          0  itHIT:          0  itMISS:          0  dtACCESS:          0  dtHIT:          0  dtMISS:          0
cpu0_L1I RFO          ACCESS:          0  HIT:          0  MISS:          0  iACCESS:          0  iHIT:          0  iMISS:          0  dACCESS:          0  dHIT:          0  dMISS:          0  itACCESS:          0  itHIT:          0  itMISS:          0  dtACCESS:          0  dtHIT:          0  dtMISS:          0
cpu0_L1I PREFETCH     ACCESS:   27610530  HIT:   20755046  MISS:    6855484  iACCESS:   27610530  iHIT:   20755046  iMISS:    6855484  dACCESS:          0  dHIT:          0  dMISS:          0  itACCESS:          0  itHIT:          0  itMISS:          0  dtACCESS:          0  dtHIT:          0  dtMISS:          0
cpu0_L1I WRITE        ACCESS:          0  HIT:          0  MISS:          0  iACCESS:          0  iHIT:          0  iMISS:          0  dACCESS:          0  dHIT:          0  dMISS:          0  itACCESS:          0  itHIT:          0  itMISS:          0  dtACCESS:          0  dtHIT:          0  dtMISS:          0
cpu0_L1I TRANSLATION  ACCESS:          0  HIT:          0  MISS:          0  iACCESS:          0  iHIT:          0  iMISS:          0  dACCESS:          0  dHIT:          0  dMISS:          0  itACCESS:          0  itHIT:          0  itMISS:          0  dtACCESS:          0  dtHIT:          0  dtMISS:          0
cpu0_L1I PREFETCH  REQUESTED:   30144885  ISSUED:   30143466  CROSSED:          0  USEFUL:    2230653  USELESS:     802156
cpu0_L1I AVERAGE iMISS LATENCY: 22.1184 cycles
cpu0_L1I AVERAGE dMISS LATENCY: 0 cycles
cpu0_L1I AVERAGE itMISS LATENCY: 0 cycles
cpu0_L1I AVERAGE dtMISS LATENCY: 0 cycles
cpu0_L1I PAGE CROSSINGS (TLB HIT):         0 
cpu0_L1I PAGE CROSSINGS (TLB MISS):         0 
cpu0_L1I AVERAGE MISS LATENCY: 22.1184 cycles
cpu0_ITLB TOTAL       ACCESS:   33006052  HIT:   30681110  MISS:    2324942  iACCESS:   33006052  iHIT:   30681110  iMISS:    2324942  dACCESS:          0  dHIT:          0  dMISS:          0  itACCESS:          0  itHIT:          0  itMISS:          0  dtACCESS:          0  dtHIT:          0  dtMISS:          0
cpu0_ITLB LOAD         ACCESS:   33006052  HIT:   30681110  MISS:    2324942  iACCESS:   33006052  iHIT:   30681110  iMISS:    2324942  dACCESS:          0  dHIT:          0  dMISS:          0  itACCESS:          0  itHIT:          0  itMISS:          0  dtACCESS:          0  dtHIT:          0  dtMISS:          0
cpu0_ITLB RFO          ACCESS:          0  HIT:          0  MISS:          0  iACCESS:          0  iHIT:          0  iMISS:          0  dACCESS:          0  dHIT:          0  dMISS:          0  itACCESS:          0  itHIT:          0  itMISS:          0  dtACCESS:          0  dtHIT:          0  dtMISS:          0
cpu0_ITLB PREFETCH     ACCESS:          0  HIT:          0  MISS:          0  iACCESS:          0  iHIT:          0  iMISS:          0  dACCESS:          0  dHIT:          0  dMISS:          0  itACCESS:          0  itHIT:          0  itMISS:          0  dtACCESS:          0  dtHIT:          0  dtMISS:          0
cpu0_ITLB WRITE        ACCESS:          0  HIT:          0  MISS:          0  iACCESS:          0  iHIT:          0  iMISS:          0  dACCESS:          0  dHIT:          0  dMISS:          0  itACCESS:          0  itHIT:          0  itMISS:          0  dtACCESS:          0  dtHIT:          0  dtMISS:          0
cpu0_ITLB TRANSLATION  ACCESS:          0  HIT:          0  MISS:          0  iACCESS:          0  iHIT:          0  iMISS:          0  dACCESS:          0  dHIT:          0  dMISS:          0  itACCESS:          0  itHIT:          0  itMISS:          0  dtACCESS:          0  dtHIT:          0  dtMISS:          0
cpu0_ITLB PREFETCH  REQUESTED:          0  ISSUED:          0  CROSSED:          0  USEFUL:     400946  USELESS:      86400
cpu0_ITLB AVERAGE iMISS LATENCY: 7.67105 cycles
cpu0_ITLB AVERAGE dMISS LATENCY: 0 cycles
cpu0_ITLB AVERAGE itMISS LATENCY: 0 cycles
cpu0_ITLB AVERAGE dtMISS LATENCY: 0 cycles
cpu0_ITLB PAGE CROSSINGS (TLB HIT):         0 
cpu0_ITLB PAGE CROSSINGS (TLB MISS):         0 
cpu0_ITLB AVERAGE MISS LATENCY: 7.67105 cycles
cpu0_DTLB TOTAL       ACCESS:   29220032  HIT:   25642360  MISS:    3577672  iACCESS:          0  iHIT:          0  iMISS:          0  dACCESS:   29220032  dHIT:   25642360  dMISS:    3577672  itACCESS:          0  itHIT:          0  itMISS:          0  dtACCESS:          0  dtHIT:          0  dtMISS:          0
cpu0_DTLB LOAD         ACCESS:   29220032  HIT:   25642360  MISS:    3577672  iACCESS:          0  iHIT:          0  iMISS:          0  dACCESS:   29220032  dHIT:   25642360  dMISS:    3577672  itACCESS:          0  itHIT:          0  itMISS:          0  dtACCESS:          0  dtHIT:          0  dtMISS:          0
cpu0_DTLB RFO          ACCESS:          0  HIT:          0  MISS:          0  iACCESS:          0  iHIT:          0  iMISS:          0  dACCESS:          0  dHIT:          0  dMISS:          0  itACCESS:          0  itHIT:          0  itMISS:          0  dtACCESS:          0  dtHIT:          0  dtMISS:          0
cpu0_DTLB PREFETCH     ACCESS:          0  HIT:          0  MISS:          0  iACCESS:          0  iHIT:          0  iMISS:          0  dACCESS:          0  dHIT:          0  dMISS:          0  itACCESS:          0  itHIT:          0  itMISS:          0  dtACCESS:          0  dtHIT:          0  dtMISS:          0
cpu0_DTLB WRITE        ACCESS:          0  HIT:          0  MISS:          0  iACCESS:          0  iHIT:          0  iMISS:          0  dACCESS:          0  dHIT:          0  dMISS:          0  itACCESS:          0  itHIT:          0  itMISS:          0  dtACCESS:          0  dtHIT:          0  dtMISS:          0
cpu0_DTLB TRANSLATION  ACCESS:          0  HIT:          0  MISS:          0  iACCESS:          0  iHIT:          0  iMISS:          0  dACCESS:          0  dHIT:          0  dMISS:          0  itACCESS:          0  itHIT:          0  itMISS:          0  dtACCESS:          0  dtHIT:          0  dtMISS:          0
cpu0_DTLB PREFETCH  REQUESTED:          0  ISSUED:          0  CROSSED:          0  USEFUL:          0  USELESS:          0
cpu0_DTLB AVERAGE iMISS LATENCY: 0 cycles
cpu0_DTLB AVERAGE dMISS LATENCY: 18.2783 cycles
cpu0_DTLB AVERAGE itMISS LATENCY: 0 cycles
cpu0_DTLB AVERAGE dtMISS LATENCY: 0 cycles
cpu0_DTLB PAGE CROSSINGS (TLB HIT):         0 
cpu0_DTLB PAGE CROSSINGS (TLB MISS):         0 
cpu0_DTLB AVERAGE MISS LATENCY: 18.2783 cycles
cpu0_STLB TOTAL       ACCESS:    2589491  HIT:    2202645  MISS:     386846  iACCESS:     487354  iHIT:     376748  iMISS:     110606  dACCESS:    2102137  dHIT:    1825897  dMISS:     276240  itACCESS:          0  itHIT:          0  itMISS:          0  dtACCESS:          0  dtHIT:          0  dtMISS:          0
cpu0_STLB LOAD         ACCESS:    2589491  HIT:    2202645  MISS:     386846  iACCESS:     487354  iHIT:     376748  iMISS:     110606  dACCESS:    2102137  dHIT:    1825897  dMISS:     276240  itACCESS:          0  itHIT:          0  itMISS:          0  dtACCESS:          0  dtHIT:          0  dtMISS:          0
cpu0_STLB RFO          ACCESS:          0  HIT:          0  MISS:          0  iACCESS:          0  iHIT:          0  iMISS:          0  dACCESS:          0  dHIT:          0  dMISS:          0  itACCESS:          0  itHIT:          0  itMISS:          0  dtACCESS:          0  dtHIT:          0  dtMISS:          0
cpu0_STLB PREFETCH     ACCESS:          0  HIT:          0  MISS:          0  iACCESS:          0  iHIT:          0  iMISS:          0  dACCESS:          0  dHIT:          0  dMISS:          0  itACCESS:          0  itHIT:          0  itMISS:          0  dtACCESS:          0  dtHIT:          0  dtMISS:          0
cpu0_STLB WRITE        ACCESS:          0  HIT:          0  MISS:          0  iACCESS:          0  iHIT:          0  iMISS:          0  dACCESS:          0  dHIT:          0  dMISS:          0  itACCESS:          0  itHIT:          0  itMISS:          0  dtACCESS:          0  dtHIT:          0  dtMISS:          0
cpu0_STLB TRANSLATION  ACCESS:          0  HIT:          0  MISS:          0  iACCESS:          0  iHIT:          0  iMISS:          0  dACCESS:          0  dHIT:          0  dMISS:          0  itACCESS:          0  itHIT:          0  itMISS:          0  dtACCESS:          0  dtHIT:          0  dtMISS:          0
cpu0_STLB PREFETCH  REQUESTED:          0  ISSUED:          0  CROSSED:          0  USEFUL:          0  USELESS:          0
cpu0_STLB AVERAGE iMISS LATENCY: 36.0585 cycles
cpu0_STLB AVERAGE dMISS LATENCY: 125.35 cycles
cpu0_STLB AVERAGE itMISS LATENCY: 0 cycles
cpu0_STLB AVERAGE dtMISS LATENCY: 0 cycles
cpu0_STLB PAGE CROSSINGS (TLB HIT):         0 
cpu0_STLB PAGE CROSSINGS (TLB MISS):         0 
cpu0_STLB AVERAGE MISS LATENCY: 161.409 cycles
cpu0_L1D TOTAL       ACCESS:   45920804  HIT:   39583935  MISS:    6336869  iACCESS:          0  iHIT:          0  iMISS:          0  dACCESS:   45342101  dHIT:   39552484  dMISS:    5789617  itACCESS:     124986  itHIT:      12024  itMISS:     112962  dtACCESS:     453717  dtHIT:      19427  dtMISS:     434290
cpu0_L1D LOAD         ACCESS:   20774583  HIT:   18156747  MISS:    2617836  iACCESS:          0  iHIT:          0  iMISS:          0  dACCESS:   20774583  dHIT:   18156747  dMISS:    2617836  itACCESS:          0  itHIT:          0  itMISS:          0  dtACCESS:          0  dtHIT:          0  dtMISS:          0
cpu0_L1D RFO          ACCESS:          0  HIT:          0  MISS:          0  iACCESS:          0  iHIT:          0  iMISS:          0  dACCESS:          0  dHIT:          0  dMISS:          0  itACCESS:          0  itHIT:          0  itMISS:          0  dtACCESS:          0  dtHIT:          0  dtMISS:          0
cpu0_L1D PREFETCH     ACCESS:   14443902  HIT:   11882986  MISS:    2560916  iACCESS:          0  iHIT:          0  iMISS:          0  dACCESS:   14443902  dHIT:   11882986  dMISS:    2560916  itACCESS:          0  itHIT:          0  itMISS:          0  dtACCESS:          0  dtHIT:          0  dtMISS:          0
cpu0_L1D WRITE        ACCESS:   10123616  HIT:    9512751  MISS:     610865  iACCESS:          0  iHIT:          0  iMISS:          0  dACCESS:   10123616  dHIT:    9512751  dMISS:     610865  itACCESS:          0  itHIT:          0  itMISS:          0  dtACCESS:          0  dtHIT:          0  dtMISS:          0
cpu0_L1D TRANSLATION  ACCESS:     578703  HIT:      31451  MISS:     547252  iACCESS:          0  iHIT:          0  iMISS:          0  dACCESS:          0  dHIT:          0  dMISS:          0  itACCESS:     124986  itHIT:      12024  itMISS:     112962  dtACCESS:     453717  dtHIT:      19427  dtMISS:     434290
cpu0_L1D PREFETCH  REQUESTED:   20774583  ISSUED:   18909127  CROSSED:          0  USEFUL:     380170  USELESS:     966891
cpu0_L1D AVERAGE iMISS LATENCY: 0 cycles
cpu0_L1D AVERAGE dMISS LATENCY: 48.7782 cycles
cpu0_L1D AVERAGE itMISS LATENCY: 2.03546 cycles
cpu0_L1D AVERAGE dtMISS LATENCY: 6.91078 cycles
cpu0_L1D PAGE CROSSINGS (TLB HIT):         0 
cpu0_L1D PAGE CROSSINGS (TLB MISS):         0 
cpu0_L1D AVERAGE MISS LATENCY: 57.7244 cycles
cpu0_L2C TOTAL       ACCESS:    8839980  HIT:    1526994  MISS:    7312986  iACCESS:    3876988  iHIT:     791855  iMISS:    3085133  dACCESS:    4459550  dHIT:     541782  dMISS:    3917768  itACCESS:     112536  itHIT:      39171  itMISS:      73365  dtACCESS:     390906  dtHIT:     154186  dtMISS:     236720
cpu0_L2C LOAD         ACCESS:    2145672  HIT:     208284  MISS:    1937388  iACCESS:     877908  iHIT:     108585  iMISS:     769323  dACCESS:    1267764  dHIT:      99699  dMISS:    1168065  itACCESS:          0  itHIT:          0  itMISS:          0  dtACCESS:          0  dtHIT:          0  dtMISS:          0
cpu0_L2C RFO          ACCESS:     227123  HIT:      27501  MISS:     199622  iACCESS:          0  iHIT:          0  iMISS:          0  dACCESS:     227123  dHIT:      27501  dMISS:     199622  itACCESS:          0  itHIT:          0  itMISS:          0  dtACCESS:          0  dtHIT:          0  dtMISS:          0
cpu0_L2C PREFETCH     ACCESS:    5611889  HIT:     995048  MISS:    4616841  iACCESS:    2999080  iHIT:     683270  iMISS:    2315810  dACCESS:    2612809  dHIT:     311778  dMISS:    2301031  itACCESS:          0  itHIT:          0  itMISS:          0  dtACCESS:          0  dtHIT:          0  dtMISS:          0
cpu0_L2C WRITE        ACCESS:     351854  HIT:     102804  MISS:     249050  iACCESS:          0  iHIT:          0  iMISS:          0  dACCESS:     351854  dHIT:     102804  dMISS:     249050  itACCESS:          0  itHIT:          0  itMISS:          0  dtACCESS:          0  dtHIT:          0  dtMISS:          0
cpu0_L2C TRANSLATION  ACCESS:     503442  HIT:     193357  MISS:     310085  iACCESS:          0  iHIT:          0  iMISS:          0  dACCESS:          0  dHIT:          0  dMISS:          0  itACCESS:     112536  itHIT:      39171  itMISS:      73365  dtACCESS:     390906  dtHIT:     154186  dtMISS:     236720
cpu0_L2C PREFETCH  REQUESTED:    1524467  ISSUED:    1524460  CROSSED:          0  USEFUL:     415309  USELESS:     484992
cpu0_L2C AVERAGE iMISS LATENCY: 23.8918 cycles
cpu0_L2C AVERAGE dMISS LATENCY: 49.9774 cycles
cpu0_L2C AVERAGE itMISS LATENCY: 1.61482 cycles
cpu0_L2C AVERAGE dtMISS LATENCY: 5.47236 cycles
cpu0_L2C PAGE CROSSINGS (TLB HIT):         0 
cpu0_L2C PAGE CROSSINGS (TLB MISS):         0 
cpu0_L2C AVERAGE MISS LATENCY: 80.9564 cycles
LLC TOTAL       ACCESS:    7154737  HIT:    4520601  MISS:    2634136  iACCESS:    3005635  iHIT:    2263140  iMISS:     742495  dACCESS:    3839017  dHIT:    2189721  dMISS:    1649296  itACCESS:      73365  itHIT:      15348  itMISS:      58017  dtACCESS:     236720  dtHIT:      52392  dtMISS:     184328
LLC LOAD         ACCESS:    1928525  HIT:    1257175  MISS:     671350  iACCESS:     767812  iHIT:     610851  iMISS:     156961  dACCESS:    1160713  dHIT:     646324  dMISS:     514389  itACCESS:          0  itHIT:          0  itMISS:          0  dtACCESS:          0  dtHIT:          0  dtMISS:          0
LLC RFO          ACCESS:     199610  HIT:     103840  MISS:      95770  iACCESS:          0  iHIT:          0  iMISS:          0  dACCESS:     199610  dHIT:     103840  dMISS:      95770  itACCESS:          0  itHIT:          0  itMISS:          0  dtACCESS:          0  dtHIT:          0  dtMISS:          0
LLC PREFETCH     ACCESS:    4433474  HIT:    2814858  MISS:    1618616  iACCESS:    2237823  iHIT:    1652289  iMISS:     585534  dACCESS:    2195651  dHIT:    1162569  dMISS:    1033082  itACCESS:          0  itHIT:          0  itMISS:          0  dtACCESS:          0  dtHIT:          0  dtMISS:          0
LLC WRITE        ACCESS:     283043  HIT:     276988  MISS:       6055  iACCESS:          0  iHIT:          0  iMISS:          0  dACCESS:     283043  dHIT:     276988  dMISS:       6055  itACCESS:          0  itHIT:          0  itMISS:          0  dtACCESS:          0  dtHIT:          0  dtMISS:          0
LLC TRANSLATION  ACCESS:     310085  HIT:      67740  MISS:     242345  iACCESS:          0  iHIT:          0  iMISS:          0  dACCESS:          0  dHIT:          0  dMISS:          0  itACCESS:      73365  itHIT:      15348  itMISS:      58017  dtACCESS:     236720  dtHIT:      52392  dtMISS:     184328
LLC PREFETCH  REQUESTED:          0  ISSUED:          0  CROSSED:          0  USEFUL:          0  USELESS:          0
LLC AVERAGE iMISS LATENCY: 44.2071 cycles
LLC AVERAGE dMISS LATENCY: 113.668 cycles
LLC AVERAGE itMISS LATENCY: 3.93376 cycles
LLC AVERAGE dtMISS LATENCY: 13.4216 cycles
LLC PAGE CROSSINGS (TLB HIT):         0 
LLC PAGE CROSSINGS (TLB MISS):         0 
LLC AVERAGE MISS LATENCY: 175.23 cycles

PageTableWalker TOTAL       ACCESS:     187418  
PageTableWalker AVERAGE LATENCY: 5.97633 cycles
PageTableWalker TOTAL LATENCY: 1120070 cycles

DRAM Statistics
Channel 0
 RQ ROW_BUFFER_HIT:     561805
  ROW_BUFFER_MISS:    2045066
 AVG DBUS CONGESTED CYCLE:    3.64943
 WQ ROW_BUFFER_HIT:      69028
  ROW_BUFFER_MISS:      65285  FULL:          0

