last_page:0x200000000000000
VMEM_RES_CAP:0x100000
PAGE_SIZE:4096
LOG2_PAGE_SIZE:12
LOG2_PAGE_TABLE_SIZE:9
page_table_levels:5
WARNING: physical memory size is smaller than virtual memory size
FDiP enabled with aggresivity 16

*** ChampSim Multicore Out-of-Order Simulator ***

Warmup Instructions: 50000000
Simulation Instructions: 100000000
Number of CPUs: 1
Small page size: 4096
Large page size: 2097152

CPU 0 Bimodal branch predictor
Basic BTB sets: 1024 ways: 8 indirect buffer size: 4096 RAS size: 64
Instruction page size distrubution: 0
Loading instruction page size distribution from /home/bsc/bsc018186/scratch/itp_asplos25_AE/dump/smt_srv540_ap_srv259_ap_1024i.pdst
Data page size distrubution: 0
Loading data page size distribution from /home/bsc/bsc018186/scratch/itp_asplos25_AE/dump/smt_srv540_ap_srv259_ap_1024i.pdst
cpu0_L2C IP-based stride prefetcher
cpu0_L1D next line prefetcher
CHiRPing...
cpu0_L1I next line prefetcher
Off-chip DRAM Size: 4 GiB Channels: 1 Width: 64-bit Data Rate: 3200 MT/s
Heartbeat CPU 0 instructions: 10000001 cycles: 2500408 heartbeat IPC: 3.99935 cumulative IPC: 3.99935 (Simulation time: 0 hr 0 min 39 sec) 
Heartbeat CPU 0 instructions: 20000001 cycles: 5000683 heartbeat IPC: 3.99957 cumulative IPC: 3.99946 (Simulation time: 0 hr 1 min 20 sec) 
Heartbeat CPU 0 instructions: 30000001 cycles: 7500900 heartbeat IPC: 3.99966 cumulative IPC: 3.99953 (Simulation time: 0 hr 2 min 6 sec) 
Heartbeat CPU 0 instructions: 40000003 cycles: 10001054 heartbeat IPC: 3.99976 cumulative IPC: 3.99958 (Simulation time: 0 hr 2 min 54 sec) 
Heartbeat CPU 0 instructions: 50000001 cycles: 12501522 heartbeat IPC: 3.99926 cumulative IPC: 3.99952 (Simulation time: 0 hr 3 min 43 sec) 
Warmup finished CPU 0 instructions: 50000001 cycles: 12501523 cumulative IPC: 3.99952 (Simulation time: 0 hr 3 min 43 sec) 

Warmup complete CPU 0 instructions: 50000001 cycles: 12501523 (Simulation time: 0 hr 3 min 43 sec) 

Heartbeat CPU 0 instructions: 60000000 cycles: 40397156 heartbeat IPC: 0.35848 cumulative IPC: 0.35848 (Simulation time: 0 hr 5 min 19 sec) 
Heartbeat CPU 0 instructions: 70000002 cycles: 68490201 heartbeat IPC: 0.355961 cumulative IPC: 0.357216 (Simulation time: 0 hr 6 min 57 sec) 
Heartbeat CPU 0 instructions: 80000002 cycles: 97620952 heartbeat IPC: 0.34328 cumulative IPC: 0.352446 (Simulation time: 0 hr 8 min 38 sec) 
Heartbeat CPU 0 instructions: 90000000 cycles: 125609287 heartbeat IPC: 0.357292 cumulative IPC: 0.353646 (Simulation time: 0 hr 10 min 14 sec) 
Heartbeat CPU 0 instructions: 100000001 cycles: 155550251 heartbeat IPC: 0.333991 cumulative IPC: 0.349532 (Simulation time: 0 hr 11 min 56 sec) 
Heartbeat CPU 0 instructions: 110000002 cycles: 184079341 heartbeat IPC: 0.35052 cumulative IPC: 0.349696 (Simulation time: 0 hr 13 min 35 sec) 
Heartbeat CPU 0 instructions: 120000001 cycles: 213504736 heartbeat IPC: 0.339843 cumulative IPC: 0.348254 (Simulation time: 0 hr 15 min 13 sec) 
Heartbeat CPU 0 instructions: 130000003 cycles: 242519399 heartbeat IPC: 0.344654 cumulative IPC: 0.3478 (Simulation time: 0 hr 16 min 53 sec) 
Heartbeat CPU 0 instructions: 140000002 cycles: 270030878 heartbeat IPC: 0.363485 cumulative IPC: 0.349475 (Simulation time: 0 hr 18 min 30 sec) 
Heartbeat CPU 0 instructions: 150000001 cycles: 297339665 heartbeat IPC: 0.366183 cumulative IPC: 0.351077 (Simulation time: 0 hr 20 min 5 sec) 
Simulation finished CPU 0 instructions: 100000000 cycles: 284838143 cumulative IPC: 0.351077 (Simulation time: 0 hr 20 min 5 sec) 

Simulation complete CPU 0 instructions: 100000000 cycles: 284838143 (Simulation time: 0 hr 20 min 5 sec) 


ChampSim completed all CPUs

Saving instructions large page distribution to /home/bsc/bsc018186/scratch/itp_asplos25_AE/dump/smt_srv540_ap_srv259_ap_1024i.pdst...
Saving data large page distribution to /home/bsc/bsc018186/scratch/itp_asplos25_AE/dump/smt_srv540_ap_srv259_ap_1024i.pdst...
=== Simulation ===
CPU 0 runs /gpfs/projects/bsc18/MN4/bsc18/romol/ChampSim/traces/qualcomm_srv/smt_srv540_ap_srv259_ap_1024i.champsimtrace.xz

Region of Interest Statistics

CPU 0 cumulative IPC: 0.351077 instructions: 100000000 cycles: 284838143
CPU 0 Branch Prediction Accuracy: 76.8629% MPKI: 41.689 Average ROB Occupancy at Mispredict: 11.674
Branch type MPKI
BRANCH_DIRECT_JUMP: 1.25099
BRANCH_INDIRECT: 22.2396
BRANCH_CONDITIONAL: 11.5272
BRANCH_DIRECT_CALL: 2.33414
BRANCH_INDIRECT_CALL: 0.979531
BRANCH_RETURN: 3.35764

Instructions large pages: 0
Instructions small pages: 9359
Large page distribution for instructions: 0%

Data large pages: 0
Data small pages: 8207
Large page distribution for data: 0%

cpu0_L1I TOTAL       ACCESS:   38536099  HIT:   29907222  MISS:    8628877  iACCESS:   38536099  iHIT:   29907222  iMISS:    8628877  dACCESS:          0  dHIT:          0  dMISS:          0  itACCESS:          0  itHIT:          0  itMISS:          0  dtACCESS:          0  dtHIT:          0  dtMISS:          0
cpu0_L1I LOAD         ACCESS:   11546325  HIT:    9168682  MISS:    2377643  iACCESS:   11546325  iHIT:    9168682  iMISS:    2377643  dACCESS:          0  dHIT:          0  dMISS:          0  itACCESS:          0  itHIT:          0  itMISS:          0  dtACCESS:          0  dtHIT:          0  dtMISS:          0
cpu0_L1I RFO          ACCESS:          0  HIT:          0  MISS:          0  iACCESS:          0  iHIT:          0  iMISS:          0  dACCESS:          0  dHIT:          0  dMISS:          0  itACCESS:          0  itHIT:          0  itMISS:          0  dtACCESS:          0  dtHIT:          0  dtMISS:          0
cpu0_L1I PREFETCH     ACCESS:   26989774  HIT:   20738540  MISS:    6251234  iACCESS:   26989774  iHIT:   20738540  iMISS:    6251234  dACCESS:          0  dHIT:          0  dMISS:          0  itACCESS:          0  itHIT:          0  itMISS:          0  dtACCESS:          0  dtHIT:          0  dtMISS:          0
cpu0_L1I WRITE        ACCESS:          0  HIT:          0  MISS:          0  iACCESS:          0  iHIT:          0  iMISS:          0  dACCESS:          0  dHIT:          0  dMISS:          0  itACCESS:          0  itHIT:          0  itMISS:          0  dtACCESS:          0  dtHIT:          0  dtMISS:          0
cpu0_L1I TRANSLATION  ACCESS:          0  HIT:          0  MISS:          0  iACCESS:          0  iHIT:          0  iMISS:          0  dACCESS:          0  dHIT:          0  dMISS:          0  itACCESS:          0  itHIT:          0  itMISS:          0  dtACCESS:          0  dtHIT:          0  dtMISS:          0
cpu0_L1I PREFETCH  REQUESTED:   29832840  ISSUED:   29832773  CROSSED:          0  USEFUL:    2168862  USELESS:     752261
cpu0_L1I AVERAGE iMISS LATENCY: 21.8339 cycles
cpu0_L1I AVERAGE dMISS LATENCY: 0 cycles
cpu0_L1I AVERAGE itMISS LATENCY: 0 cycles
cpu0_L1I AVERAGE dtMISS LATENCY: 0 cycles
cpu0_L1I PAGE CROSSINGS (TLB HIT):         0 
cpu0_L1I PAGE CROSSINGS (TLB MISS):         0 
cpu0_L1I AVERAGE MISS LATENCY: 21.8339 cycles
cpu0_ITLB TOTAL       ACCESS:   32517694  HIT:   30277871  MISS:    2239823  iACCESS:   32517694  iHIT:   30277871  iMISS:    2239823  dACCESS:          0  dHIT:          0  dMISS:          0  itACCESS:          0  itHIT:          0  itMISS:          0  dtACCESS:          0  dtHIT:          0  dtMISS:          0
cpu0_ITLB LOAD         ACCESS:   32517694  HIT:   30277871  MISS:    2239823  iACCESS:   32517694  iHIT:   30277871  iMISS:    2239823  dACCESS:          0  dHIT:          0  dMISS:          0  itACCESS:          0  itHIT:          0  itMISS:          0  dtACCESS:          0  dtHIT:          0  dtMISS:          0
cpu0_ITLB RFO          ACCESS:          0  HIT:          0  MISS:          0  iACCESS:          0  iHIT:          0  iMISS:          0  dACCESS:          0  dHIT:          0  dMISS:          0  itACCESS:          0  itHIT:          0  itMISS:          0  dtACCESS:          0  dtHIT:          0  dtMISS:          0
cpu0_ITLB PREFETCH     ACCESS:          0  HIT:          0  MISS:          0  iACCESS:          0  iHIT:          0  iMISS:          0  dACCESS:          0  dHIT:          0  dMISS:          0  itACCESS:          0  itHIT:          0  itMISS:          0  dtACCESS:          0  dtHIT:          0  dtMISS:          0
cpu0_ITLB WRITE        ACCESS:          0  HIT:          0  MISS:          0  iACCESS:          0  iHIT:          0  iMISS:          0  dACCESS:          0  dHIT:          0  dMISS:          0  itACCESS:          0  itHIT:          0  itMISS:          0  dtACCESS:          0  dtHIT:          0  dtMISS:          0
cpu0_ITLB TRANSLATION  ACCESS:          0  HIT:          0  MISS:          0  iACCESS:          0  iHIT:          0  iMISS:          0  dACCESS:          0  dHIT:          0  dMISS:          0  itACCESS:          0  itHIT:          0  itMISS:          0  dtACCESS:          0  dtHIT:          0  dtMISS:          0
cpu0_ITLB PREFETCH  REQUESTED:          0  ISSUED:          0  CROSSED:          0  USEFUL:     379017  USELESS:      80654
cpu0_ITLB AVERAGE iMISS LATENCY: 9.87366 cycles
cpu0_ITLB AVERAGE dMISS LATENCY: 0 cycles
cpu0_ITLB AVERAGE itMISS LATENCY: 0 cycles
cpu0_ITLB AVERAGE dtMISS LATENCY: 0 cycles
cpu0_ITLB PAGE CROSSINGS (TLB HIT):         0 
cpu0_ITLB PAGE CROSSINGS (TLB MISS):         0 
cpu0_ITLB AVERAGE MISS LATENCY: 9.87366 cycles
cpu0_DTLB TOTAL       ACCESS:   28735310  HIT:   25047891  MISS:    3687419  iACCESS:          0  iHIT:          0  iMISS:          0  dACCESS:   28735310  dHIT:   25047891  dMISS:    3687419  itACCESS:          0  itHIT:          0  itMISS:          0  dtACCESS:          0  dtHIT:          0  dtMISS:          0
cpu0_DTLB LOAD         ACCESS:   28735310  HIT:   25047891  MISS:    3687419  iACCESS:          0  iHIT:          0  iMISS:          0  dACCESS:   28735310  dHIT:   25047891  dMISS:    3687419  itACCESS:          0  itHIT:          0  itMISS:          0  dtACCESS:          0  dtHIT:          0  dtMISS:          0
cpu0_DTLB RFO          ACCESS:          0  HIT:          0  MISS:          0  iACCESS:          0  iHIT:          0  iMISS:          0  dACCESS:          0  dHIT:          0  dMISS:          0  itACCESS:          0  itHIT:          0  itMISS:          0  dtACCESS:          0  dtHIT:          0  dtMISS:          0
cpu0_DTLB PREFETCH     ACCESS:          0  HIT:          0  MISS:          0  iACCESS:          0  iHIT:          0  iMISS:          0  dACCESS:          0  dHIT:          0  dMISS:          0  itACCESS:          0  itHIT:          0  itMISS:          0  dtACCESS:          0  dtHIT:          0  dtMISS:          0
cpu0_DTLB WRITE        ACCESS:          0  HIT:          0  MISS:          0  iACCESS:          0  iHIT:          0  iMISS:          0  dACCESS:          0  dHIT:          0  dMISS:          0  itACCESS:          0  itHIT:          0  itMISS:          0  dtACCESS:          0  dtHIT:          0  dtMISS:          0
cpu0_DTLB TRANSLATION  ACCESS:          0  HIT:          0  MISS:          0  iACCESS:          0  iHIT:          0  iMISS:          0  dACCESS:          0  dHIT:          0  dMISS:          0  itACCESS:          0  itHIT:          0  itMISS:          0  dtACCESS:          0  dtHIT:          0  dtMISS:          0
cpu0_DTLB PREFETCH  REQUESTED:          0  ISSUED:          0  CROSSED:          0  USEFUL:          0  USELESS:          0
cpu0_DTLB AVERAGE iMISS LATENCY: 0 cycles
cpu0_DTLB AVERAGE dMISS LATENCY: 24.6169 cycles
cpu0_DTLB AVERAGE itMISS LATENCY: 0 cycles
cpu0_DTLB AVERAGE dtMISS LATENCY: 0 cycles
cpu0_DTLB PAGE CROSSINGS (TLB HIT):         0 
cpu0_DTLB PAGE CROSSINGS (TLB MISS):         0 
cpu0_DTLB AVERAGE MISS LATENCY: 24.6169 cycles
cpu0_STLB TOTAL       ACCESS:    2581221  HIT:    2213417  MISS:     367804  iACCESS:     459668  iHIT:     355031  iMISS:     104637  dACCESS:    2121553  dHIT:    1858386  dMISS:     263167  itACCESS:          0  itHIT:          0  itMISS:          0  dtACCESS:          0  dtHIT:          0  dtMISS:          0
cpu0_STLB LOAD         ACCESS:    2581221  HIT:    2213417  MISS:     367804  iACCESS:     459668  iHIT:     355031  iMISS:     104637  dACCESS:    2121553  dHIT:    1858386  dMISS:     263167  itACCESS:          0  itHIT:          0  itMISS:          0  dtACCESS:          0  dtHIT:          0  dtMISS:          0
cpu0_STLB RFO          ACCESS:          0  HIT:          0  MISS:          0  iACCESS:          0  iHIT:          0  iMISS:          0  dACCESS:          0  dHIT:          0  dMISS:          0  itACCESS:          0  itHIT:          0  itMISS:          0  dtACCESS:          0  dtHIT:          0  dtMISS:          0
cpu0_STLB PREFETCH     ACCESS:          0  HIT:          0  MISS:          0  iACCESS:          0  iHIT:          0  iMISS:          0  dACCESS:          0  dHIT:          0  dMISS:          0  itACCESS:          0  itHIT:          0  itMISS:          0  dtACCESS:          0  dtHIT:          0  dtMISS:          0
cpu0_STLB WRITE        ACCESS:          0  HIT:          0  MISS:          0  iACCESS:          0  iHIT:          0  iMISS:          0  dACCESS:          0  dHIT:          0  dMISS:          0  itACCESS:          0  itHIT:          0  itMISS:          0  dtACCESS:          0  dtHIT:          0  dtMISS:          0
cpu0_STLB TRANSLATION  ACCESS:          0  HIT:          0  MISS:          0  iACCESS:          0  iHIT:          0  iMISS:          0  dACCESS:          0  dHIT:          0  dMISS:          0  itACCESS:          0  itHIT:          0  itMISS:          0  dtACCESS:          0  dtHIT:          0  dtMISS:          0
cpu0_STLB PREFETCH  REQUESTED:          0  ISSUED:          0  CROSSED:          0  USEFUL:          0  USELESS:          0
cpu0_STLB AVERAGE iMISS LATENCY: 50.1504 cycles
cpu0_STLB AVERAGE dMISS LATENCY: 200.345 cycles
cpu0_STLB AVERAGE itMISS LATENCY: 0 cycles
cpu0_STLB AVERAGE dtMISS LATENCY: 0 cycles
cpu0_STLB PAGE CROSSINGS (TLB HIT):         0 
cpu0_STLB PAGE CROSSINGS (TLB MISS):         0 
cpu0_STLB AVERAGE MISS LATENCY: 250.496 cycles
cpu0_L1D TOTAL       ACCESS:   44599021  HIT:   38860738  MISS:    5738283  iACCESS:          0  iHIT:          0  iMISS:          0  dACCESS:   44056756  dHIT:   38829498  dMISS:    5227258  itACCESS:     118036  itHIT:      11877  itMISS:     106159  dtACCESS:     424229  dtHIT:      19363  dtMISS:     404866
cpu0_L1D LOAD         ACCESS:   20166326  HIT:   17820162  MISS:    2346164  iACCESS:          0  iHIT:          0  iMISS:          0  dACCESS:   20166326  dHIT:   17820162  dMISS:    2346164  itACCESS:          0  itHIT:          0  itMISS:          0  dtACCESS:          0  dtHIT:          0  dtMISS:          0
cpu0_L1D RFO          ACCESS:          0  HIT:          0  MISS:          0  iACCESS:          0  iHIT:          0  iMISS:          0  dACCESS:          0  dHIT:          0  dMISS:          0  itACCESS:          0  itHIT:          0  itMISS:          0  dtACCESS:          0  dtHIT:          0  dtMISS:          0
cpu0_L1D PREFETCH     ACCESS:   13774623  HIT:   11462747  MISS:    2311876  iACCESS:          0  iHIT:          0  iMISS:          0  dACCESS:   13774623  dHIT:   11462747  dMISS:    2311876  itACCESS:          0  itHIT:          0  itMISS:          0  dtACCESS:          0  dtHIT:          0  dtMISS:          0
cpu0_L1D WRITE        ACCESS:   10115807  HIT:    9546589  MISS:     569218  iACCESS:          0  iHIT:          0  iMISS:          0  dACCESS:   10115807  dHIT:    9546589  dMISS:     569218  itACCESS:          0  itHIT:          0  itMISS:          0  dtACCESS:          0  dtHIT:          0  dtMISS:          0
cpu0_L1D TRANSLATION  ACCESS:     542265  HIT:      31240  MISS:     511025  iACCESS:          0  iHIT:          0  iMISS:          0  dACCESS:          0  dHIT:          0  dMISS:          0  itACCESS:     118036  itHIT:      11877  itMISS:     106159  dtACCESS:     424229  dtHIT:      19363  dtMISS:     404866
cpu0_L1D PREFETCH  REQUESTED:   20166326  ISSUED:   18300405  CROSSED:          0  USEFUL:     353672  USELESS:     920240
cpu0_L1D AVERAGE iMISS LATENCY: 0 cycles
cpu0_L1D AVERAGE dMISS LATENCY: 49.7149 cycles
cpu0_L1D AVERAGE itMISS LATENCY: 3.04361 cycles
cpu0_L1D AVERAGE dtMISS LATENCY: 12.0527 cycles
cpu0_L1D PAGE CROSSINGS (TLB HIT):         0 
cpu0_L1D PAGE CROSSINGS (TLB MISS):         0 
cpu0_L1D AVERAGE MISS LATENCY: 64.8111 cycles
cpu0_L2C TOTAL       ACCESS:    8487437  HIT:    4241234  MISS:    4246203  iACCESS:    3733940  iHIT:    2357385  iMISS:    1376555  dACCESS:    4273447  dHIT:    1827464  dMISS:    2445983  itACCESS:     105997  itHIT:      17549  itMISS:      88448  dtACCESS:     374053  dtHIT:      38836  dtMISS:     335217
cpu0_L2C LOAD         ACCESS:    2043226  HIT:    1017598  MISS:    1025628  iACCESS:     850685  iHIT:     558722  iMISS:     291963  dACCESS:    1192541  dHIT:     458876  dMISS:     733665  itACCESS:          0  itHIT:          0  itMISS:          0  dtACCESS:          0  dtHIT:          0  dtMISS:          0
cpu0_L2C RFO          ACCESS:     218227  HIT:      85517  MISS:     132710  iACCESS:          0  iHIT:          0  iMISS:          0  dACCESS:     218227  dHIT:      85517  dMISS:     132710  itACCESS:          0  itHIT:          0  itMISS:          0  dtACCESS:          0  dtHIT:          0  dtMISS:          0
cpu0_L2C PREFETCH     ACCESS:    5403698  HIT:    2743152  MISS:    2660546  iACCESS:    2883255  iHIT:    1798663  iMISS:    1084592  dACCESS:    2520443  dHIT:     944489  dMISS:    1575954  itACCESS:          0  itHIT:          0  itMISS:          0  dtACCESS:          0  dtHIT:          0  dtMISS:          0
cpu0_L2C WRITE        ACCESS:     342236  HIT:     338582  MISS:       3654  iACCESS:          0  iHIT:          0  iMISS:          0  dACCESS:     342236  dHIT:     338582  dMISS:       3654  itACCESS:          0  itHIT:          0  itMISS:          0  dtACCESS:          0  dtHIT:          0  dtMISS:          0
cpu0_L2C TRANSLATION  ACCESS:     480050  HIT:      56385  MISS:     423665  iACCESS:          0  iHIT:          0  iMISS:          0  dACCESS:          0  dHIT:          0  dMISS:          0  itACCESS:     105997  itHIT:      17549  itMISS:      88448  dtACCESS:     374053  dtHIT:      38836  dtMISS:     335217
cpu0_L2C PREFETCH  REQUESTED:    1506809  ISSUED:    1506808  CROSSED:          0  USEFUL:     346374  USELESS:     292981
cpu0_L2C AVERAGE iMISS LATENCY: 36.7887 cycles
cpu0_L2C AVERAGE dMISS LATENCY: 80.6913 cycles
cpu0_L2C AVERAGE itMISS LATENCY: 3.8669 cycles
cpu0_L2C AVERAGE dtMISS LATENCY: 15.4108 cycles
cpu0_L2C PAGE CROSSINGS (TLB HIT):         0 
cpu0_L2C PAGE CROSSINGS (TLB MISS):         0 
cpu0_L2C AVERAGE MISS LATENCY: 136.758 cycles
LLC TOTAL       ACCESS:    4257886  HIT:    1386976  MISS:    2870910  iACCESS:    1297254  iHIT:     471866  iMISS:     825388  dACCESS:    2536967  dHIT:     874535  dMISS:    1662432  itACCESS:      88448  itHIT:       6176  itMISS:      82272  dtACCESS:     335217  dtHIT:      34399  dtMISS:     300818
LLC LOAD         ACCESS:    1018327  HIT:     335486  MISS:     682841  iACCESS:     290799  iHIT:     113025  iMISS:     177774  dACCESS:     727528  dHIT:     222461  dMISS:     505067  itACCESS:          0  itHIT:          0  itMISS:          0  dtACCESS:          0  dtHIT:          0  dtMISS:          0
LLC RFO          ACCESS:     132698  HIT:      40789  MISS:      91909  iACCESS:          0  iHIT:          0  iMISS:          0  dACCESS:     132698  dHIT:      40789  dMISS:      91909  itACCESS:          0  itHIT:          0  itMISS:          0  dtACCESS:          0  dtHIT:          0  dtMISS:          0
LLC PREFETCH     ACCESS:    2476517  HIT:     773205  MISS:    1703312  iACCESS:    1006455  iHIT:     358841  iMISS:     647614  dACCESS:    1470062  dHIT:     414364  dMISS:    1055698  itACCESS:          0  itHIT:          0  itMISS:          0  dtACCESS:          0  dtHIT:          0  dtMISS:          0
LLC WRITE        ACCESS:     206679  HIT:     196921  MISS:       9758  iACCESS:          0  iHIT:          0  iMISS:          0  dACCESS:     206679  dHIT:     196921  dMISS:       9758  itACCESS:          0  itHIT:          0  itMISS:          0  dtACCESS:          0  dtHIT:          0  dtMISS:          0
LLC TRANSLATION  ACCESS:     423665  HIT:      40575  MISS:     383090  iACCESS:          0  iHIT:          0  iMISS:          0  dACCESS:          0  dHIT:          0  dMISS:          0  itACCESS:      88448  itHIT:       6176  itMISS:      82272  dtACCESS:     335217  dtHIT:      34399  dtMISS:     300818
LLC PREFETCH  REQUESTED:          0  ISSUED:          0  CROSSED:          0  USEFUL:          0  USELESS:          0
LLC AVERAGE iMISS LATENCY: 45.5271 cycles
LLC AVERAGE dMISS LATENCY: 104.433 cycles
LLC AVERAGE itMISS LATENCY: 5.1081 cycles
LLC AVERAGE dtMISS LATENCY: 20.4848 cycles
LLC PAGE CROSSINGS (TLB HIT):         0 
LLC PAGE CROSSINGS (TLB MISS):         0 
LLC AVERAGE MISS LATENCY: 175.553 cycles

PageTableWalker TOTAL       ACCESS:     187256  
PageTableWalker AVERAGE LATENCY: 6.439 cycles
PageTableWalker TOTAL LATENCY: 1205740 cycles

DRAM Statistics
Channel 0
 RQ ROW_BUFFER_HIT:     576351
  ROW_BUFFER_MISS:    2263821
 AVG DBUS CONGESTED CYCLE:    3.64976
 WQ ROW_BUFFER_HIT:      64283
  ROW_BUFFER_MISS:      55647  FULL:          0

