last_page:0x200000000000000
VMEM_RES_CAP:0x100000
PAGE_SIZE:4096
LOG2_PAGE_SIZE:12
LOG2_PAGE_TABLE_SIZE:9
page_table_levels:5
WARNING: physical memory size is smaller than virtual memory size
FDiP enabled with aggresivity 16

*** ChampSim Multicore Out-of-Order Simulator ***

Warmup Instructions: 50000000
Simulation Instructions: 100000000
Number of CPUs: 1
Small page size: 4096
Large page size: 2097152

CPU 0 Bimodal branch predictor
Basic BTB sets: 1024 ways: 8 indirect buffer size: 4096 RAS size: 64
Instruction page size distrubution: 0
Loading instruction page size distribution from /home/bsc/bsc018186/scratch/itp_asplos25_AE/dump/smt_srv540_ap_srv128_ap_1024i.pdst
Data page size distrubution: 0
Loading data page size distribution from /home/bsc/bsc018186/scratch/itp_asplos25_AE/dump/smt_srv540_ap_srv128_ap_1024i.pdst
cpu0_L2C IP-based stride prefetcher
cpu0_L1D next line prefetcher
cpu0_L1I next line prefetcher
Off-chip DRAM Size: 4 GiB Channels: 1 Width: 64-bit Data Rate: 3200 MT/s
Heartbeat CPU 0 instructions: 10000003 cycles: 2500349 heartbeat IPC: 3.99945 cumulative IPC: 3.99945 (Simulation time: 0 hr 0 min 41 sec) 
Heartbeat CPU 0 instructions: 20000002 cycles: 5081204 heartbeat IPC: 3.87469 cumulative IPC: 3.93608 (Simulation time: 0 hr 1 min 24 sec) 
Heartbeat CPU 0 instructions: 30000002 cycles: 7635835 heartbeat IPC: 3.91446 cumulative IPC: 3.92885 (Simulation time: 0 hr 2 min 8 sec) 
Heartbeat CPU 0 instructions: 40000003 cycles: 10178807 heartbeat IPC: 3.93241 cumulative IPC: 3.92974 (Simulation time: 0 hr 2 min 53 sec) 
Heartbeat CPU 0 instructions: 50000000 cycles: 12679080 heartbeat IPC: 3.99957 cumulative IPC: 3.94351 (Simulation time: 0 hr 3 min 37 sec) 
Warmup finished CPU 0 instructions: 50000000 cycles: 12679081 cumulative IPC: 3.94351 (Simulation time: 0 hr 3 min 37 sec) 

Warmup complete CPU 0 instructions: 50000000 cycles: 12679081 (Simulation time: 0 hr 3 min 37 sec) 

Heartbeat CPU 0 instructions: 60000000 cycles: 40794056 heartbeat IPC: 0.355683 cumulative IPC: 0.355683 (Simulation time: 0 hr 5 min 4 sec) 
Heartbeat CPU 0 instructions: 70000000 cycles: 67533329 heartbeat IPC: 0.373982 cumulative IPC: 0.364603 (Simulation time: 0 hr 6 min 31 sec) 
Heartbeat CPU 0 instructions: 80000002 cycles: 95916435 heartbeat IPC: 0.352323 cumulative IPC: 0.360416 (Simulation time: 0 hr 7 min 59 sec) 
Heartbeat CPU 0 instructions: 90000000 cycles: 122810152 heartbeat IPC: 0.371834 cumulative IPC: 0.363204 (Simulation time: 0 hr 9 min 25 sec) 
Heartbeat CPU 0 instructions: 100000001 cycles: 151562538 heartbeat IPC: 0.347798 cumulative IPC: 0.360015 (Simulation time: 0 hr 10 min 54 sec) 
Heartbeat CPU 0 instructions: 110000000 cycles: 178457732 heartbeat IPC: 0.371814 cumulative IPC: 0.361929 (Simulation time: 0 hr 12 min 21 sec) 
Heartbeat CPU 0 instructions: 120000000 cycles: 206979825 heartbeat IPC: 0.350606 cumulative IPC: 0.360267 (Simulation time: 0 hr 13 min 49 sec) 
Heartbeat CPU 0 instructions: 130000000 cycles: 234115535 heartbeat IPC: 0.368519 cumulative IPC: 0.361278 (Simulation time: 0 hr 15 min 17 sec) 
Heartbeat CPU 0 instructions: 140000002 cycles: 261521923 heartbeat IPC: 0.364879 cumulative IPC: 0.361675 (Simulation time: 0 hr 16 min 44 sec) 
Heartbeat CPU 0 instructions: 150000001 cycles: 289238515 heartbeat IPC: 0.360795 cumulative IPC: 0.361586 (Simulation time: 0 hr 18 min 15 sec) 
Simulation finished CPU 0 instructions: 100000001 cycles: 276559435 cumulative IPC: 0.361586 (Simulation time: 0 hr 18 min 15 sec) 

Simulation complete CPU 0 instructions: 100000001 cycles: 276559435 (Simulation time: 0 hr 18 min 15 sec) 


ChampSim completed all CPUs

Saving instructions large page distribution to /home/bsc/bsc018186/scratch/itp_asplos25_AE/dump/smt_srv540_ap_srv128_ap_1024i.pdst...
Saving data large page distribution to /home/bsc/bsc018186/scratch/itp_asplos25_AE/dump/smt_srv540_ap_srv128_ap_1024i.pdst...
=== Simulation ===
CPU 0 runs /gpfs/projects/bsc18/MN4/bsc18/romol/ChampSim/traces/qualcomm_srv/smt_srv540_ap_srv128_ap_1024i.champsimtrace.xz

Region of Interest Statistics

CPU 0 cumulative IPC: 0.361586 instructions: 100000001 cycles: 276559435
CPU 0 Branch Prediction Accuracy: 75.3878% MPKI: 44.4059 Average ROB Occupancy at Mispredict: 10.6005
Branch type MPKI
BRANCH_DIRECT_JUMP: 1.36176
BRANCH_INDIRECT: 22.9283
BRANCH_CONDITIONAL: 12.9503
BRANCH_DIRECT_CALL: 2.64178
BRANCH_INDIRECT_CALL: 1.01064
BRANCH_RETURN: 3.51324

Instructions large pages: 0
Instructions small pages: 9742
Large page distribution for instructions: 0%

Data large pages: 0
Data small pages: 8301
Large page distribution for data: 0%

cpu0_L1I TOTAL       ACCESS:   39429204  HIT:   30268644  MISS:    9160560  iACCESS:   39429204  iHIT:   30268644  iMISS:    9160560  dACCESS:          0  dHIT:          0  dMISS:          0  itACCESS:          0  itHIT:          0  itMISS:          0  dtACCESS:          0  dtHIT:          0  dtMISS:          0
cpu0_L1I LOAD         ACCESS:   11745673  HIT:    9260326  MISS:    2485347  iACCESS:   11745673  iHIT:    9260326  iMISS:    2485347  dACCESS:          0  dHIT:          0  dMISS:          0  itACCESS:          0  itHIT:          0  itMISS:          0  dtACCESS:          0  dtHIT:          0  dtMISS:          0
cpu0_L1I RFO          ACCESS:          0  HIT:          0  MISS:          0  iACCESS:          0  iHIT:          0  iMISS:          0  dACCESS:          0  dHIT:          0  dMISS:          0  itACCESS:          0  itHIT:          0  itMISS:          0  dtACCESS:          0  dtHIT:          0  dtMISS:          0
cpu0_L1I PREFETCH     ACCESS:   27683531  HIT:   21008318  MISS:    6675213  iACCESS:   27683531  iHIT:   21008318  iMISS:    6675213  dACCESS:          0  dHIT:          0  dMISS:          0  itACCESS:          0  itHIT:          0  itMISS:          0  dtACCESS:          0  dtHIT:          0  dtMISS:          0
cpu0_L1I WRITE        ACCESS:          0  HIT:          0  MISS:          0  iACCESS:          0  iHIT:          0  iMISS:          0  dACCESS:          0  dHIT:          0  dMISS:          0  itACCESS:          0  itHIT:          0  itMISS:          0  dtACCESS:          0  dtHIT:          0  dtMISS:          0
cpu0_L1I TRANSLATION  ACCESS:          0  HIT:          0  MISS:          0  iACCESS:          0  iHIT:          0  iMISS:          0  dACCESS:          0  dHIT:          0  dMISS:          0  itACCESS:          0  itHIT:          0  itMISS:          0  dtACCESS:          0  dtHIT:          0  dtMISS:          0
cpu0_L1I PREFETCH  REQUESTED:   30252290  ISSUED:   30250852  CROSSED:          0  USEFUL:    2193093  USELESS:     756333
cpu0_L1I AVERAGE iMISS LATENCY: 24.2975 cycles
cpu0_L1I AVERAGE dMISS LATENCY: 0 cycles
cpu0_L1I AVERAGE itMISS LATENCY: 0 cycles
cpu0_L1I AVERAGE dtMISS LATENCY: 0 cycles
cpu0_L1I PAGE CROSSINGS (TLB HIT):         0 
cpu0_L1I PAGE CROSSINGS (TLB MISS):         0 
cpu0_L1I AVERAGE MISS LATENCY: 24.2975 cycles
cpu0_ITLB TOTAL       ACCESS:   33149242  HIT:   30935181  MISS:    2214061  iACCESS:   33149242  iHIT:   30935181  iMISS:    2214061  dACCESS:          0  dHIT:          0  dMISS:          0  itACCESS:          0  itHIT:          0  itMISS:          0  dtACCESS:          0  dtHIT:          0  dtMISS:          0
cpu0_ITLB LOAD         ACCESS:   33149242  HIT:   30935181  MISS:    2214061  iACCESS:   33149242  iHIT:   30935181  iMISS:    2214061  dACCESS:          0  dHIT:          0  dMISS:          0  itACCESS:          0  itHIT:          0  itMISS:          0  dtACCESS:          0  dtHIT:          0  dtMISS:          0
cpu0_ITLB RFO          ACCESS:          0  HIT:          0  MISS:          0  iACCESS:          0  iHIT:          0  iMISS:          0  dACCESS:          0  dHIT:          0  dMISS:          0  itACCESS:          0  itHIT:          0  itMISS:          0  dtACCESS:          0  dtHIT:          0  dtMISS:          0
cpu0_ITLB PREFETCH     ACCESS:          0  HIT:          0  MISS:          0  iACCESS:          0  iHIT:          0  iMISS:          0  dACCESS:          0  dHIT:          0  dMISS:          0  itACCESS:          0  itHIT:          0  itMISS:          0  dtACCESS:          0  dtHIT:          0  dtMISS:          0
cpu0_ITLB WRITE        ACCESS:          0  HIT:          0  MISS:          0  iACCESS:          0  iHIT:          0  iMISS:          0  dACCESS:          0  dHIT:          0  dMISS:          0  itACCESS:          0  itHIT:          0  itMISS:          0  dtACCESS:          0  dtHIT:          0  dtMISS:          0
cpu0_ITLB TRANSLATION  ACCESS:          0  HIT:          0  MISS:          0  iACCESS:          0  iHIT:          0  iMISS:          0  dACCESS:          0  dHIT:          0  dMISS:          0  itACCESS:          0  itHIT:          0  itMISS:          0  dtACCESS:          0  dtHIT:          0  dtMISS:          0
cpu0_ITLB PREFETCH  REQUESTED:          0  ISSUED:          0  CROSSED:          0  USEFUL:     386471  USELESS:      78784
cpu0_ITLB AVERAGE iMISS LATENCY: 8.04597 cycles
cpu0_ITLB AVERAGE dMISS LATENCY: 0 cycles
cpu0_ITLB AVERAGE itMISS LATENCY: 0 cycles
cpu0_ITLB AVERAGE dtMISS LATENCY: 0 cycles
cpu0_ITLB PAGE CROSSINGS (TLB HIT):         0 
cpu0_ITLB PAGE CROSSINGS (TLB MISS):         0 
cpu0_ITLB AVERAGE MISS LATENCY: 8.04597 cycles
cpu0_DTLB TOTAL       ACCESS:   28857562  HIT:   25260217  MISS:    3597345  iACCESS:          0  iHIT:          0  iMISS:          0  dACCESS:   28857562  dHIT:   25260217  dMISS:    3597345  itACCESS:          0  itHIT:          0  itMISS:          0  dtACCESS:          0  dtHIT:          0  dtMISS:          0
cpu0_DTLB LOAD         ACCESS:   28857562  HIT:   25260217  MISS:    3597345  iACCESS:          0  iHIT:          0  iMISS:          0  dACCESS:   28857562  dHIT:   25260217  dMISS:    3597345  itACCESS:          0  itHIT:          0  itMISS:          0  dtACCESS:          0  dtHIT:          0  dtMISS:          0
cpu0_DTLB RFO          ACCESS:          0  HIT:          0  MISS:          0  iACCESS:          0  iHIT:          0  iMISS:          0  dACCESS:          0  dHIT:          0  dMISS:          0  itACCESS:          0  itHIT:          0  itMISS:          0  dtACCESS:          0  dtHIT:          0  dtMISS:          0
cpu0_DTLB PREFETCH     ACCESS:          0  HIT:          0  MISS:          0  iACCESS:          0  iHIT:          0  iMISS:          0  dACCESS:          0  dHIT:          0  dMISS:          0  itACCESS:          0  itHIT:          0  itMISS:          0  dtACCESS:          0  dtHIT:          0  dtMISS:          0
cpu0_DTLB WRITE        ACCESS:          0  HIT:          0  MISS:          0  iACCESS:          0  iHIT:          0  iMISS:          0  dACCESS:          0  dHIT:          0  dMISS:          0  itACCESS:          0  itHIT:          0  itMISS:          0  dtACCESS:          0  dtHIT:          0  dtMISS:          0
cpu0_DTLB TRANSLATION  ACCESS:          0  HIT:          0  MISS:          0  iACCESS:          0  iHIT:          0  iMISS:          0  dACCESS:          0  dHIT:          0  dMISS:          0  itACCESS:          0  itHIT:          0  itMISS:          0  dtACCESS:          0  dtHIT:          0  dtMISS:          0
cpu0_DTLB PREFETCH  REQUESTED:          0  ISSUED:          0  CROSSED:          0  USEFUL:          0  USELESS:          0
cpu0_DTLB AVERAGE iMISS LATENCY: 0 cycles
cpu0_DTLB AVERAGE dMISS LATENCY: 17.0895 cycles
cpu0_DTLB AVERAGE itMISS LATENCY: 0 cycles
cpu0_DTLB AVERAGE dtMISS LATENCY: 0 cycles
cpu0_DTLB PAGE CROSSINGS (TLB HIT):         0 
cpu0_DTLB PAGE CROSSINGS (TLB MISS):         0 
cpu0_DTLB AVERAGE MISS LATENCY: 17.0895 cycles
cpu0_STLB TOTAL       ACCESS:    2568718  HIT:    2189531  MISS:     379187  iACCESS:     465262  iHIT:     348765  iMISS:     116497  dACCESS:    2103456  dHIT:    1840766  dMISS:     262690  itACCESS:          0  itHIT:          0  itMISS:          0  dtACCESS:          0  dtHIT:          0  dtMISS:          0
cpu0_STLB LOAD         ACCESS:    2568718  HIT:    2189531  MISS:     379187  iACCESS:     465262  iHIT:     348765  iMISS:     116497  dACCESS:    2103456  dHIT:    1840766  dMISS:     262690  itACCESS:          0  itHIT:          0  itMISS:          0  dtACCESS:          0  dtHIT:          0  dtMISS:          0
cpu0_STLB RFO          ACCESS:          0  HIT:          0  MISS:          0  iACCESS:          0  iHIT:          0  iMISS:          0  dACCESS:          0  dHIT:          0  dMISS:          0  itACCESS:          0  itHIT:          0  itMISS:          0  dtACCESS:          0  dtHIT:          0  dtMISS:          0
cpu0_STLB PREFETCH     ACCESS:          0  HIT:          0  MISS:          0  iACCESS:          0  iHIT:          0  iMISS:          0  dACCESS:          0  dHIT:          0  dMISS:          0  itACCESS:          0  itHIT:          0  itMISS:          0  dtACCESS:          0  dtHIT:          0  dtMISS:          0
cpu0_STLB WRITE        ACCESS:          0  HIT:          0  MISS:          0  iACCESS:          0  iHIT:          0  iMISS:          0  dACCESS:          0  dHIT:          0  dMISS:          0  itACCESS:          0  itHIT:          0  itMISS:          0  dtACCESS:          0  dtHIT:          0  dtMISS:          0
cpu0_STLB TRANSLATION  ACCESS:          0  HIT:          0  MISS:          0  iACCESS:          0  iHIT:          0  iMISS:          0  dACCESS:          0  dHIT:          0  dMISS:          0  itACCESS:          0  itHIT:          0  itMISS:          0  dtACCESS:          0  dtHIT:          0  dtMISS:          0
cpu0_STLB PREFETCH  REQUESTED:          0  ISSUED:          0  CROSSED:          0  USEFUL:          0  USELESS:          0
cpu0_STLB AVERAGE iMISS LATENCY: 37.1654 cycles
cpu0_STLB AVERAGE dMISS LATENCY: 117.543 cycles
cpu0_STLB AVERAGE itMISS LATENCY: 0 cycles
cpu0_STLB AVERAGE dtMISS LATENCY: 0 cycles
cpu0_STLB PAGE CROSSINGS (TLB HIT):         0 
cpu0_STLB PAGE CROSSINGS (TLB MISS):         0 
cpu0_STLB AVERAGE MISS LATENCY: 154.708 cycles
cpu0_L1D TOTAL       ACCESS:   44767322  HIT:   39078997  MISS:    5688325  iACCESS:          0  iHIT:          0  iMISS:          0  dACCESS:   44217482  dHIT:   39045203  dMISS:    5172279  itACCESS:     130011  itHIT:      14282  itMISS:     115729  dtACCESS:     419829  dtHIT:      19512  dtMISS:     400317
cpu0_L1D LOAD         ACCESS:   20191377  HIT:   17887526  MISS:    2303851  iACCESS:          0  iHIT:          0  iMISS:          0  dACCESS:   20191377  dHIT:   17887526  dMISS:    2303851  itACCESS:          0  itHIT:          0  itMISS:          0  dtACCESS:          0  dtHIT:          0  dtMISS:          0
cpu0_L1D RFO          ACCESS:          0  HIT:          0  MISS:          0  iACCESS:          0  iHIT:          0  iMISS:          0  dACCESS:          0  dHIT:          0  dMISS:          0  itACCESS:          0  itHIT:          0  itMISS:          0  dtACCESS:          0  dtHIT:          0  dtMISS:          0
cpu0_L1D PREFETCH     ACCESS:   13861197  HIT:   11578947  MISS:    2282250  iACCESS:          0  iHIT:          0  iMISS:          0  dACCESS:   13861197  dHIT:   11578947  dMISS:    2282250  itACCESS:          0  itHIT:          0  itMISS:          0  dtACCESS:          0  dtHIT:          0  dtMISS:          0
cpu0_L1D WRITE        ACCESS:   10164908  HIT:    9578730  MISS:     586178  iACCESS:          0  iHIT:          0  iMISS:          0  dACCESS:   10164908  dHIT:    9578730  dMISS:     586178  itACCESS:          0  itHIT:          0  itMISS:          0  dtACCESS:          0  dtHIT:          0  dtMISS:          0
cpu0_L1D TRANSLATION  ACCESS:     549840  HIT:      33794  MISS:     516046  iACCESS:          0  iHIT:          0  iMISS:          0  dACCESS:          0  dHIT:          0  dMISS:          0  itACCESS:     130011  itHIT:      14282  itMISS:     115729  dtACCESS:     419829  dtHIT:      19512  dtMISS:     400317
cpu0_L1D PREFETCH  REQUESTED:   20191377  ISSUED:   18416963  CROSSED:          0  USEFUL:     360251  USELESS:     925828
cpu0_L1D AVERAGE iMISS LATENCY: 0 cycles
cpu0_L1D AVERAGE dMISS LATENCY: 50.957 cycles
cpu0_L1D AVERAGE itMISS LATENCY: 2.28651 cycles
cpu0_L1D AVERAGE dtMISS LATENCY: 7.06827 cycles
cpu0_L1D PAGE CROSSINGS (TLB HIT):         0 
cpu0_L1D PAGE CROSSINGS (TLB MISS):         0 
cpu0_L1D AVERAGE MISS LATENCY: 60.3117 cycles
cpu0_L2C TOTAL       ACCESS:    8574725  HIT:    1535859  MISS:    7038866  iACCESS:    3748441  iHIT:     788167  iMISS:    2960274  dACCESS:    4338400  dHIT:     553398  dMISS:    3785002  itACCESS:     115392  itHIT:      40299  itMISS:      75093  dtACCESS:     372492  dtHIT:     153995  dtMISS:     218497
cpu0_L2C LOAD         ACCESS:    2029490  HIT:     204127  MISS:    1825363  iACCESS:     835315  iHIT:     108113  iMISS:     727202  dACCESS:    1194175  dHIT:      96014  dMISS:    1098161  itACCESS:          0  itHIT:          0  itMISS:          0  dtACCESS:          0  dtHIT:          0  dtMISS:          0
cpu0_L2C RFO          ACCESS:     219744  HIT:      32087  MISS:     187657  iACCESS:          0  iHIT:          0  iMISS:          0  dACCESS:     219744  dHIT:      32087  dMISS:     187657  itACCESS:          0  itHIT:          0  itMISS:          0  dtACCESS:          0  dtHIT:          0  dtMISS:          0
cpu0_L2C PREFETCH     ACCESS:    5490928  HIT:    1000189  MISS:    4490739  iACCESS:    2913126  iHIT:     680054  iMISS:    2233072  dACCESS:    2577802  dHIT:     320135  dMISS:    2257667  itACCESS:          0  itHIT:          0  itMISS:          0  dtACCESS:          0  dtHIT:          0  dtMISS:          0
cpu0_L2C WRITE        ACCESS:     346679  HIT:     105162  MISS:     241517  iACCESS:          0  iHIT:          0  iMISS:          0  dACCESS:     346679  dHIT:     105162  dMISS:     241517  itACCESS:          0  itHIT:          0  itMISS:          0  dtACCESS:          0  dtHIT:          0  dtMISS:          0
cpu0_L2C TRANSLATION  ACCESS:     487884  HIT:     194294  MISS:     293590  iACCESS:          0  iHIT:          0  iMISS:          0  dACCESS:          0  dHIT:          0  dMISS:          0  itACCESS:     115392  itHIT:      40299  itMISS:      75093  dtACCESS:     372492  dtHIT:     153995  dtMISS:     218497
cpu0_L2C PREFETCH  REQUESTED:    1531948  ISSUED:    1531945  CROSSED:          0  USEFUL:     410883  USELESS:     486619
cpu0_L2C AVERAGE iMISS LATENCY: 27.073 cycles
cpu0_L2C AVERAGE dMISS LATENCY: 50.9064 cycles
cpu0_L2C AVERAGE itMISS LATENCY: 1.68915 cycles
cpu0_L2C AVERAGE dtMISS LATENCY: 5.20251 cycles
cpu0_L2C PAGE CROSSINGS (TLB HIT):         0 
cpu0_L2C PAGE CROSSINGS (TLB MISS):         0 
cpu0_L2C AVERAGE MISS LATENCY: 84.871 cycles
LLC TOTAL       ACCESS:    6841244  HIT:    4103876  MISS:    2737368  iACCESS:    2867255  iHIT:    2011014  iMISS:     856241  dACCESS:    3680399  dHIT:    2026290  dMISS:    1654109  itACCESS:      75093  itHIT:      17083  itMISS:      58010  dtACCESS:     218497  dtHIT:      49489  dtMISS:     169008
LLC LOAD         ACCESS:    1818155  HIT:    1159806  MISS:     658349  iACCESS:     725818  iHIT:     544011  iMISS:     181807  dACCESS:    1092337  dHIT:     615795  dMISS:     476542  itACCESS:          0  itHIT:          0  itMISS:          0  dtACCESS:          0  dtHIT:          0  dtMISS:          0
LLC RFO          ACCESS:     187631  HIT:      93767  MISS:      93864  iACCESS:          0  iHIT:          0  iMISS:          0  dACCESS:     187631  dHIT:      93767  dMISS:      93864  itACCESS:          0  itHIT:          0  itMISS:          0  dtACCESS:          0  dtHIT:          0  dtMISS:          0
LLC PREFETCH     ACCESS:    4272159  HIT:    2521841  MISS:    1750318  iACCESS:    2141437  iHIT:    1467003  iMISS:     674434  dACCESS:    2130722  dHIT:    1054838  dMISS:    1075884  itACCESS:          0  itHIT:          0  itMISS:          0  dtACCESS:          0  dtHIT:          0  dtMISS:          0
LLC WRITE        ACCESS:     269709  HIT:     261890  MISS:       7819  iACCESS:          0  iHIT:          0  iMISS:          0  dACCESS:     269709  dHIT:     261890  dMISS:       7819  itACCESS:          0  itHIT:          0  itMISS:          0  dtACCESS:          0  dtHIT:          0  dtMISS:          0
LLC TRANSLATION  ACCESS:     293590  HIT:      66572  MISS:     227018  iACCESS:          0  iHIT:          0  iMISS:          0  dACCESS:          0  dHIT:          0  dMISS:          0  itACCESS:      75093  itHIT:      17083  itMISS:      58010  dtACCESS:     218497  dtHIT:      49489  dtMISS:     169008
LLC PREFETCH  REQUESTED:          0  ISSUED:          0  CROSSED:          0  USEFUL:          0  USELESS:          0
LLC AVERAGE iMISS LATENCY: 49.2692 cycles
LLC AVERAGE dMISS LATENCY: 107.584 cycles
LLC AVERAGE itMISS LATENCY: 3.80295 cycles
LLC AVERAGE dtMISS LATENCY: 11.8055 cycles
LLC PAGE CROSSINGS (TLB HIT):         0 
LLC PAGE CROSSINGS (TLB MISS):         0 
LLC AVERAGE MISS LATENCY: 172.462 cycles

PageTableWalker TOTAL       ACCESS:     144107  
PageTableWalker AVERAGE LATENCY: 5.79885 cycles
PageTableWalker TOTAL LATENCY: 835654 cycles

DRAM Statistics
Channel 0
 RQ ROW_BUFFER_HIT:     597852
  ROW_BUFFER_MISS:    2113412
 AVG DBUS CONGESTED CYCLE:    3.65602
 WQ ROW_BUFFER_HIT:      66128
  ROW_BUFFER_MISS:      62116  FULL:          0

