last_page:0x200000000000000
VMEM_RES_CAP:0x100000
PAGE_SIZE:4096
LOG2_PAGE_SIZE:12
LOG2_PAGE_TABLE_SIZE:9
page_table_levels:5
WARNING: physical memory size is smaller than virtual memory size
FDiP enabled with aggresivity 16

*** ChampSim Multicore Out-of-Order Simulator ***

Warmup Instructions: 50000000
Simulation Instructions: 100000000
Number of CPUs: 1
Small page size: 4096
Large page size: 2097152

CPU 0 Bimodal branch predictor
Basic BTB sets: 1024 ways: 8 indirect buffer size: 4096 RAS size: 64
Instruction page size distrubution: 0
Loading instruction page size distribution from /home/bsc/bsc018186/scratch/itp_asplos25_AE/dump/smt_srv12_ap_srv727_ap_1024i.pdst
Data page size distrubution: 0
Loading data page size distribution from /home/bsc/bsc018186/scratch/itp_asplos25_AE/dump/smt_srv12_ap_srv727_ap_1024i.pdst
cpu0_L2C IP-based stride prefetcher
cpu0_L1D next line prefetcher
CHiRPing...
cpu0_L1I next line prefetcher
Off-chip DRAM Size: 4 GiB Channels: 1 Width: 64-bit Data Rate: 3200 MT/s
Heartbeat CPU 0 instructions: 10000001 cycles: 2500646 heartbeat IPC: 3.99897 cumulative IPC: 3.99897 (Simulation time: 0 hr 0 min 42 sec) 
Heartbeat CPU 0 instructions: 20000001 cycles: 5000937 heartbeat IPC: 3.99954 cumulative IPC: 3.99926 (Simulation time: 0 hr 1 min 26 sec) 
Heartbeat CPU 0 instructions: 30000003 cycles: 7501641 heartbeat IPC: 3.99888 cumulative IPC: 3.99913 (Simulation time: 0 hr 2 min 12 sec) 
Heartbeat CPU 0 instructions: 40000003 cycles: 10001902 heartbeat IPC: 3.99959 cumulative IPC: 3.99924 (Simulation time: 0 hr 2 min 57 sec) 
Heartbeat CPU 0 instructions: 50000003 cycles: 12502205 heartbeat IPC: 3.99952 cumulative IPC: 3.9993 (Simulation time: 0 hr 3 min 42 sec) 
Warmup finished CPU 0 instructions: 50000003 cycles: 12502206 cumulative IPC: 3.9993 (Simulation time: 0 hr 3 min 42 sec) 

Warmup complete CPU 0 instructions: 50000003 cycles: 12502206 (Simulation time: 0 hr 3 min 42 sec) 

Heartbeat CPU 0 instructions: 60000004 cycles: 43180855 heartbeat IPC: 0.32596 cumulative IPC: 0.32596 (Simulation time: 0 hr 5 min 13 sec) 
Heartbeat CPU 0 instructions: 70000001 cycles: 74135692 heartbeat IPC: 0.323052 cumulative IPC: 0.324499 (Simulation time: 0 hr 6 min 44 sec) 
Heartbeat CPU 0 instructions: 80000001 cycles: 106036561 heartbeat IPC: 0.313472 cumulative IPC: 0.320738 (Simulation time: 0 hr 8 min 16 sec) 
Heartbeat CPU 0 instructions: 90000000 cycles: 133393559 heartbeat IPC: 0.365538 cumulative IPC: 0.330876 (Simulation time: 0 hr 9 min 40 sec) 
Heartbeat CPU 0 instructions: 100000000 cycles: 164566559 heartbeat IPC: 0.320791 cumulative IPC: 0.328809 (Simulation time: 0 hr 11 min 10 sec) 
Heartbeat CPU 0 instructions: 110000000 cycles: 196691099 heartbeat IPC: 0.311289 cumulative IPC: 0.325753 (Simulation time: 0 hr 12 min 42 sec) 
Heartbeat CPU 0 instructions: 120000002 cycles: 226862148 heartbeat IPC: 0.331444 cumulative IPC: 0.326554 (Simulation time: 0 hr 14 min 11 sec) 
Heartbeat CPU 0 instructions: 130000000 cycles: 258037714 heartbeat IPC: 0.320764 cumulative IPC: 0.325819 (Simulation time: 0 hr 15 min 41 sec) 
Heartbeat CPU 0 instructions: 140000000 cycles: 289916804 heartbeat IPC: 0.313686 cumulative IPC: 0.324425 (Simulation time: 0 hr 17 min 13 sec) 
Heartbeat CPU 0 instructions: 150000002 cycles: 321062572 heartbeat IPC: 0.321071 cumulative IPC: 0.324086 (Simulation time: 0 hr 18 min 54 sec) 
Simulation finished CPU 0 instructions: 100000004 cycles: 308560368 cumulative IPC: 0.324086 (Simulation time: 0 hr 18 min 54 sec) 

Simulation complete CPU 0 instructions: 100000004 cycles: 308560368 (Simulation time: 0 hr 18 min 54 sec) 


ChampSim completed all CPUs

Saving instructions large page distribution to /home/bsc/bsc018186/scratch/itp_asplos25_AE/dump/smt_srv12_ap_srv727_ap_1024i.pdst...
Saving data large page distribution to /home/bsc/bsc018186/scratch/itp_asplos25_AE/dump/smt_srv12_ap_srv727_ap_1024i.pdst...
=== Simulation ===
CPU 0 runs /gpfs/projects/bsc18/MN4/bsc18/romol/ChampSim/traces/qualcomm_srv/smt_srv12_ap_srv727_ap_1024i.champsimtrace.xz

Region of Interest Statistics

CPU 0 cumulative IPC: 0.324086 instructions: 100000004 cycles: 308560368
CPU 0 Branch Prediction Accuracy: 74.6726% MPKI: 45.8504 Average ROB Occupancy at Mispredict: 10.5637
Branch type MPKI
BRANCH_DIRECT_JUMP: 1.44036
BRANCH_INDIRECT: 23.3875
BRANCH_CONDITIONAL: 13.5391
BRANCH_DIRECT_CALL: 2.79709
BRANCH_INDIRECT_CALL: 1.12404
BRANCH_RETURN: 3.56236

Instructions large pages: 0
Instructions small pages: 11302
Large page distribution for instructions: 0%

Data large pages: 0
Data small pages: 9440
Large page distribution for data: 0%

cpu0_L1I TOTAL       ACCESS:   39116049  HIT:   30460942  MISS:    8655107  iACCESS:   39116049  iHIT:   30460942  iMISS:    8655107  dACCESS:          0  dHIT:          0  dMISS:          0  itACCESS:          0  itHIT:          0  itMISS:          0  dtACCESS:          0  dtHIT:          0  dtMISS:          0
cpu0_L1I LOAD         ACCESS:   11613021  HIT:    9266763  MISS:    2346258  iACCESS:   11613021  iHIT:    9266763  iMISS:    2346258  dACCESS:          0  dHIT:          0  dMISS:          0  itACCESS:          0  itHIT:          0  itMISS:          0  dtACCESS:          0  dtHIT:          0  dtMISS:          0
cpu0_L1I RFO          ACCESS:          0  HIT:          0  MISS:          0  iACCESS:          0  iHIT:          0  iMISS:          0  dACCESS:          0  dHIT:          0  dMISS:          0  itACCESS:          0  itHIT:          0  itMISS:          0  dtACCESS:          0  dtHIT:          0  dtMISS:          0
cpu0_L1I PREFETCH     ACCESS:   27503028  HIT:   21194179  MISS:    6308849  iACCESS:   27503028  iHIT:   21194179  iMISS:    6308849  dACCESS:          0  dHIT:          0  dMISS:          0  itACCESS:          0  itHIT:          0  itMISS:          0  dtACCESS:          0  dtHIT:          0  dtMISS:          0
cpu0_L1I WRITE        ACCESS:          0  HIT:          0  MISS:          0  iACCESS:          0  iHIT:          0  iMISS:          0  dACCESS:          0  dHIT:          0  dMISS:          0  itACCESS:          0  itHIT:          0  itMISS:          0  dtACCESS:          0  dtHIT:          0  dtMISS:          0
cpu0_L1I TRANSLATION  ACCESS:          0  HIT:          0  MISS:          0  iACCESS:          0  iHIT:          0  iMISS:          0  dACCESS:          0  dHIT:          0  dMISS:          0  itACCESS:          0  itHIT:          0  itMISS:          0  dtACCESS:          0  dtHIT:          0  dtMISS:          0
cpu0_L1I PREFETCH  REQUESTED:   30231260  ISSUED:   30231232  CROSSED:          0  USEFUL:    2208763  USELESS:     771477
cpu0_L1I AVERAGE iMISS LATENCY: 25.4665 cycles
cpu0_L1I AVERAGE dMISS LATENCY: 0 cycles
cpu0_L1I AVERAGE itMISS LATENCY: 0 cycles
cpu0_L1I AVERAGE dtMISS LATENCY: 0 cycles
cpu0_L1I PAGE CROSSINGS (TLB HIT):         0 
cpu0_L1I PAGE CROSSINGS (TLB MISS):         0 
cpu0_L1I AVERAGE MISS LATENCY: 25.4665 cycles
cpu0_ITLB TOTAL       ACCESS:   33219634  HIT:   30986272  MISS:    2233362  iACCESS:   33219634  iHIT:   30986272  iMISS:    2233362  dACCESS:          0  dHIT:          0  dMISS:          0  itACCESS:          0  itHIT:          0  itMISS:          0  dtACCESS:          0  dtHIT:          0  dtMISS:          0
cpu0_ITLB LOAD         ACCESS:   33219634  HIT:   30986272  MISS:    2233362  iACCESS:   33219634  iHIT:   30986272  iMISS:    2233362  dACCESS:          0  dHIT:          0  dMISS:          0  itACCESS:          0  itHIT:          0  itMISS:          0  dtACCESS:          0  dtHIT:          0  dtMISS:          0
cpu0_ITLB RFO          ACCESS:          0  HIT:          0  MISS:          0  iACCESS:          0  iHIT:          0  iMISS:          0  dACCESS:          0  dHIT:          0  dMISS:          0  itACCESS:          0  itHIT:          0  itMISS:          0  dtACCESS:          0  dtHIT:          0  dtMISS:          0
cpu0_ITLB PREFETCH     ACCESS:          0  HIT:          0  MISS:          0  iACCESS:          0  iHIT:          0  iMISS:          0  dACCESS:          0  dHIT:          0  dMISS:          0  itACCESS:          0  itHIT:          0  itMISS:          0  dtACCESS:          0  dtHIT:          0  dtMISS:          0
cpu0_ITLB WRITE        ACCESS:          0  HIT:          0  MISS:          0  iACCESS:          0  iHIT:          0  iMISS:          0  dACCESS:          0  dHIT:          0  dMISS:          0  itACCESS:          0  itHIT:          0  itMISS:          0  dtACCESS:          0  dtHIT:          0  dtMISS:          0
cpu0_ITLB TRANSLATION  ACCESS:          0  HIT:          0  MISS:          0  iACCESS:          0  iHIT:          0  iMISS:          0  dACCESS:          0  dHIT:          0  dMISS:          0  itACCESS:          0  itHIT:          0  itMISS:          0  dtACCESS:          0  dtHIT:          0  dtMISS:          0
cpu0_ITLB PREFETCH  REQUESTED:          0  ISSUED:          0  CROSSED:          0  USEFUL:     393658  USELESS:      80174
cpu0_ITLB AVERAGE iMISS LATENCY: 10.9235 cycles
cpu0_ITLB AVERAGE dMISS LATENCY: 0 cycles
cpu0_ITLB AVERAGE itMISS LATENCY: 0 cycles
cpu0_ITLB AVERAGE dtMISS LATENCY: 0 cycles
cpu0_ITLB PAGE CROSSINGS (TLB HIT):         0 
cpu0_ITLB PAGE CROSSINGS (TLB MISS):         0 
cpu0_ITLB AVERAGE MISS LATENCY: 10.9235 cycles
cpu0_DTLB TOTAL       ACCESS:   28982605  HIT:   25487979  MISS:    3494626  iACCESS:          0  iHIT:          0  iMISS:          0  dACCESS:   28982605  dHIT:   25487979  dMISS:    3494626  itACCESS:          0  itHIT:          0  itMISS:          0  dtACCESS:          0  dtHIT:          0  dtMISS:          0
cpu0_DTLB LOAD         ACCESS:   28982605  HIT:   25487979  MISS:    3494626  iACCESS:          0  iHIT:          0  iMISS:          0  dACCESS:   28982605  dHIT:   25487979  dMISS:    3494626  itACCESS:          0  itHIT:          0  itMISS:          0  dtACCESS:          0  dtHIT:          0  dtMISS:          0
cpu0_DTLB RFO          ACCESS:          0  HIT:          0  MISS:          0  iACCESS:          0  iHIT:          0  iMISS:          0  dACCESS:          0  dHIT:          0  dMISS:          0  itACCESS:          0  itHIT:          0  itMISS:          0  dtACCESS:          0  dtHIT:          0  dtMISS:          0
cpu0_DTLB PREFETCH     ACCESS:          0  HIT:          0  MISS:          0  iACCESS:          0  iHIT:          0  iMISS:          0  dACCESS:          0  dHIT:          0  dMISS:          0  itACCESS:          0  itHIT:          0  itMISS:          0  dtACCESS:          0  dtHIT:          0  dtMISS:          0
cpu0_DTLB WRITE        ACCESS:          0  HIT:          0  MISS:          0  iACCESS:          0  iHIT:          0  iMISS:          0  dACCESS:          0  dHIT:          0  dMISS:          0  itACCESS:          0  itHIT:          0  itMISS:          0  dtACCESS:          0  dtHIT:          0  dtMISS:          0
cpu0_DTLB TRANSLATION  ACCESS:          0  HIT:          0  MISS:          0  iACCESS:          0  iHIT:          0  iMISS:          0  dACCESS:          0  dHIT:          0  dMISS:          0  itACCESS:          0  itHIT:          0  itMISS:          0  dtACCESS:          0  dtHIT:          0  dtMISS:          0
cpu0_DTLB PREFETCH  REQUESTED:          0  ISSUED:          0  CROSSED:          0  USEFUL:          0  USELESS:          0
cpu0_DTLB AVERAGE iMISS LATENCY: 0 cycles
cpu0_DTLB AVERAGE dMISS LATENCY: 26.0883 cycles
cpu0_DTLB AVERAGE itMISS LATENCY: 0 cycles
cpu0_DTLB AVERAGE dtMISS LATENCY: 0 cycles
cpu0_DTLB PAGE CROSSINGS (TLB HIT):         0 
cpu0_DTLB PAGE CROSSINGS (TLB MISS):         0 
cpu0_DTLB AVERAGE MISS LATENCY: 26.0883 cycles
cpu0_STLB TOTAL       ACCESS:    2538148  HIT:    2156517  MISS:     381631  iACCESS:     473838  iHIT:     353614  iMISS:     120224  dACCESS:    2064310  dHIT:    1802903  dMISS:     261407  itACCESS:          0  itHIT:          0  itMISS:          0  dtACCESS:          0  dtHIT:          0  dtMISS:          0
cpu0_STLB LOAD         ACCESS:    2538148  HIT:    2156517  MISS:     381631  iACCESS:     473838  iHIT:     353614  iMISS:     120224  dACCESS:    2064310  dHIT:    1802903  dMISS:     261407  itACCESS:          0  itHIT:          0  itMISS:          0  dtACCESS:          0  dtHIT:          0  dtMISS:          0
cpu0_STLB RFO          ACCESS:          0  HIT:          0  MISS:          0  iACCESS:          0  iHIT:          0  iMISS:          0  dACCESS:          0  dHIT:          0  dMISS:          0  itACCESS:          0  itHIT:          0  itMISS:          0  dtACCESS:          0  dtHIT:          0  dtMISS:          0
cpu0_STLB PREFETCH     ACCESS:          0  HIT:          0  MISS:          0  iACCESS:          0  iHIT:          0  iMISS:          0  dACCESS:          0  dHIT:          0  dMISS:          0  itACCESS:          0  itHIT:          0  itMISS:          0  dtACCESS:          0  dtHIT:          0  dtMISS:          0
cpu0_STLB WRITE        ACCESS:          0  HIT:          0  MISS:          0  iACCESS:          0  iHIT:          0  iMISS:          0  dACCESS:          0  dHIT:          0  dMISS:          0  itACCESS:          0  itHIT:          0  itMISS:          0  dtACCESS:          0  dtHIT:          0  dtMISS:          0
cpu0_STLB TRANSLATION  ACCESS:          0  HIT:          0  MISS:          0  iACCESS:          0  iHIT:          0  iMISS:          0  dACCESS:          0  dHIT:          0  dMISS:          0  itACCESS:          0  itHIT:          0  itMISS:          0  dtACCESS:          0  dtHIT:          0  dtMISS:          0
cpu0_STLB PREFETCH  REQUESTED:          0  ISSUED:          0  CROSSED:          0  USEFUL:          0  USELESS:          0
cpu0_STLB AVERAGE iMISS LATENCY: 53.9754 cycles
cpu0_STLB AVERAGE dMISS LATENCY: 195.329 cycles
cpu0_STLB AVERAGE itMISS LATENCY: 0 cycles
cpu0_STLB AVERAGE dtMISS LATENCY: 0 cycles
cpu0_STLB PAGE CROSSINGS (TLB HIT):         0 
cpu0_STLB PAGE CROSSINGS (TLB MISS):         0 
cpu0_STLB AVERAGE MISS LATENCY: 249.304 cycles
cpu0_L1D TOTAL       ACCESS:   45230688  HIT:   39342293  MISS:    5888395  iACCESS:          0  iHIT:          0  iMISS:          0  dACCESS:   44664841  dHIT:   39309033  dMISS:    5355808  itACCESS:     134307  itHIT:      14949  itMISS:     119358  dtACCESS:     431540  dtHIT:      18311  dtMISS:     413229
cpu0_L1D LOAD         ACCESS:   20437178  HIT:   18039477  MISS:    2397701  iACCESS:          0  iHIT:          0  iMISS:          0  dACCESS:   20437178  dHIT:   18039477  dMISS:    2397701  itACCESS:          0  itHIT:          0  itMISS:          0  dtACCESS:          0  dtHIT:          0  dtMISS:          0
cpu0_L1D RFO          ACCESS:          0  HIT:          0  MISS:          0  iACCESS:          0  iHIT:          0  iMISS:          0  dACCESS:          0  dHIT:          0  dMISS:          0  itACCESS:          0  itHIT:          0  itMISS:          0  dtACCESS:          0  dtHIT:          0  dtMISS:          0
cpu0_L1D PREFETCH     ACCESS:   14056882  HIT:   11682043  MISS:    2374839  iACCESS:          0  iHIT:          0  iMISS:          0  dACCESS:   14056882  dHIT:   11682043  dMISS:    2374839  itACCESS:          0  itHIT:          0  itMISS:          0  dtACCESS:          0  dtHIT:          0  dtMISS:          0
cpu0_L1D WRITE        ACCESS:   10170781  HIT:    9587513  MISS:     583268  iACCESS:          0  iHIT:          0  iMISS:          0  dACCESS:   10170781  dHIT:    9587513  dMISS:     583268  itACCESS:          0  itHIT:          0  itMISS:          0  dtACCESS:          0  dtHIT:          0  dtMISS:          0
cpu0_L1D TRANSLATION  ACCESS:     565847  HIT:      33260  MISS:     532587  iACCESS:          0  iHIT:          0  iMISS:          0  dACCESS:          0  dHIT:          0  dMISS:          0  itACCESS:     134307  itHIT:      14949  itMISS:     119358  dtACCESS:     431540  dtHIT:      18311  dtMISS:     413229
cpu0_L1D PREFETCH  REQUESTED:   20437178  ISSUED:   18546939  CROSSED:          0  USEFUL:     361810  USELESS:     934810
cpu0_L1D AVERAGE iMISS LATENCY: 0 cycles
cpu0_L1D AVERAGE dMISS LATENCY: 49.2447 cycles
cpu0_L1D AVERAGE itMISS LATENCY: 3.29229 cycles
cpu0_L1D AVERAGE dtMISS LATENCY: 11.8545 cycles
cpu0_L1D PAGE CROSSINGS (TLB HIT):         0 
cpu0_L1D PAGE CROSSINGS (TLB MISS):         0 
cpu0_L1D AVERAGE MISS LATENCY: 64.3915 cycles
cpu0_L2C TOTAL       ACCESS:    8650035  HIT:    4168333  MISS:    4481702  iACCESS:    3784622  iHIT:    2267034  iMISS:    1517588  dACCESS:    4372611  dHIT:    1841774  dMISS:    2530837  itACCESS:     118853  itHIT:      21039  itMISS:      97814  dtACCESS:     373949  dtHIT:      38486  dtMISS:     335463
cpu0_L2C LOAD         ACCESS:    2053689  HIT:    1003028  MISS:    1050661  iACCESS:     841613  iHIT:     527348  iMISS:     314265  dACCESS:    1212076  dHIT:     475680  dMISS:     736396  itACCESS:          0  itHIT:          0  itMISS:          0  dtACCESS:          0  dtHIT:          0  dtMISS:          0
cpu0_L2C RFO          ACCESS:     215306  HIT:      81718  MISS:     133588  iACCESS:          0  iHIT:          0  iMISS:          0  dACCESS:     215306  dHIT:      81718  dMISS:     133588  itACCESS:          0  itHIT:          0  itMISS:          0  dtACCESS:          0  dtHIT:          0  dtMISS:          0
cpu0_L2C PREFETCH     ACCESS:    5547147  HIT:    2686664  MISS:    2860483  iACCESS:    2943009  iHIT:    1739686  iMISS:    1203323  dACCESS:    2604138  dHIT:     946978  dMISS:    1657160  itACCESS:          0  itHIT:          0  itMISS:          0  dtACCESS:          0  dtHIT:          0  dtMISS:          0
cpu0_L2C WRITE        ACCESS:     341091  HIT:     337398  MISS:       3693  iACCESS:          0  iHIT:          0  iMISS:          0  dACCESS:     341091  dHIT:     337398  dMISS:       3693  itACCESS:          0  itHIT:          0  itMISS:          0  dtACCESS:          0  dtHIT:          0  dtMISS:          0
cpu0_L2C TRANSLATION  ACCESS:     492802  HIT:      59525  MISS:     433277  iACCESS:          0  iHIT:          0  iMISS:          0  dACCESS:          0  dHIT:          0  dMISS:          0  itACCESS:     118853  itHIT:      21039  itMISS:      97814  dtACCESS:     373949  dtHIT:      38486  dtMISS:     335463
cpu0_L2C PREFETCH  REQUESTED:    1542163  ISSUED:    1542162  CROSSED:          0  USEFUL:     360970  USELESS:     331987
cpu0_L2C AVERAGE iMISS LATENCY: 42.162 cycles
cpu0_L2C AVERAGE dMISS LATENCY: 81.174 cycles
cpu0_L2C AVERAGE itMISS LATENCY: 4.06438 cycles
cpu0_L2C AVERAGE dtMISS LATENCY: 14.7449 cycles
cpu0_L2C PAGE CROSSINGS (TLB HIT):         0 
cpu0_L2C PAGE CROSSINGS (TLB MISS):         0 
cpu0_L2C AVERAGE MISS LATENCY: 142.146 cycles
LLC TOTAL       ACCESS:    4461459  HIT:    1243544  MISS:    3217915  iACCESS:    1424780  iHIT:     403615  iMISS:    1021165  dACCESS:    2603402  dHIT:     802283  dMISS:    1801119  itACCESS:      97814  itHIT:       6648  itMISS:      91166  dtACCESS:     335463  dtHIT:      30998  dtMISS:     304465
LLC LOAD         ACCESS:    1044231  HIT:     308871  MISS:     735360  iACCESS:     313117  iHIT:      95681  iMISS:     217436  dACCESS:     731114  dHIT:     213190  dMISS:     517924  itACCESS:          0  itHIT:          0  itMISS:          0  dtACCESS:          0  dtHIT:          0  dtMISS:          0
LLC RFO          ACCESS:     133578  HIT:      38153  MISS:      95425  iACCESS:          0  iHIT:          0  iMISS:          0  dACCESS:     133578  dHIT:      38153  dMISS:      95425  itACCESS:          0  itHIT:          0  itMISS:          0  dtACCESS:          0  dtHIT:          0  dtMISS:          0
LLC PREFETCH     ACCESS:    2642296  HIT:     661417  MISS:    1980879  iACCESS:    1111663  iHIT:     307934  iMISS:     803729  dACCESS:    1530633  dHIT:     353483  dMISS:    1177150  itACCESS:          0  itHIT:          0  itMISS:          0  dtACCESS:          0  dtHIT:          0  dtMISS:          0
LLC WRITE        ACCESS:     208077  HIT:     197457  MISS:      10620  iACCESS:          0  iHIT:          0  iMISS:          0  dACCESS:     208077  dHIT:     197457  dMISS:      10620  itACCESS:          0  itHIT:          0  itMISS:          0  dtACCESS:          0  dtHIT:          0  dtMISS:          0
LLC TRANSLATION  ACCESS:     433277  HIT:      37646  MISS:     395631  iACCESS:          0  iHIT:          0  iMISS:          0  dACCESS:          0  dHIT:          0  dMISS:          0  itACCESS:      97814  itHIT:       6648  itMISS:      91166  dtACCESS:     335463  dtHIT:      30998  dtMISS:     304465
LLC PREFETCH  REQUESTED:          0  ISSUED:          0  CROSSED:          0  USEFUL:          0  USELESS:          0
LLC AVERAGE iMISS LATENCY: 49.9892 cycles
LLC AVERAGE dMISS LATENCY: 99.3282 cycles
LLC AVERAGE itMISS LATENCY: 5.05758 cycles
LLC AVERAGE dtMISS LATENCY: 18.4739 cycles
LLC PAGE CROSSINGS (TLB HIT):         0 
LLC PAGE CROSSINGS (TLB MISS):         0 
LLC AVERAGE MISS LATENCY: 172.849 cycles

PageTableWalker TOTAL       ACCESS:     186770  
PageTableWalker AVERAGE LATENCY: 6.49125 cycles
PageTableWalker TOTAL LATENCY: 1212369 cycles

DRAM Statistics
Channel 0
 RQ ROW_BUFFER_HIT:     681478
  ROW_BUFFER_MISS:    2505956
 AVG DBUS CONGESTED CYCLE:    3.65122
 WQ ROW_BUFFER_HIT:      67130
  ROW_BUFFER_MISS:      56237  FULL:          0

