last_page:0x200000000000000
VMEM_RES_CAP:0x100000
PAGE_SIZE:4096
LOG2_PAGE_SIZE:12
LOG2_PAGE_TABLE_SIZE:9
page_table_levels:5
WARNING: physical memory size is smaller than virtual memory size
FDiP enabled with aggresivity 16

*** ChampSim Multicore Out-of-Order Simulator ***

Warmup Instructions: 50000000
Simulation Instructions: 100000000
Number of CPUs: 1
Small page size: 4096
Large page size: 2097152

CPU 0 Bimodal branch predictor
Basic BTB sets: 1024 ways: 8 indirect buffer size: 4096 RAS size: 64
Instruction page size distrubution: 0
Loading instruction page size distribution from /home/bsc/bsc018186/scratch/itp_asplos25_AE/dump/smt_srv85_ap_srv73_ap_1024i.pdst
Data page size distrubution: 0
Loading data page size distribution from /home/bsc/bsc018186/scratch/itp_asplos25_AE/dump/smt_srv85_ap_srv73_ap_1024i.pdst
cpu0_L2C IP-based stride prefetcher
cpu0_L1D next line prefetcher
CHiRPing...
cpu0_L1I next line prefetcher
Off-chip DRAM Size: 4 GiB Channels: 1 Width: 64-bit Data Rate: 3200 MT/s
Heartbeat CPU 0 instructions: 10000003 cycles: 2500666 heartbeat IPC: 3.99894 cumulative IPC: 3.99894 (Simulation time: 0 hr 0 min 41 sec) 
Heartbeat CPU 0 instructions: 20000001 cycles: 5001170 heartbeat IPC: 3.9992 cumulative IPC: 3.99907 (Simulation time: 0 hr 1 min 25 sec) 
Heartbeat CPU 0 instructions: 30000003 cycles: 7501556 heartbeat IPC: 3.99939 cumulative IPC: 3.99918 (Simulation time: 0 hr 2 min 9 sec) 
Heartbeat CPU 0 instructions: 40000000 cycles: 10002027 heartbeat IPC: 3.99925 cumulative IPC: 3.99919 (Simulation time: 0 hr 2 min 53 sec) 
Heartbeat CPU 0 instructions: 50000003 cycles: 12503601 heartbeat IPC: 3.99749 cumulative IPC: 3.99885 (Simulation time: 0 hr 3 min 39 sec) 
Warmup finished CPU 0 instructions: 50000003 cycles: 12503602 cumulative IPC: 3.99885 (Simulation time: 0 hr 3 min 39 sec) 

Warmup complete CPU 0 instructions: 50000003 cycles: 12503602 (Simulation time: 0 hr 3 min 39 sec) 

Heartbeat CPU 0 instructions: 60000004 cycles: 36624961 heartbeat IPC: 0.414571 cumulative IPC: 0.414571 (Simulation time: 0 hr 5 min 0 sec) 
Heartbeat CPU 0 instructions: 70000000 cycles: 58919605 heartbeat IPC: 0.448539 cumulative IPC: 0.430886 (Simulation time: 0 hr 6 min 19 sec) 
Heartbeat CPU 0 instructions: 80000002 cycles: 82397080 heartbeat IPC: 0.425941 cumulative IPC: 0.429225 (Simulation time: 0 hr 7 min 41 sec) 
Heartbeat CPU 0 instructions: 90000002 cycles: 113547225 heartbeat IPC: 0.321026 cumulative IPC: 0.395869 (Simulation time: 0 hr 9 min 14 sec) 
Heartbeat CPU 0 instructions: 100000000 cycles: 145560761 heartbeat IPC: 0.312368 cumulative IPC: 0.375779 (Simulation time: 0 hr 10 min 50 sec) 
Heartbeat CPU 0 instructions: 110000001 cycles: 177270383 heartbeat IPC: 0.315362 cumulative IPC: 0.364152 (Simulation time: 0 hr 12 min 26 sec) 
Heartbeat CPU 0 instructions: 120000001 cycles: 207353750 heartbeat IPC: 0.33241 cumulative IPC: 0.359251 (Simulation time: 0 hr 14 min 1 sec) 
Heartbeat CPU 0 instructions: 130000000 cycles: 224895866 heartbeat IPC: 0.570057 cumulative IPC: 0.376662 (Simulation time: 0 hr 15 min 18 sec) 
Heartbeat CPU 0 instructions: 140000004 cycles: 245834159 heartbeat IPC: 0.477595 cumulative IPC: 0.385719 (Simulation time: 0 hr 16 min 40 sec) 
Heartbeat CPU 0 instructions: 150000002 cycles: 277137350 heartbeat IPC: 0.319457 cumulative IPC: 0.377881 (Simulation time: 0 hr 18 min 14 sec) 
Simulation finished CPU 0 instructions: 100000004 cycles: 264633750 cumulative IPC: 0.377881 (Simulation time: 0 hr 18 min 14 sec) 

Simulation complete CPU 0 instructions: 100000004 cycles: 264633750 (Simulation time: 0 hr 18 min 14 sec) 


ChampSim completed all CPUs

Saving instructions large page distribution to /home/bsc/bsc018186/scratch/itp_asplos25_AE/dump/smt_srv85_ap_srv73_ap_1024i.pdst...
Saving data large page distribution to /home/bsc/bsc018186/scratch/itp_asplos25_AE/dump/smt_srv85_ap_srv73_ap_1024i.pdst...
=== Simulation ===
CPU 0 runs /gpfs/projects/bsc18/MN4/bsc18/romol/ChampSim/traces/qualcomm_srv/smt_srv85_ap_srv73_ap_1024i.champsimtrace.xz

Region of Interest Statistics

CPU 0 cumulative IPC: 0.377881 instructions: 100000004 cycles: 264633750
CPU 0 Branch Prediction Accuracy: 77.8344% MPKI: 42.992 Average ROB Occupancy at Mispredict: 10.9389
Branch type MPKI
BRANCH_DIRECT_JUMP: 1.10547
BRANCH_INDIRECT: 23.0236
BRANCH_CONDITIONAL: 12.2427
BRANCH_DIRECT_CALL: 2.0156
BRANCH_INDIRECT_CALL: 1.67551
BRANCH_RETURN: 2.92911

Instructions large pages: 0
Instructions small pages: 11330
Large page distribution for instructions: 0%

Data large pages: 0
Data small pages: 9490
Large page distribution for data: 0%

cpu0_L1I TOTAL       ACCESS:   38197072  HIT:   31080138  MISS:    7116934  iACCESS:   38197072  iHIT:   31080138  iMISS:    7116934  dACCESS:          0  dHIT:          0  dMISS:          0  itACCESS:          0  itHIT:          0  itMISS:          0  dtACCESS:          0  dtHIT:          0  dtMISS:          0
cpu0_L1I LOAD         ACCESS:   10588681  HIT:    8636860  MISS:    1951821  iACCESS:   10588681  iHIT:    8636860  iMISS:    1951821  dACCESS:          0  dHIT:          0  dMISS:          0  itACCESS:          0  itHIT:          0  itMISS:          0  dtACCESS:          0  dtHIT:          0  dtMISS:          0
cpu0_L1I RFO          ACCESS:          0  HIT:          0  MISS:          0  iACCESS:          0  iHIT:          0  iMISS:          0  dACCESS:          0  dHIT:          0  dMISS:          0  itACCESS:          0  itHIT:          0  itMISS:          0  dtACCESS:          0  dtHIT:          0  dtMISS:          0
cpu0_L1I PREFETCH     ACCESS:   27608391  HIT:   22443278  MISS:    5165113  iACCESS:   27608391  iHIT:   22443278  iMISS:    5165113  dACCESS:          0  dHIT:          0  dMISS:          0  itACCESS:          0  itHIT:          0  itMISS:          0  dtACCESS:          0  dtHIT:          0  dtMISS:          0
cpu0_L1I WRITE        ACCESS:          0  HIT:          0  MISS:          0  iACCESS:          0  iHIT:          0  iMISS:          0  dACCESS:          0  dHIT:          0  dMISS:          0  itACCESS:          0  itHIT:          0  itMISS:          0  dtACCESS:          0  dtHIT:          0  dtMISS:          0
cpu0_L1I TRANSLATION  ACCESS:          0  HIT:          0  MISS:          0  iACCESS:          0  iHIT:          0  iMISS:          0  dACCESS:          0  dHIT:          0  dMISS:          0  itACCESS:          0  itHIT:          0  itMISS:          0  dtACCESS:          0  dtHIT:          0  dtMISS:          0
cpu0_L1I PREFETCH  REQUESTED:   30037348  ISSUED:   30037343  CROSSED:          0  USEFUL:    1800324  USELESS:     650226
cpu0_L1I AVERAGE iMISS LATENCY: 24.362 cycles
cpu0_L1I AVERAGE dMISS LATENCY: 0 cycles
cpu0_L1I AVERAGE itMISS LATENCY: 0 cycles
cpu0_L1I AVERAGE dtMISS LATENCY: 0 cycles
cpu0_L1I PAGE CROSSINGS (TLB HIT):         0 
cpu0_L1I PAGE CROSSINGS (TLB MISS):         0 
cpu0_L1I AVERAGE MISS LATENCY: 24.362 cycles
cpu0_ITLB TOTAL       ACCESS:   32336250  HIT:   30474824  MISS:    1861426  iACCESS:   32336250  iHIT:   30474824  iMISS:    1861426  dACCESS:          0  dHIT:          0  dMISS:          0  itACCESS:          0  itHIT:          0  itMISS:          0  dtACCESS:          0  dtHIT:          0  dtMISS:          0
cpu0_ITLB LOAD         ACCESS:   32336250  HIT:   30474824  MISS:    1861426  iACCESS:   32336250  iHIT:   30474824  iMISS:    1861426  dACCESS:          0  dHIT:          0  dMISS:          0  itACCESS:          0  itHIT:          0  itMISS:          0  dtACCESS:          0  dtHIT:          0  dtMISS:          0
cpu0_ITLB RFO          ACCESS:          0  HIT:          0  MISS:          0  iACCESS:          0  iHIT:          0  iMISS:          0  dACCESS:          0  dHIT:          0  dMISS:          0  itACCESS:          0  itHIT:          0  itMISS:          0  dtACCESS:          0  dtHIT:          0  dtMISS:          0
cpu0_ITLB PREFETCH     ACCESS:          0  HIT:          0  MISS:          0  iACCESS:          0  iHIT:          0  iMISS:          0  dACCESS:          0  dHIT:          0  dMISS:          0  itACCESS:          0  itHIT:          0  itMISS:          0  dtACCESS:          0  dtHIT:          0  dtMISS:          0
cpu0_ITLB WRITE        ACCESS:          0  HIT:          0  MISS:          0  iACCESS:          0  iHIT:          0  iMISS:          0  dACCESS:          0  dHIT:          0  dMISS:          0  itACCESS:          0  itHIT:          0  itMISS:          0  dtACCESS:          0  dtHIT:          0  dtMISS:          0
cpu0_ITLB TRANSLATION  ACCESS:          0  HIT:          0  MISS:          0  iACCESS:          0  iHIT:          0  iMISS:          0  dACCESS:          0  dHIT:          0  dMISS:          0  itACCESS:          0  itHIT:          0  itMISS:          0  dtACCESS:          0  dtHIT:          0  dtMISS:          0
cpu0_ITLB PREFETCH  REQUESTED:          0  ISSUED:          0  CROSSED:          0  USEFUL:     327002  USELESS:      68985
cpu0_ITLB AVERAGE iMISS LATENCY: 10.2479 cycles
cpu0_ITLB AVERAGE dMISS LATENCY: 0 cycles
cpu0_ITLB AVERAGE itMISS LATENCY: 0 cycles
cpu0_ITLB AVERAGE dtMISS LATENCY: 0 cycles
cpu0_ITLB PAGE CROSSINGS (TLB HIT):         0 
cpu0_ITLB PAGE CROSSINGS (TLB MISS):         0 
cpu0_ITLB AVERAGE MISS LATENCY: 10.2479 cycles
cpu0_DTLB TOTAL       ACCESS:   31271010  HIT:   25844432  MISS:    5426578  iACCESS:          0  iHIT:          0  iMISS:          0  dACCESS:   31271010  dHIT:   25844432  dMISS:    5426578  itACCESS:          0  itHIT:          0  itMISS:          0  dtACCESS:          0  dtHIT:          0  dtMISS:          0
cpu0_DTLB LOAD         ACCESS:   31271010  HIT:   25844432  MISS:    5426578  iACCESS:          0  iHIT:          0  iMISS:          0  dACCESS:   31271010  dHIT:   25844432  dMISS:    5426578  itACCESS:          0  itHIT:          0  itMISS:          0  dtACCESS:          0  dtHIT:          0  dtMISS:          0
cpu0_DTLB RFO          ACCESS:          0  HIT:          0  MISS:          0  iACCESS:          0  iHIT:          0  iMISS:          0  dACCESS:          0  dHIT:          0  dMISS:          0  itACCESS:          0  itHIT:          0  itMISS:          0  dtACCESS:          0  dtHIT:          0  dtMISS:          0
cpu0_DTLB PREFETCH     ACCESS:          0  HIT:          0  MISS:          0  iACCESS:          0  iHIT:          0  iMISS:          0  dACCESS:          0  dHIT:          0  dMISS:          0  itACCESS:          0  itHIT:          0  itMISS:          0  dtACCESS:          0  dtHIT:          0  dtMISS:          0
cpu0_DTLB WRITE        ACCESS:          0  HIT:          0  MISS:          0  iACCESS:          0  iHIT:          0  iMISS:          0  dACCESS:          0  dHIT:          0  dMISS:          0  itACCESS:          0  itHIT:          0  itMISS:          0  dtACCESS:          0  dtHIT:          0  dtMISS:          0
cpu0_DTLB TRANSLATION  ACCESS:          0  HIT:          0  MISS:          0  iACCESS:          0  iHIT:          0  iMISS:          0  dACCESS:          0  dHIT:          0  dMISS:          0  itACCESS:          0  itHIT:          0  itMISS:          0  dtACCESS:          0  dtHIT:          0  dtMISS:          0
cpu0_DTLB PREFETCH  REQUESTED:          0  ISSUED:          0  CROSSED:          0  USEFUL:          0  USELESS:          0
cpu0_DTLB AVERAGE iMISS LATENCY: 0 cycles
cpu0_DTLB AVERAGE dMISS LATENCY: 14.6813 cycles
cpu0_DTLB AVERAGE itMISS LATENCY: 0 cycles
cpu0_DTLB AVERAGE dtMISS LATENCY: 0 cycles
cpu0_DTLB PAGE CROSSINGS (TLB HIT):         0 
cpu0_DTLB PAGE CROSSINGS (TLB MISS):         0 
cpu0_DTLB AVERAGE MISS LATENCY: 14.6813 cycles
cpu0_STLB TOTAL       ACCESS:    3280863  HIT:    2985794  MISS:     295069  iACCESS:     395988  iHIT:     304842  iMISS:      91146  dACCESS:    2884875  dHIT:    2680952  dMISS:     203923  itACCESS:          0  itHIT:          0  itMISS:          0  dtACCESS:          0  dtHIT:          0  dtMISS:          0
cpu0_STLB LOAD         ACCESS:    3280863  HIT:    2985794  MISS:     295069  iACCESS:     395988  iHIT:     304842  iMISS:      91146  dACCESS:    2884875  dHIT:    2680952  dMISS:     203923  itACCESS:          0  itHIT:          0  itMISS:          0  dtACCESS:          0  dtHIT:          0  dtMISS:          0
cpu0_STLB RFO          ACCESS:          0  HIT:          0  MISS:          0  iACCESS:          0  iHIT:          0  iMISS:          0  dACCESS:          0  dHIT:          0  dMISS:          0  itACCESS:          0  itHIT:          0  itMISS:          0  dtACCESS:          0  dtHIT:          0  dtMISS:          0
cpu0_STLB PREFETCH     ACCESS:          0  HIT:          0  MISS:          0  iACCESS:          0  iHIT:          0  iMISS:          0  dACCESS:          0  dHIT:          0  dMISS:          0  itACCESS:          0  itHIT:          0  itMISS:          0  dtACCESS:          0  dtHIT:          0  dtMISS:          0
cpu0_STLB WRITE        ACCESS:          0  HIT:          0  MISS:          0  iACCESS:          0  iHIT:          0  iMISS:          0  dACCESS:          0  dHIT:          0  dMISS:          0  itACCESS:          0  itHIT:          0  itMISS:          0  dtACCESS:          0  dtHIT:          0  dtMISS:          0
cpu0_STLB TRANSLATION  ACCESS:          0  HIT:          0  MISS:          0  iACCESS:          0  iHIT:          0  iMISS:          0  dACCESS:          0  dHIT:          0  dMISS:          0  itACCESS:          0  itHIT:          0  itMISS:          0  dtACCESS:          0  dtHIT:          0  dtMISS:          0
cpu0_STLB PREFETCH  REQUESTED:          0  ISSUED:          0  CROSSED:          0  USEFUL:          0  USELESS:          0
cpu0_STLB AVERAGE iMISS LATENCY: 53.9279 cycles
cpu0_STLB AVERAGE dMISS LATENCY: 191.002 cycles
cpu0_STLB AVERAGE itMISS LATENCY: 0 cycles
cpu0_STLB AVERAGE dtMISS LATENCY: 0 cycles
cpu0_STLB PAGE CROSSINGS (TLB HIT):         0 
cpu0_STLB PAGE CROSSINGS (TLB MISS):         0 
cpu0_STLB AVERAGE MISS LATENCY: 244.93 cycles
cpu0_L1D TOTAL       ACCESS:   48937834  HIT:   40785891  MISS:    8151943  iACCESS:          0  iHIT:          0  iMISS:          0  dACCESS:   48460900  dHIT:   40762481  dMISS:    7698419  itACCESS:     111940  itHIT:       9881  itMISS:     102059  dtACCESS:     364994  dtHIT:      13529  dtMISS:     351465
cpu0_L1D LOAD         ACCESS:   23381186  HIT:   19276867  MISS:    4104319  iACCESS:          0  iHIT:          0  iMISS:          0  dACCESS:   23381186  dHIT:   19276867  dMISS:    4104319  itACCESS:          0  itHIT:          0  itMISS:          0  dtACCESS:          0  dtHIT:          0  dtMISS:          0
cpu0_L1D RFO          ACCESS:          0  HIT:          0  MISS:          0  iACCESS:          0  iHIT:          0  iMISS:          0  dACCESS:          0  dHIT:          0  dMISS:          0  itACCESS:          0  itHIT:          0  itMISS:          0  dtACCESS:          0  dtHIT:          0  dtMISS:          0
cpu0_L1D PREFETCH     ACCESS:   15248654  HIT:   12436870  MISS:    2811784  iACCESS:          0  iHIT:          0  iMISS:          0  dACCESS:   15248654  dHIT:   12436870  dMISS:    2811784  itACCESS:          0  itHIT:          0  itMISS:          0  dtACCESS:          0  dtHIT:          0  dtMISS:          0
cpu0_L1D WRITE        ACCESS:    9831060  HIT:    9048744  MISS:     782316  iACCESS:          0  iHIT:          0  iMISS:          0  dACCESS:    9831060  dHIT:    9048744  dMISS:     782316  itACCESS:          0  itHIT:          0  itMISS:          0  dtACCESS:          0  dtHIT:          0  dtMISS:          0
cpu0_L1D TRANSLATION  ACCESS:     476934  HIT:      23410  MISS:     453524  iACCESS:          0  iHIT:          0  iMISS:          0  dACCESS:          0  dHIT:          0  dMISS:          0  itACCESS:     111940  itHIT:       9881  itMISS:     102059  dtACCESS:     364994  dtHIT:      13529  dtMISS:     351465
cpu0_L1D PREFETCH  REQUESTED:   23381186  ISSUED:   19768091  CROSSED:          0  USEFUL:     341661  USELESS:    1123501
cpu0_L1D AVERAGE iMISS LATENCY: 0 cycles
cpu0_L1D AVERAGE dMISS LATENCY: 33.3543 cycles
cpu0_L1D AVERAGE itMISS LATENCY: 1.83572 cycles
cpu0_L1D AVERAGE dtMISS LATENCY: 6.4456 cycles
cpu0_L1D PAGE CROSSINGS (TLB HIT):         0 
cpu0_L1D PAGE CROSSINGS (TLB MISS):         0 
cpu0_L1D AVERAGE MISS LATENCY: 41.6356 cycles
cpu0_L2C TOTAL       ACCESS:    9238752  HIT:    5595206  MISS:    3643546  iACCESS:    3124275  iHIT:    1928645  iMISS:    1195630  dACCESS:    5734797  dHIT:    3619698  dMISS:    2115099  itACCESS:      92329  itHIT:      15815  itMISS:      76514  dtACCESS:     287351  dtHIT:      31048  dtMISS:     256303
cpu0_L2C LOAD         ACCESS:    3360428  HIT:    2464841  MISS:     895587  iACCESS:     702185  iHIT:     452763  iMISS:     249422  dACCESS:    2658243  dHIT:    2012078  dMISS:     646165  itACCESS:          0  itHIT:          0  itMISS:          0  dtACCESS:          0  dtHIT:          0  dtMISS:          0
cpu0_L2C RFO          ACCESS:     235463  HIT:     106573  MISS:     128890  iACCESS:          0  iHIT:          0  iMISS:          0  dACCESS:     235463  dHIT:     106573  dMISS:     128890  itACCESS:          0  itHIT:          0  itMISS:          0  dtACCESS:          0  dtHIT:          0  dtMISS:          0
cpu0_L2C PREFETCH     ACCESS:    4928218  HIT:    2644285  MISS:    2283933  iACCESS:    2422090  iHIT:    1475882  iMISS:     946208  dACCESS:    2506128  dHIT:    1168403  dMISS:    1337725  itACCESS:          0  itHIT:          0  itMISS:          0  dtACCESS:          0  dtHIT:          0  dtMISS:          0
cpu0_L2C WRITE        ACCESS:     334963  HIT:     332644  MISS:       2319  iACCESS:          0  iHIT:          0  iMISS:          0  dACCESS:     334963  dHIT:     332644  dMISS:       2319  itACCESS:          0  itHIT:          0  itMISS:          0  dtACCESS:          0  dtHIT:          0  dtMISS:          0
cpu0_L2C TRANSLATION  ACCESS:     379680  HIT:      46863  MISS:     332817  iACCESS:          0  iHIT:          0  iMISS:          0  dACCESS:          0  dHIT:          0  dMISS:          0  itACCESS:      92329  itHIT:      15815  itMISS:      76514  dtACCESS:     287351  dtHIT:      31048  dtMISS:     256303
cpu0_L2C PREFETCH  REQUESTED:    1227071  ISSUED:    1226965  CROSSED:          0  USEFUL:     273597  USELESS:     254648
cpu0_L2C AVERAGE iMISS LATENCY: 40.4571 cycles
cpu0_L2C AVERAGE dMISS LATENCY: 82.1748 cycles
cpu0_L2C AVERAGE itMISS LATENCY: 3.85736 cycles
cpu0_L2C AVERAGE dtMISS LATENCY: 13.6367 cycles
cpu0_L2C PAGE CROSSINGS (TLB HIT):         0 
cpu0_L2C PAGE CROSSINGS (TLB MISS):         0 
cpu0_L2C AVERAGE MISS LATENCY: 140.126 cycles
LLC TOTAL       ACCESS:    3667211  HIT:    1121240  MISS:    2545971  iACCESS:    1128111  iHIT:     345598  iMISS:     782513  dACCESS:    2206283  dHIT:     742391  dMISS:    1463892  itACCESS:      76514  itHIT:       6103  itMISS:      70411  dtACCESS:     256303  dtHIT:      27148  dtMISS:     229155
LLC LOAD         ACCESS:     889260  HIT:     287237  MISS:     602023  iACCESS:     248512  iHIT:      83203  iMISS:     165309  dACCESS:     640748  dHIT:     204034  dMISS:     436714  itACCESS:          0  itHIT:          0  itMISS:          0  dtACCESS:          0  dtHIT:          0  dtMISS:          0
LLC RFO          ACCESS:     128880  HIT:      34637  MISS:      94243  iACCESS:          0  iHIT:          0  iMISS:          0  dACCESS:     128880  dHIT:      34637  dMISS:      94243  itACCESS:          0  itHIT:          0  itMISS:          0  dtACCESS:          0  dtHIT:          0  dtMISS:          0
LLC PREFETCH     ACCESS:    2125945  HIT:     583966  MISS:    1541979  iACCESS:     879599  iHIT:     262395  iMISS:     617204  dACCESS:    1246346  dHIT:     321571  dMISS:     924775  itACCESS:          0  itHIT:          0  itMISS:          0  dtACCESS:          0  dtHIT:          0  dtMISS:          0
LLC WRITE        ACCESS:     190309  HIT:     182149  MISS:       8160  iACCESS:          0  iHIT:          0  iMISS:          0  dACCESS:     190309  dHIT:     182149  dMISS:       8160  itACCESS:          0  itHIT:          0  itMISS:          0  dtACCESS:          0  dtHIT:          0  dtMISS:          0
LLC TRANSLATION  ACCESS:     332817  HIT:      33251  MISS:     299566  iACCESS:          0  iHIT:          0  iMISS:          0  dACCESS:          0  dHIT:          0  dMISS:          0  itACCESS:      76514  itHIT:       6103  itMISS:      70411  dtACCESS:     256303  dtHIT:      27148  dtMISS:     229155
LLC PREFETCH  REQUESTED:          0  ISSUED:          0  CROSSED:          0  USEFUL:          0  USELESS:          0
LLC AVERAGE iMISS LATENCY: 49.1649 cycles
LLC AVERAGE dMISS LATENCY: 102.921 cycles
LLC AVERAGE itMISS LATENCY: 4.92441 cycles
LLC AVERAGE dtMISS LATENCY: 17.5255 cycles
LLC PAGE CROSSINGS (TLB HIT):         0 
LLC PAGE CROSSINGS (TLB MISS):         0 
LLC AVERAGE MISS LATENCY: 174.536 cycles

PageTableWalker TOTAL       ACCESS:     193387  
PageTableWalker AVERAGE LATENCY: 6.59561 cycles
PageTableWalker TOTAL LATENCY: 1275504 cycles

DRAM Statistics
Channel 0
 RQ ROW_BUFFER_HIT:     515564
  ROW_BUFFER_MISS:    2007809
 AVG DBUS CONGESTED CYCLE:    3.65234
 WQ ROW_BUFFER_HIT:      57800
  ROW_BUFFER_MISS:      55023  FULL:          0

