last_page:0x200000000000000
VMEM_RES_CAP:0x100000
PAGE_SIZE:4096
LOG2_PAGE_SIZE:12
LOG2_PAGE_TABLE_SIZE:9
page_table_levels:5
WARNING: physical memory size is smaller than virtual memory size
FDiP enabled with aggresivity 16

*** ChampSim Multicore Out-of-Order Simulator ***

Warmup Instructions: 50000000
Simulation Instructions: 100000000
Number of CPUs: 1
Small page size: 4096
Large page size: 2097152

CPU 0 Bimodal branch predictor
Basic BTB sets: 1024 ways: 8 indirect buffer size: 4096 RAS size: 64
Instruction page size distrubution: 0
Loading instruction page size distribution from /home/bsc/bsc018186/scratch/itp_asplos25_AE/dump/smt_srv537_ap_srv180_ap_1024i.pdst
Data page size distrubution: 0
Loading data page size distribution from /home/bsc/bsc018186/scratch/itp_asplos25_AE/dump/smt_srv537_ap_srv180_ap_1024i.pdst
cpu0_L2C IP-based stride prefetcher
cpu0_L2C is using xPTP/LRU
	TLB_LOWER_STRESS_THRESHOLD:1
	TLB_UPPER_STRESS_THRESHOLD:4
	MIN_EVICTION_POSITION:4
cpu0_L1D next line prefetcher
cpu0_STLB using iTP with max lru@8
cpu0_STLB using iTP with instr@0 and data@2
Init sat counter with 3 bits (max:50).
cpu0_L1I next line prefetcher
Off-chip DRAM Size: 4 GiB Channels: 1 Width: 64-bit Data Rate: 3200 MT/s
Heartbeat CPU 0 instructions: 10000001 cycles: 2500382 heartbeat IPC: 3.99939 cumulative IPC: 3.99939 (Simulation time: 0 hr 0 min 37 sec) 
Heartbeat CPU 0 instructions: 20000003 cycles: 5000419 heartbeat IPC: 3.99995 cumulative IPC: 3.99967 (Simulation time: 0 hr 1 min 16 sec) 
Heartbeat CPU 0 instructions: 30000002 cycles: 7500480 heartbeat IPC: 3.99991 cumulative IPC: 3.99975 (Simulation time: 0 hr 1 min 56 sec) 
Heartbeat CPU 0 instructions: 40000003 cycles: 10000635 heartbeat IPC: 3.99976 cumulative IPC: 3.99975 (Simulation time: 0 hr 2 min 35 sec) 
Heartbeat CPU 0 instructions: 50000001 cycles: 12500734 heartbeat IPC: 3.99985 cumulative IPC: 3.99977 (Simulation time: 0 hr 3 min 15 sec) 
Warmup finished CPU 0 instructions: 50000001 cycles: 12500735 cumulative IPC: 3.99977 (Simulation time: 0 hr 3 min 15 sec) 

Warmup complete CPU 0 instructions: 50000001 cycles: 12500735 (Simulation time: 0 hr 3 min 15 sec) 

Heartbeat CPU 0 instructions: 60000001 cycles: 38722423 heartbeat IPC: 0.381364 cumulative IPC: 0.381364 (Simulation time: 0 hr 4 min 34 sec) 
Heartbeat CPU 0 instructions: 70000003 cycles: 63781588 heartbeat IPC: 0.399056 cumulative IPC: 0.39001 (Simulation time: 0 hr 5 min 51 sec) 
Heartbeat CPU 0 instructions: 80000003 cycles: 89479775 heartbeat IPC: 0.389133 cumulative IPC: 0.389717 (Simulation time: 0 hr 7 min 9 sec) 
Heartbeat CPU 0 instructions: 90000000 cycles: 114375947 heartbeat IPC: 0.401669 cumulative IPC: 0.392638 (Simulation time: 0 hr 8 min 26 sec) 
Heartbeat CPU 0 instructions: 100000003 cycles: 139571572 heartbeat IPC: 0.396895 cumulative IPC: 0.393482 (Simulation time: 0 hr 9 min 44 sec) 
Heartbeat CPU 0 instructions: 110000000 cycles: 166055660 heartbeat IPC: 0.377586 cumulative IPC: 0.39074 (Simulation time: 0 hr 11 min 4 sec) 
Heartbeat CPU 0 instructions: 120000000 cycles: 191248477 heartbeat IPC: 0.396939 cumulative IPC: 0.391614 (Simulation time: 0 hr 12 min 21 sec) 
Heartbeat CPU 0 instructions: 130000000 cycles: 215450160 heartbeat IPC: 0.413195 cumulative IPC: 0.394187 (Simulation time: 0 hr 13 min 37 sec) 
Heartbeat CPU 0 instructions: 140000003 cycles: 241149950 heartbeat IPC: 0.389109 cumulative IPC: 0.393617 (Simulation time: 0 hr 14 min 56 sec) 
Heartbeat CPU 0 instructions: 150000002 cycles: 266382213 heartbeat IPC: 0.396318 cumulative IPC: 0.393885 (Simulation time: 0 hr 16 min 13 sec) 
Simulation finished CPU 0 instructions: 100000001 cycles: 253881479 cumulative IPC: 0.393885 (Simulation time: 0 hr 16 min 13 sec) 

Simulation complete CPU 0 instructions: 100000001 cycles: 253881479 (Simulation time: 0 hr 16 min 13 sec) 


ChampSim completed all CPUs

Saving instructions large page distribution to /home/bsc/bsc018186/scratch/itp_asplos25_AE/dump/smt_srv537_ap_srv180_ap_1024i.pdst...
Saving data large page distribution to /home/bsc/bsc018186/scratch/itp_asplos25_AE/dump/smt_srv537_ap_srv180_ap_1024i.pdst...
=== Simulation ===
CPU 0 runs /gpfs/projects/bsc18/MN4/bsc18/romol/ChampSim/traces/qualcomm_srv/smt_srv537_ap_srv180_ap_1024i.champsimtrace.xz

Region of Interest Statistics

CPU 0 cumulative IPC: 0.393885 instructions: 100000001 cycles: 253881479
CPU 0 Branch Prediction Accuracy: 76.1345% MPKI: 42.9765 Average ROB Occupancy at Mispredict: 11.2566
Branch type MPKI
BRANCH_DIRECT_JUMP: 1.28044
BRANCH_INDIRECT: 22.3442
BRANCH_CONDITIONAL: 12.5476
BRANCH_DIRECT_CALL: 2.47422
BRANCH_INDIRECT_CALL: 0.92457
BRANCH_RETURN: 3.40554

Instructions large pages: 0
Instructions small pages: 13692
Large page distribution for instructions: 0%

Data large pages: 0
Data small pages: 12405
Large page distribution for data: 0%

cpu0_L1I TOTAL       ACCESS:   39221516  HIT:   30289752  MISS:    8931764  iACCESS:   39221516  iHIT:   30289752  iMISS:    8931764  dACCESS:          0  dHIT:          0  dMISS:          0  itACCESS:          0  itHIT:          0  itMISS:          0  dtACCESS:          0  dtHIT:          0  dtMISS:          0
cpu0_L1I LOAD         ACCESS:   11789012  HIT:    9353101  MISS:    2435911  iACCESS:   11789012  iHIT:    9353101  iMISS:    2435911  dACCESS:          0  dHIT:          0  dMISS:          0  itACCESS:          0  itHIT:          0  itMISS:          0  dtACCESS:          0  dtHIT:          0  dtMISS:          0
cpu0_L1I RFO          ACCESS:          0  HIT:          0  MISS:          0  iACCESS:          0  iHIT:          0  iMISS:          0  dACCESS:          0  dHIT:          0  dMISS:          0  itACCESS:          0  itHIT:          0  itMISS:          0  dtACCESS:          0  dtHIT:          0  dtMISS:          0
cpu0_L1I PREFETCH     ACCESS:   27432504  HIT:   20936651  MISS:    6495853  iACCESS:   27432504  iHIT:   20936651  iMISS:    6495853  dACCESS:          0  dHIT:          0  dMISS:          0  itACCESS:          0  itHIT:          0  itMISS:          0  dtACCESS:          0  dtHIT:          0  dtMISS:          0
cpu0_L1I WRITE        ACCESS:          0  HIT:          0  MISS:          0  iACCESS:          0  iHIT:          0  iMISS:          0  dACCESS:          0  dHIT:          0  dMISS:          0  itACCESS:          0  itHIT:          0  itMISS:          0  dtACCESS:          0  dtHIT:          0  dtMISS:          0
cpu0_L1I TRANSLATION  ACCESS:          0  HIT:          0  MISS:          0  iACCESS:          0  iHIT:          0  iMISS:          0  dACCESS:          0  dHIT:          0  dMISS:          0  itACCESS:          0  itHIT:          0  itMISS:          0  dtACCESS:          0  dtHIT:          0  dtMISS:          0
cpu0_L1I PREFETCH  REQUESTED:   30224100  ISSUED:   30223715  CROSSED:          0  USEFUL:    2202160  USELESS:     750767
cpu0_L1I AVERAGE iMISS LATENCY: 21.1136 cycles
cpu0_L1I AVERAGE dMISS LATENCY: 0 cycles
cpu0_L1I AVERAGE itMISS LATENCY: 0 cycles
cpu0_L1I AVERAGE dtMISS LATENCY: 0 cycles
cpu0_L1I PAGE CROSSINGS (TLB HIT):         0 
cpu0_L1I PAGE CROSSINGS (TLB MISS):         0 
cpu0_L1I AVERAGE MISS LATENCY: 21.1136 cycles
cpu0_ITLB TOTAL       ACCESS:   33000501  HIT:   30805816  MISS:    2194685  iACCESS:   33000501  iHIT:   30805816  iMISS:    2194685  dACCESS:          0  dHIT:          0  dMISS:          0  itACCESS:          0  itHIT:          0  itMISS:          0  dtACCESS:          0  dtHIT:          0  dtMISS:          0
cpu0_ITLB LOAD         ACCESS:   33000501  HIT:   30805816  MISS:    2194685  iACCESS:   33000501  iHIT:   30805816  iMISS:    2194685  dACCESS:          0  dHIT:          0  dMISS:          0  itACCESS:          0  itHIT:          0  itMISS:          0  dtACCESS:          0  dtHIT:          0  dtMISS:          0
cpu0_ITLB RFO          ACCESS:          0  HIT:          0  MISS:          0  iACCESS:          0  iHIT:          0  iMISS:          0  dACCESS:          0  dHIT:          0  dMISS:          0  itACCESS:          0  itHIT:          0  itMISS:          0  dtACCESS:          0  dtHIT:          0  dtMISS:          0
cpu0_ITLB PREFETCH     ACCESS:          0  HIT:          0  MISS:          0  iACCESS:          0  iHIT:          0  iMISS:          0  dACCESS:          0  dHIT:          0  dMISS:          0  itACCESS:          0  itHIT:          0  itMISS:          0  dtACCESS:          0  dtHIT:          0  dtMISS:          0
cpu0_ITLB WRITE        ACCESS:          0  HIT:          0  MISS:          0  iACCESS:          0  iHIT:          0  iMISS:          0  dACCESS:          0  dHIT:          0  dMISS:          0  itACCESS:          0  itHIT:          0  itMISS:          0  dtACCESS:          0  dtHIT:          0  dtMISS:          0
cpu0_ITLB TRANSLATION  ACCESS:          0  HIT:          0  MISS:          0  iACCESS:          0  iHIT:          0  iMISS:          0  dACCESS:          0  dHIT:          0  dMISS:          0  itACCESS:          0  itHIT:          0  itMISS:          0  dtACCESS:          0  dtHIT:          0  dtMISS:          0
cpu0_ITLB PREFETCH  REQUESTED:          0  ISSUED:          0  CROSSED:          0  USEFUL:     383715  USELESS:      77231
cpu0_ITLB AVERAGE iMISS LATENCY: 5.20587 cycles
cpu0_ITLB AVERAGE dMISS LATENCY: 0 cycles
cpu0_ITLB AVERAGE itMISS LATENCY: 0 cycles
cpu0_ITLB AVERAGE dtMISS LATENCY: 0 cycles
cpu0_ITLB PAGE CROSSINGS (TLB HIT):         0 
cpu0_ITLB PAGE CROSSINGS (TLB MISS):         0 
cpu0_ITLB AVERAGE MISS LATENCY: 5.20587 cycles
cpu0_DTLB TOTAL       ACCESS:   28746885  HIT:   25308965  MISS:    3437920  iACCESS:          0  iHIT:          0  iMISS:          0  dACCESS:   28746885  dHIT:   25308965  dMISS:    3437920  itACCESS:          0  itHIT:          0  itMISS:          0  dtACCESS:          0  dtHIT:          0  dtMISS:          0
cpu0_DTLB LOAD         ACCESS:   28746885  HIT:   25308965  MISS:    3437920  iACCESS:          0  iHIT:          0  iMISS:          0  dACCESS:   28746885  dHIT:   25308965  dMISS:    3437920  itACCESS:          0  itHIT:          0  itMISS:          0  dtACCESS:          0  dtHIT:          0  dtMISS:          0
cpu0_DTLB RFO          ACCESS:          0  HIT:          0  MISS:          0  iACCESS:          0  iHIT:          0  iMISS:          0  dACCESS:          0  dHIT:          0  dMISS:          0  itACCESS:          0  itHIT:          0  itMISS:          0  dtACCESS:          0  dtHIT:          0  dtMISS:          0
cpu0_DTLB PREFETCH     ACCESS:          0  HIT:          0  MISS:          0  iACCESS:          0  iHIT:          0  iMISS:          0  dACCESS:          0  dHIT:          0  dMISS:          0  itACCESS:          0  itHIT:          0  itMISS:          0  dtACCESS:          0  dtHIT:          0  dtMISS:          0
cpu0_DTLB WRITE        ACCESS:          0  HIT:          0  MISS:          0  iACCESS:          0  iHIT:          0  iMISS:          0  dACCESS:          0  dHIT:          0  dMISS:          0  itACCESS:          0  itHIT:          0  itMISS:          0  dtACCESS:          0  dtHIT:          0  dtMISS:          0
cpu0_DTLB TRANSLATION  ACCESS:          0  HIT:          0  MISS:          0  iACCESS:          0  iHIT:          0  iMISS:          0  dACCESS:          0  dHIT:          0  dMISS:          0  itACCESS:          0  itHIT:          0  itMISS:          0  dtACCESS:          0  dtHIT:          0  dtMISS:          0
cpu0_DTLB PREFETCH  REQUESTED:          0  ISSUED:          0  CROSSED:          0  USEFUL:          0  USELESS:          0
cpu0_DTLB AVERAGE iMISS LATENCY: 0 cycles
cpu0_DTLB AVERAGE dMISS LATENCY: 18.305 cycles
cpu0_DTLB AVERAGE itMISS LATENCY: 0 cycles
cpu0_DTLB AVERAGE dtMISS LATENCY: 0 cycles
cpu0_DTLB PAGE CROSSINGS (TLB HIT):         0 
cpu0_DTLB PAGE CROSSINGS (TLB MISS):         0 
cpu0_DTLB AVERAGE MISS LATENCY: 18.305 cycles
cpu0_STLB TOTAL       ACCESS:    2425653  HIT:    2081199  MISS:     344454  iACCESS:     460953  iHIT:     411663  iMISS:      49290  dACCESS:    1964700  dHIT:    1669536  dMISS:     295164  itACCESS:          0  itHIT:          0  itMISS:          0  dtACCESS:          0  dtHIT:          0  dtMISS:          0
cpu0_STLB LOAD         ACCESS:    2425653  HIT:    2081199  MISS:     344454  iACCESS:     460953  iHIT:     411663  iMISS:      49290  dACCESS:    1964700  dHIT:    1669536  dMISS:     295164  itACCESS:          0  itHIT:          0  itMISS:          0  dtACCESS:          0  dtHIT:          0  dtMISS:          0
cpu0_STLB RFO          ACCESS:          0  HIT:          0  MISS:          0  iACCESS:          0  iHIT:          0  iMISS:          0  dACCESS:          0  dHIT:          0  dMISS:          0  itACCESS:          0  itHIT:          0  itMISS:          0  dtACCESS:          0  dtHIT:          0  dtMISS:          0
cpu0_STLB PREFETCH     ACCESS:          0  HIT:          0  MISS:          0  iACCESS:          0  iHIT:          0  iMISS:          0  dACCESS:          0  dHIT:          0  dMISS:          0  itACCESS:          0  itHIT:          0  itMISS:          0  dtACCESS:          0  dtHIT:          0  dtMISS:          0
cpu0_STLB WRITE        ACCESS:          0  HIT:          0  MISS:          0  iACCESS:          0  iHIT:          0  iMISS:          0  dACCESS:          0  dHIT:          0  dMISS:          0  itACCESS:          0  itHIT:          0  itMISS:          0  dtACCESS:          0  dtHIT:          0  dtMISS:          0
cpu0_STLB TRANSLATION  ACCESS:          0  HIT:          0  MISS:          0  iACCESS:          0  iHIT:          0  iMISS:          0  dACCESS:          0  dHIT:          0  dMISS:          0  itACCESS:          0  itHIT:          0  itMISS:          0  dtACCESS:          0  dtHIT:          0  dtMISS:          0
cpu0_STLB PREFETCH  REQUESTED:          0  ISSUED:          0  CROSSED:          0  USEFUL:          0  USELESS:          0
cpu0_STLB AVERAGE iMISS LATENCY: 22.6776 cycles
cpu0_STLB AVERAGE dMISS LATENCY: 136.762 cycles
cpu0_STLB AVERAGE itMISS LATENCY: 0 cycles
cpu0_STLB AVERAGE dtMISS LATENCY: 0 cycles
cpu0_STLB PAGE CROSSINGS (TLB HIT):         0 
cpu0_STLB PAGE CROSSINGS (TLB MISS):         0 
cpu0_STLB AVERAGE MISS LATENCY: 159.44 cycles
cpu0_L1D TOTAL       ACCESS:   44233066  HIT:   39044400  MISS:    5188666  iACCESS:          0  iHIT:          0  iMISS:          0  dACCESS:   43696694  dHIT:   39016723  dMISS:    4679971  itACCESS:      59027  itHIT:       4967  itMISS:      54060  dtACCESS:     477345  dtHIT:      22710  dtMISS:     454635
cpu0_L1D LOAD         ACCESS:   19932865  HIT:   17839335  MISS:    2093530  iACCESS:          0  iHIT:          0  iMISS:          0  dACCESS:   19932865  dHIT:   17839335  dMISS:    2093530  itACCESS:          0  itHIT:          0  itMISS:          0  dtACCESS:          0  dtHIT:          0  dtMISS:          0
cpu0_L1D RFO          ACCESS:          0  HIT:          0  MISS:          0  iACCESS:          0  iHIT:          0  iMISS:          0  dACCESS:          0  dHIT:          0  dMISS:          0  itACCESS:          0  itHIT:          0  itMISS:          0  dtACCESS:          0  dtHIT:          0  dtMISS:          0
cpu0_L1D PREFETCH     ACCESS:   13600165  HIT:   11560924  MISS:    2039241  iACCESS:          0  iHIT:          0  iMISS:          0  dACCESS:   13600165  dHIT:   11560924  dMISS:    2039241  itACCESS:          0  itHIT:          0  itMISS:          0  dtACCESS:          0  dtHIT:          0  dtMISS:          0
cpu0_L1D WRITE        ACCESS:   10163664  HIT:    9616464  MISS:     547200  iACCESS:          0  iHIT:          0  iMISS:          0  dACCESS:   10163664  dHIT:    9616464  dMISS:     547200  itACCESS:          0  itHIT:          0  itMISS:          0  dtACCESS:          0  dtHIT:          0  dtMISS:          0
cpu0_L1D TRANSLATION  ACCESS:     536372  HIT:      27677  MISS:     508695  iACCESS:          0  iHIT:          0  iMISS:          0  dACCESS:          0  dHIT:          0  dMISS:          0  itACCESS:      59027  itHIT:       4967  itMISS:      54060  dtACCESS:     477345  dtHIT:      22710  dtMISS:     454635
cpu0_L1D PREFETCH  REQUESTED:   19932865  ISSUED:   18225561  CROSSED:          0  USEFUL:     371526  USELESS:     908468
cpu0_L1D AVERAGE iMISS LATENCY: 0 cycles
cpu0_L1D AVERAGE dMISS LATENCY: 49.1199 cycles
cpu0_L1D AVERAGE itMISS LATENCY: 1.40551 cycles
cpu0_L1D AVERAGE dtMISS LATENCY: 7.9954 cycles
cpu0_L1D PAGE CROSSINGS (TLB HIT):         0 
cpu0_L1D PAGE CROSSINGS (TLB MISS):         0 
cpu0_L1D AVERAGE MISS LATENCY: 58.5208 cycles
cpu0_L2C TOTAL       ACCESS:    8528587  HIT:    2515993  MISS:    6012594  iACCESS:    3753520  iHIT:    1430843  iMISS:    2322677  dACCESS:    4293170  dHIT:     857315  dMISS:    3435855  itACCESS:      53768  itHIT:      13675  itMISS:      40093  dtACCESS:     428129  dtHIT:     214160  dtMISS:     213969
cpu0_L2C LOAD         ACCESS:    2033858  HIT:     478337  MISS:    1555521  iACCESS:     838607  iHIT:     283507  iMISS:     555100  dACCESS:    1195251  dHIT:     194830  dMISS:    1000421  itACCESS:          0  itHIT:          0  itMISS:          0  dtACCESS:          0  dtHIT:          0  dtMISS:          0
cpu0_L2C RFO          ACCESS:     208837  HIT:      31074  MISS:     177763  iACCESS:          0  iHIT:          0  iMISS:          0  dACCESS:     208837  dHIT:      31074  dMISS:     177763  itACCESS:          0  itHIT:          0  itMISS:          0  dtACCESS:          0  dtHIT:          0  dtMISS:          0
cpu0_L2C PREFETCH     ACCESS:    5457347  HIT:    1650384  MISS:    3806963  iACCESS:    2914913  iHIT:    1147336  iMISS:    1767577  dACCESS:    2542434  dHIT:     503048  dMISS:    2039386  itACCESS:          0  itHIT:          0  itMISS:          0  dtACCESS:          0  dtHIT:          0  dtMISS:          0
cpu0_L2C WRITE        ACCESS:     346648  HIT:     128363  MISS:     218285  iACCESS:          0  iHIT:          0  iMISS:          0  dACCESS:     346648  dHIT:     128363  dMISS:     218285  itACCESS:          0  itHIT:          0  itMISS:          0  dtACCESS:          0  dtHIT:          0  dtMISS:          0
cpu0_L2C TRANSLATION  ACCESS:     481897  HIT:     227835  MISS:     254062  iACCESS:          0  iHIT:          0  iMISS:          0  dACCESS:          0  dHIT:          0  dMISS:          0  itACCESS:      53768  itHIT:      13675  itMISS:      40093  dtACCESS:     428129  dtHIT:     214160  dtMISS:     213969
cpu0_L2C PREFETCH  REQUESTED:    1508192  ISSUED:    1508190  CROSSED:          0  USEFUL:     386308  USELESS:     431718
cpu0_L2C AVERAGE iMISS LATENCY: 25.955 cycles
cpu0_L2C AVERAGE dMISS LATENCY: 51.7843 cycles
cpu0_L2C AVERAGE itMISS LATENCY: 1.12551 cycles
cpu0_L2C AVERAGE dtMISS LATENCY: 6.22013 cycles
cpu0_L2C PAGE CROSSINGS (TLB HIT):         0 
cpu0_L2C PAGE CROSSINGS (TLB MISS):         0 
cpu0_L2C AVERAGE MISS LATENCY: 85.0849 cycles
LLC TOTAL       ACCESS:    5868499  HIT:    3491795  MISS:    2376704  iACCESS:    2234197  iHIT:    1513489  iMISS:     720708  dACCESS:    3380240  dHIT:    1934149  dMISS:    1446091  itACCESS:      40093  itHIT:       6568  itMISS:      33525  dtACCESS:     213969  dtHIT:      37589  dtMISS:     176380
LLC LOAD         ACCESS:    1550326  HIT:     983996  MISS:     566330  iACCESS:     553790  iHIT:     404342  iMISS:     149448  dACCESS:     996536  dHIT:     579654  dMISS:     416882  itACCESS:          0  itHIT:          0  itMISS:          0  dtACCESS:          0  dtHIT:          0  dtMISS:          0
LLC RFO          ACCESS:     177750  HIT:      94517  MISS:      83233  iACCESS:          0  iHIT:          0  iMISS:          0  dACCESS:     177750  dHIT:      94517  dMISS:      83233  itACCESS:          0  itHIT:          0  itMISS:          0  dtACCESS:          0  dtHIT:          0  dtMISS:          0
LLC PREFETCH     ACCESS:    3607503  HIT:    2094757  MISS:    1512746  iACCESS:    1680407  iHIT:    1109147  iMISS:     571260  dACCESS:    1927096  dHIT:     985610  dMISS:     941486  itACCESS:          0  itHIT:          0  itMISS:          0  dtACCESS:          0  dtHIT:          0  dtMISS:          0
LLC WRITE        ACCESS:     278858  HIT:     274368  MISS:       4490  iACCESS:          0  iHIT:          0  iMISS:          0  dACCESS:     278858  dHIT:     274368  dMISS:       4490  itACCESS:          0  itHIT:          0  itMISS:          0  dtACCESS:          0  dtHIT:          0  dtMISS:          0
LLC TRANSLATION  ACCESS:     254062  HIT:      44157  MISS:     209905  iACCESS:          0  iHIT:          0  iMISS:          0  dACCESS:          0  dHIT:          0  dMISS:          0  itACCESS:      40093  itHIT:       6568  itMISS:      33525  dtACCESS:     213969  dtHIT:      37589  dtMISS:     176380
LLC PREFETCH  REQUESTED:          0  ISSUED:          0  CROSSED:          0  USEFUL:          0  USELESS:          0
LLC AVERAGE iMISS LATENCY: 47.3971 cycles
LLC AVERAGE dMISS LATENCY: 106.166 cycles
LLC AVERAGE itMISS LATENCY: 2.51404 cycles
LLC AVERAGE dtMISS LATENCY: 13.9577 cycles
LLC PAGE CROSSINGS (TLB HIT):         0 
LLC PAGE CROSSINGS (TLB MISS):         0 
LLC AVERAGE MISS LATENCY: 170.035 cycles

PageTableWalker TOTAL       ACCESS:     166844  
PageTableWalker AVERAGE LATENCY: 6.02325 cycles
PageTableWalker TOTAL LATENCY: 1004943 cycles

DRAM Statistics
Channel 0
 RQ ROW_BUFFER_HIT:     538152
  ROW_BUFFER_MISS:    1825043
 AVG DBUS CONGESTED CYCLE:    3.65162
 WQ ROW_BUFFER_HIT:      61691
  ROW_BUFFER_MISS:      63371  FULL:          0

