last_page:0x200000000000000
VMEM_RES_CAP:0x100000
PAGE_SIZE:4096
LOG2_PAGE_SIZE:12
LOG2_PAGE_TABLE_SIZE:9
page_table_levels:5
WARNING: physical memory size is smaller than virtual memory size
FDiP enabled with aggresivity 16

*** ChampSim Multicore Out-of-Order Simulator ***

Warmup Instructions: 50000000
Simulation Instructions: 100000000
Number of CPUs: 1
Small page size: 4096
Large page size: 2097152

CPU 0 Bimodal branch predictor
Basic BTB sets: 1024 ways: 8 indirect buffer size: 4096 RAS size: 64
Instruction page size distrubution: 0
Loading instruction page size distribution from /home/bsc/bsc018186/scratch/itp_asplos25_AE/dump/smt_srv12_ap_srv298_ap_1024i.pdst
Data page size distrubution: 0
Loading data page size distribution from /home/bsc/bsc018186/scratch/itp_asplos25_AE/dump/smt_srv12_ap_srv298_ap_1024i.pdst
cpu0_L2C IP-based stride prefetcher
cpu0_L1D next line prefetcher
CHiRPing...
cpu0_L1I next line prefetcher
Off-chip DRAM Size: 4 GiB Channels: 1 Width: 64-bit Data Rate: 3200 MT/s
Heartbeat CPU 0 instructions: 10000000 cycles: 2500435 heartbeat IPC: 3.99931 cumulative IPC: 3.99931 (Simulation time: 0 hr 0 min 40 sec) 
Heartbeat CPU 0 instructions: 20000002 cycles: 5000602 heartbeat IPC: 3.99974 cumulative IPC: 3.99952 (Simulation time: 0 hr 1 min 21 sec) 
Heartbeat CPU 0 instructions: 30000001 cycles: 7501479 heartbeat IPC: 3.9986 cumulative IPC: 3.99922 (Simulation time: 0 hr 2 min 4 sec) 
Heartbeat CPU 0 instructions: 40000003 cycles: 10001630 heartbeat IPC: 3.99976 cumulative IPC: 3.99935 (Simulation time: 0 hr 2 min 47 sec) 
Heartbeat CPU 0 instructions: 50000000 cycles: 12502044 heartbeat IPC: 3.99934 cumulative IPC: 3.99935 (Simulation time: 0 hr 3 min 29 sec) 
Warmup finished CPU 0 instructions: 50000000 cycles: 12502045 cumulative IPC: 3.99935 (Simulation time: 0 hr 3 min 29 sec) 

Warmup complete CPU 0 instructions: 50000000 cycles: 12502045 (Simulation time: 0 hr 3 min 29 sec) 

Heartbeat CPU 0 instructions: 60000003 cycles: 39679445 heartbeat IPC: 0.367953 cumulative IPC: 0.367953 (Simulation time: 0 hr 4 min 53 sec) 
Heartbeat CPU 0 instructions: 70000001 cycles: 66465612 heartbeat IPC: 0.373327 cumulative IPC: 0.370621 (Simulation time: 0 hr 6 min 16 sec) 
Heartbeat CPU 0 instructions: 80000001 cycles: 93388936 heartbeat IPC: 0.371426 cumulative IPC: 0.370889 (Simulation time: 0 hr 7 min 39 sec) 
Heartbeat CPU 0 instructions: 90000000 cycles: 117926122 heartbeat IPC: 0.407545 cumulative IPC: 0.37942 (Simulation time: 0 hr 8 min 58 sec) 
Heartbeat CPU 0 instructions: 100000000 cycles: 144361533 heartbeat IPC: 0.378281 cumulative IPC: 0.379192 (Simulation time: 0 hr 10 min 20 sec) 
Heartbeat CPU 0 instructions: 110000003 cycles: 171334501 heartbeat IPC: 0.370742 cumulative IPC: 0.377757 (Simulation time: 0 hr 11 min 43 sec) 
Heartbeat CPU 0 instructions: 120000000 cycles: 197347419 heartbeat IPC: 0.384425 cumulative IPC: 0.378695 (Simulation time: 0 hr 13 min 5 sec) 
Heartbeat CPU 0 instructions: 130000003 cycles: 225250231 heartbeat IPC: 0.358387 cumulative IPC: 0.376032 (Simulation time: 0 hr 14 min 30 sec) 
Heartbeat CPU 0 instructions: 140000000 cycles: 252739953 heartbeat IPC: 0.363773 cumulative IPC: 0.374629 (Simulation time: 0 hr 15 min 54 sec) 
Heartbeat CPU 0 instructions: 150000002 cycles: 280407435 heartbeat IPC: 0.361436 cumulative IPC: 0.373267 (Simulation time: 0 hr 17 min 18 sec) 
Simulation finished CPU 0 instructions: 100000002 cycles: 267905391 cumulative IPC: 0.373267 (Simulation time: 0 hr 17 min 18 sec) 

Simulation complete CPU 0 instructions: 100000002 cycles: 267905391 (Simulation time: 0 hr 17 min 18 sec) 


ChampSim completed all CPUs

Saving instructions large page distribution to /home/bsc/bsc018186/scratch/itp_asplos25_AE/dump/smt_srv12_ap_srv298_ap_1024i.pdst...
Saving data large page distribution to /home/bsc/bsc018186/scratch/itp_asplos25_AE/dump/smt_srv12_ap_srv298_ap_1024i.pdst...
=== Simulation ===
CPU 0 runs /gpfs/projects/bsc18/MN4/bsc18/romol/ChampSim/traces/qualcomm_srv/smt_srv12_ap_srv298_ap_1024i.champsimtrace.xz

Region of Interest Statistics

CPU 0 cumulative IPC: 0.373267 instructions: 100000002 cycles: 267905391
CPU 0 Branch Prediction Accuracy: 75.6528% MPKI: 44.0521 Average ROB Occupancy at Mispredict: 10.8169
Branch type MPKI
BRANCH_DIRECT_JUMP: 1.33331
BRANCH_INDIRECT: 22.7363
BRANCH_CONDITIONAL: 12.9124
BRANCH_DIRECT_CALL: 2.56733
BRANCH_INDIRECT_CALL: 1.0555
BRANCH_RETURN: 3.44725

Instructions large pages: 0
Instructions small pages: 14944
Large page distribution for instructions: 0%

Data large pages: 0
Data small pages: 13231
Large page distribution for data: 0%

cpu0_L1I TOTAL       ACCESS:   39351045  HIT:   30197459  MISS:    9153586  iACCESS:   39351045  iHIT:   30197459  iMISS:    9153586  dACCESS:          0  dHIT:          0  dMISS:          0  itACCESS:          0  itHIT:          0  itMISS:          0  dtACCESS:          0  dtHIT:          0  dtMISS:          0
cpu0_L1I LOAD         ACCESS:   11721624  HIT:    9231327  MISS:    2490297  iACCESS:   11721624  iHIT:    9231327  iMISS:    2490297  dACCESS:          0  dHIT:          0  dMISS:          0  itACCESS:          0  itHIT:          0  itMISS:          0  dtACCESS:          0  dtHIT:          0  dtMISS:          0
cpu0_L1I RFO          ACCESS:          0  HIT:          0  MISS:          0  iACCESS:          0  iHIT:          0  iMISS:          0  dACCESS:          0  dHIT:          0  dMISS:          0  itACCESS:          0  itHIT:          0  itMISS:          0  dtACCESS:          0  dtHIT:          0  dtMISS:          0
cpu0_L1I PREFETCH     ACCESS:   27629421  HIT:   20966132  MISS:    6663289  iACCESS:   27629421  iHIT:   20966132  iMISS:    6663289  dACCESS:          0  dHIT:          0  dMISS:          0  itACCESS:          0  itHIT:          0  itMISS:          0  dtACCESS:          0  dtHIT:          0  dtMISS:          0
cpu0_L1I WRITE        ACCESS:          0  HIT:          0  MISS:          0  iACCESS:          0  iHIT:          0  iMISS:          0  dACCESS:          0  dHIT:          0  dMISS:          0  itACCESS:          0  itHIT:          0  itMISS:          0  dtACCESS:          0  dtHIT:          0  dtMISS:          0
cpu0_L1I TRANSLATION  ACCESS:          0  HIT:          0  MISS:          0  iACCESS:          0  iHIT:          0  iMISS:          0  dACCESS:          0  dHIT:          0  dMISS:          0  itACCESS:          0  itHIT:          0  itMISS:          0  dtACCESS:          0  dtHIT:          0  dtMISS:          0
cpu0_L1I PREFETCH  REQUESTED:   30217116  ISSUED:   30215513  CROSSED:          0  USEFUL:    2193278  USELESS:     756631
cpu0_L1I AVERAGE iMISS LATENCY: 23.5164 cycles
cpu0_L1I AVERAGE dMISS LATENCY: 0 cycles
cpu0_L1I AVERAGE itMISS LATENCY: 0 cycles
cpu0_L1I AVERAGE dtMISS LATENCY: 0 cycles
cpu0_L1I PAGE CROSSINGS (TLB HIT):         0 
cpu0_L1I PAGE CROSSINGS (TLB MISS):         0 
cpu0_L1I AVERAGE MISS LATENCY: 23.5164 cycles
cpu0_ITLB TOTAL       ACCESS:   33077022  HIT:   30880521  MISS:    2196501  iACCESS:   33077022  iHIT:   30880521  iMISS:    2196501  dACCESS:          0  dHIT:          0  dMISS:          0  itACCESS:          0  itHIT:          0  itMISS:          0  dtACCESS:          0  dtHIT:          0  dtMISS:          0
cpu0_ITLB LOAD         ACCESS:   33077022  HIT:   30880521  MISS:    2196501  iACCESS:   33077022  iHIT:   30880521  iMISS:    2196501  dACCESS:          0  dHIT:          0  dMISS:          0  itACCESS:          0  itHIT:          0  itMISS:          0  dtACCESS:          0  dtHIT:          0  dtMISS:          0
cpu0_ITLB RFO          ACCESS:          0  HIT:          0  MISS:          0  iACCESS:          0  iHIT:          0  iMISS:          0  dACCESS:          0  dHIT:          0  dMISS:          0  itACCESS:          0  itHIT:          0  itMISS:          0  dtACCESS:          0  dtHIT:          0  dtMISS:          0
cpu0_ITLB PREFETCH     ACCESS:          0  HIT:          0  MISS:          0  iACCESS:          0  iHIT:          0  iMISS:          0  dACCESS:          0  dHIT:          0  dMISS:          0  itACCESS:          0  itHIT:          0  itMISS:          0  dtACCESS:          0  dtHIT:          0  dtMISS:          0
cpu0_ITLB WRITE        ACCESS:          0  HIT:          0  MISS:          0  iACCESS:          0  iHIT:          0  iMISS:          0  dACCESS:          0  dHIT:          0  dMISS:          0  itACCESS:          0  itHIT:          0  itMISS:          0  dtACCESS:          0  dtHIT:          0  dtMISS:          0
cpu0_ITLB TRANSLATION  ACCESS:          0  HIT:          0  MISS:          0  iACCESS:          0  iHIT:          0  iMISS:          0  dACCESS:          0  dHIT:          0  dMISS:          0  itACCESS:          0  itHIT:          0  itMISS:          0  dtACCESS:          0  dtHIT:          0  dtMISS:          0
cpu0_ITLB PREFETCH  REQUESTED:          0  ISSUED:          0  CROSSED:          0  USEFUL:     386851  USELESS:      77780
cpu0_ITLB AVERAGE iMISS LATENCY: 7.59354 cycles
cpu0_ITLB AVERAGE dMISS LATENCY: 0 cycles
cpu0_ITLB AVERAGE itMISS LATENCY: 0 cycles
cpu0_ITLB AVERAGE dtMISS LATENCY: 0 cycles
cpu0_ITLB PAGE CROSSINGS (TLB HIT):         0 
cpu0_ITLB PAGE CROSSINGS (TLB MISS):         0 
cpu0_ITLB AVERAGE MISS LATENCY: 7.59354 cycles
cpu0_DTLB TOTAL       ACCESS:   28922376  HIT:   25324344  MISS:    3598032  iACCESS:          0  iHIT:          0  iMISS:          0  dACCESS:   28922376  dHIT:   25324344  dMISS:    3598032  itACCESS:          0  itHIT:          0  itMISS:          0  dtACCESS:          0  dtHIT:          0  dtMISS:          0
cpu0_DTLB LOAD         ACCESS:   28922376  HIT:   25324344  MISS:    3598032  iACCESS:          0  iHIT:          0  iMISS:          0  dACCESS:   28922376  dHIT:   25324344  dMISS:    3598032  itACCESS:          0  itHIT:          0  itMISS:          0  dtACCESS:          0  dtHIT:          0  dtMISS:          0
cpu0_DTLB RFO          ACCESS:          0  HIT:          0  MISS:          0  iACCESS:          0  iHIT:          0  iMISS:          0  dACCESS:          0  dHIT:          0  dMISS:          0  itACCESS:          0  itHIT:          0  itMISS:          0  dtACCESS:          0  dtHIT:          0  dtMISS:          0
cpu0_DTLB PREFETCH     ACCESS:          0  HIT:          0  MISS:          0  iACCESS:          0  iHIT:          0  iMISS:          0  dACCESS:          0  dHIT:          0  dMISS:          0  itACCESS:          0  itHIT:          0  itMISS:          0  dtACCESS:          0  dtHIT:          0  dtMISS:          0
cpu0_DTLB WRITE        ACCESS:          0  HIT:          0  MISS:          0  iACCESS:          0  iHIT:          0  iMISS:          0  dACCESS:          0  dHIT:          0  dMISS:          0  itACCESS:          0  itHIT:          0  itMISS:          0  dtACCESS:          0  dtHIT:          0  dtMISS:          0
cpu0_DTLB TRANSLATION  ACCESS:          0  HIT:          0  MISS:          0  iACCESS:          0  iHIT:          0  iMISS:          0  dACCESS:          0  dHIT:          0  dMISS:          0  itACCESS:          0  itHIT:          0  itMISS:          0  dtACCESS:          0  dtHIT:          0  dtMISS:          0
cpu0_DTLB PREFETCH  REQUESTED:          0  ISSUED:          0  CROSSED:          0  USEFUL:          0  USELESS:          0
cpu0_DTLB AVERAGE iMISS LATENCY: 0 cycles
cpu0_DTLB AVERAGE dMISS LATENCY: 16.4848 cycles
cpu0_DTLB AVERAGE itMISS LATENCY: 0 cycles
cpu0_DTLB AVERAGE dtMISS LATENCY: 0 cycles
cpu0_DTLB PAGE CROSSINGS (TLB HIT):         0 
cpu0_DTLB PAGE CROSSINGS (TLB MISS):         0 
cpu0_DTLB AVERAGE MISS LATENCY: 16.4848 cycles
cpu0_STLB TOTAL       ACCESS:    2560069  HIT:    2205568  MISS:     354501  iACCESS:     464642  iHIT:     356013  iMISS:     108629  dACCESS:    2095427  dHIT:    1849555  dMISS:     245872  itACCESS:          0  itHIT:          0  itMISS:          0  dtACCESS:          0  dtHIT:          0  dtMISS:          0
cpu0_STLB LOAD         ACCESS:    2560069  HIT:    2205568  MISS:     354501  iACCESS:     464642  iHIT:     356013  iMISS:     108629  dACCESS:    2095427  dHIT:    1849555  dMISS:     245872  itACCESS:          0  itHIT:          0  itMISS:          0  dtACCESS:          0  dtHIT:          0  dtMISS:          0
cpu0_STLB RFO          ACCESS:          0  HIT:          0  MISS:          0  iACCESS:          0  iHIT:          0  iMISS:          0  dACCESS:          0  dHIT:          0  dMISS:          0  itACCESS:          0  itHIT:          0  itMISS:          0  dtACCESS:          0  dtHIT:          0  dtMISS:          0
cpu0_STLB PREFETCH     ACCESS:          0  HIT:          0  MISS:          0  iACCESS:          0  iHIT:          0  iMISS:          0  dACCESS:          0  dHIT:          0  dMISS:          0  itACCESS:          0  itHIT:          0  itMISS:          0  dtACCESS:          0  dtHIT:          0  dtMISS:          0
cpu0_STLB WRITE        ACCESS:          0  HIT:          0  MISS:          0  iACCESS:          0  iHIT:          0  iMISS:          0  dACCESS:          0  dHIT:          0  dMISS:          0  itACCESS:          0  itHIT:          0  itMISS:          0  dtACCESS:          0  dtHIT:          0  dtMISS:          0
cpu0_STLB TRANSLATION  ACCESS:          0  HIT:          0  MISS:          0  iACCESS:          0  iHIT:          0  iMISS:          0  dACCESS:          0  dHIT:          0  dMISS:          0  itACCESS:          0  itHIT:          0  itMISS:          0  dtACCESS:          0  dtHIT:          0  dtMISS:          0
cpu0_STLB PREFETCH  REQUESTED:          0  ISSUED:          0  CROSSED:          0  USEFUL:          0  USELESS:          0
cpu0_STLB AVERAGE iMISS LATENCY: 36.5936 cycles
cpu0_STLB AVERAGE dMISS LATENCY: 119.834 cycles
cpu0_STLB AVERAGE itMISS LATENCY: 0 cycles
cpu0_STLB AVERAGE dtMISS LATENCY: 0 cycles
cpu0_STLB PAGE CROSSINGS (TLB HIT):         0 
cpu0_STLB PAGE CROSSINGS (TLB MISS):         0 
cpu0_STLB AVERAGE MISS LATENCY: 156.427 cycles
cpu0_L1D TOTAL       ACCESS:   44543190  HIT:   39214586  MISS:    5328604  iACCESS:          0  iHIT:          0  iMISS:          0  dACCESS:   44015529  dHIT:   39180446  dMISS:    4835083  itACCESS:     122235  itHIT:      15064  itMISS:     107171  dtACCESS:     405426  dtHIT:      19076  dtMISS:     386350
cpu0_L1D LOAD         ACCESS:   20103766  HIT:   17950059  MISS:    2153707  iACCESS:          0  iHIT:          0  iMISS:          0  dACCESS:   20103766  dHIT:   17950059  dMISS:    2153707  itACCESS:          0  itHIT:          0  itMISS:          0  dtACCESS:          0  dtHIT:          0  dtMISS:          0
cpu0_L1D RFO          ACCESS:          0  HIT:          0  MISS:          0  iACCESS:          0  iHIT:          0  iMISS:          0  dACCESS:          0  dHIT:          0  dMISS:          0  itACCESS:          0  itHIT:          0  itMISS:          0  dtACCESS:          0  dtHIT:          0  dtMISS:          0
cpu0_L1D PREFETCH     ACCESS:   13726225  HIT:   11602585  MISS:    2123640  iACCESS:          0  iHIT:          0  iMISS:          0  dACCESS:   13726225  dHIT:   11602585  dMISS:    2123640  itACCESS:          0  itHIT:          0  itMISS:          0  dtACCESS:          0  dtHIT:          0  dtMISS:          0
cpu0_L1D WRITE        ACCESS:   10185538  HIT:    9627802  MISS:     557736  iACCESS:          0  iHIT:          0  iMISS:          0  dACCESS:   10185538  dHIT:    9627802  dMISS:     557736  itACCESS:          0  itHIT:          0  itMISS:          0  dtACCESS:          0  dtHIT:          0  dtMISS:          0
cpu0_L1D TRANSLATION  ACCESS:     527661  HIT:      34140  MISS:     493521  iACCESS:          0  iHIT:          0  iMISS:          0  dACCESS:          0  dHIT:          0  dMISS:          0  itACCESS:     122235  itHIT:      15064  itMISS:     107171  dtACCESS:     405426  dtHIT:      19076  dtMISS:     386350
cpu0_L1D PREFETCH  REQUESTED:   20103766  ISSUED:   18424288  CROSSED:          0  USEFUL:     360985  USELESS:     924691
cpu0_L1D AVERAGE iMISS LATENCY: 0 cycles
cpu0_L1D AVERAGE dMISS LATENCY: 51.2176 cycles
cpu0_L1D AVERAGE itMISS LATENCY: 2.2277 cycles
cpu0_L1D AVERAGE dtMISS LATENCY: 6.9763 cycles
cpu0_L1D PAGE CROSSINGS (TLB HIT):         0 
cpu0_L1D PAGE CROSSINGS (TLB MISS):         0 
cpu0_L1D AVERAGE MISS LATENCY: 60.4216 cycles
cpu0_L2C TOTAL       ACCESS:    8507558  HIT:    1542089  MISS:    6965469  iACCESS:    3749148  iHIT:     807830  iMISS:    2941318  dACCESS:    4296793  dHIT:     546739  dMISS:    3750054  itACCESS:     106576  itHIT:      37629  itMISS:      68947  dtACCESS:     355041  dtHIT:     149891  dtMISS:     205150
cpu0_L2C LOAD         ACCESS:    2032130  HIT:     217068  MISS:    1815062  iACCESS:     835831  iHIT:     118053  iMISS:     717778  dACCESS:    1196299  dHIT:      99015  dMISS:    1097284  itACCESS:          0  itHIT:          0  itMISS:          0  dtACCESS:          0  dtHIT:          0  dtMISS:          0
cpu0_L2C RFO          ACCESS:     208507  HIT:      28363  MISS:     180144  iACCESS:          0  iHIT:          0  iMISS:          0  dACCESS:     208507  dHIT:      28363  dMISS:     180144  itACCESS:          0  itHIT:          0  itMISS:          0  dtACCESS:          0  dtHIT:          0  dtMISS:          0
cpu0_L2C PREFETCH     ACCESS:    5461644  HIT:    1006047  MISS:    4455597  iACCESS:    2913317  iHIT:     689777  iMISS:    2223540  dACCESS:    2548327  dHIT:     316270  dMISS:    2232057  itACCESS:          0  itHIT:          0  itMISS:          0  dtACCESS:          0  dtHIT:          0  dtMISS:          0
cpu0_L2C WRITE        ACCESS:     343660  HIT:     103091  MISS:     240569  iACCESS:          0  iHIT:          0  iMISS:          0  dACCESS:     343660  dHIT:     103091  dMISS:     240569  itACCESS:          0  itHIT:          0  itMISS:          0  dtACCESS:          0  dtHIT:          0  dtMISS:          0
cpu0_L2C TRANSLATION  ACCESS:     461617  HIT:     187520  MISS:     274097  iACCESS:          0  iHIT:          0  iMISS:          0  dACCESS:          0  dHIT:          0  dMISS:          0  itACCESS:     106576  itHIT:      37629  itMISS:      68947  dtACCESS:     355041  dtHIT:     149891  dtMISS:     205150
cpu0_L2C PREFETCH  REQUESTED:    1503039  ISSUED:    1503039  CROSSED:          0  USEFUL:     409532  USELESS:     485887
cpu0_L2C AVERAGE iMISS LATENCY: 26.2387 cycles
cpu0_L2C AVERAGE dMISS LATENCY: 48.4956 cycles
cpu0_L2C AVERAGE itMISS LATENCY: 1.55622 cycles
cpu0_L2C AVERAGE dtMISS LATENCY: 4.8465 cycles
cpu0_L2C PAGE CROSSINGS (TLB HIT):         0 
cpu0_L2C PAGE CROSSINGS (TLB MISS):         0 
cpu0_L2C AVERAGE MISS LATENCY: 81.137 cycles
LLC TOTAL       ACCESS:    6782153  HIT:    4202416  MISS:    2579737  iACCESS:    2848907  iHIT:    2032159  iMISS:     816748  dACCESS:    3659149  dHIT:    2105350  dMISS:    1553799  itACCESS:      68947  itHIT:      15959  itMISS:      52988  dtACCESS:     205150  dtHIT:      48948  dtMISS:     156202
LLC LOAD         ACCESS:    1809648  HIT:    1193012  MISS:     616636  iACCESS:     716376  iHIT:     546174  iMISS:     170202  dACCESS:    1093272  dHIT:     646838  dMISS:     446434  itACCESS:          0  itHIT:          0  itMISS:          0  dtACCESS:          0  dtHIT:          0  dtMISS:          0
LLC RFO          ACCESS:     180138  HIT:      95429  MISS:      84709  iACCESS:          0  iHIT:          0  iMISS:          0  dACCESS:     180138  dHIT:      95429  dMISS:      84709  itACCESS:          0  itHIT:          0  itMISS:          0  dtACCESS:          0  dtHIT:          0  dtMISS:          0
LLC PREFETCH     ACCESS:    4247480  HIT:    2585259  MISS:    1662221  iACCESS:    2132531  iHIT:    1485985  iMISS:     646546  dACCESS:    2114949  dHIT:    1099274  dMISS:    1015675  itACCESS:          0  itHIT:          0  itMISS:          0  dtACCESS:          0  dtHIT:          0  dtMISS:          0
LLC WRITE        ACCESS:     270790  HIT:     263809  MISS:       6981  iACCESS:          0  iHIT:          0  iMISS:          0  dACCESS:     270790  dHIT:     263809  dMISS:       6981  itACCESS:          0  itHIT:          0  itMISS:          0  dtACCESS:          0  dtHIT:          0  dtMISS:          0
LLC TRANSLATION  ACCESS:     274097  HIT:      64907  MISS:     209190  iACCESS:          0  iHIT:          0  iMISS:          0  dACCESS:          0  dHIT:          0  dMISS:          0  itACCESS:      68947  itHIT:      15959  itMISS:      52988  dtACCESS:     205150  dtHIT:      48948  dtMISS:     156202
LLC PREFETCH  REQUESTED:          0  ISSUED:          0  CROSSED:          0  USEFUL:          0  USELESS:          0
LLC AVERAGE iMISS LATENCY: 49.4061 cycles
LLC AVERAGE dMISS LATENCY: 106.032 cycles
LLC AVERAGE itMISS LATENCY: 3.67538 cycles
LLC AVERAGE dtMISS LATENCY: 11.5204 cycles
LLC PAGE CROSSINGS (TLB HIT):         0 
LLC PAGE CROSSINGS (TLB MISS):         0 
LLC AVERAGE MISS LATENCY: 170.634 cycles

PageTableWalker TOTAL       ACCESS:     174037  
PageTableWalker AVERAGE LATENCY: 5.90518 cycles
PageTableWalker TOTAL LATENCY: 1027719 cycles

DRAM Statistics
Channel 0
 RQ ROW_BUFFER_HIT:     596480
  ROW_BUFFER_MISS:    1966451
 AVG DBUS CONGESTED CYCLE:    3.65143
 WQ ROW_BUFFER_HIT:      62329
  ROW_BUFFER_MISS:      58067  FULL:          0

