last_page:0x200000000000000
VMEM_RES_CAP:0x100000
PAGE_SIZE:4096
LOG2_PAGE_SIZE:12
LOG2_PAGE_TABLE_SIZE:9
page_table_levels:5
WARNING: physical memory size is smaller than virtual memory size
FDiP enabled with aggresivity 16

*** ChampSim Multicore Out-of-Order Simulator ***

Warmup Instructions: 50000000
Simulation Instructions: 100000000
Number of CPUs: 1
Small page size: 4096
Large page size: 2097152

CPU 0 Bimodal branch predictor
Basic BTB sets: 1024 ways: 8 indirect buffer size: 4096 RAS size: 64
Instruction page size distrubution: 0
Loading instruction page size distribution from /home/bsc/bsc018186/scratch/itp_asplos25_AE/dump/smt_srv207_ap_srv551_ap_1024i.pdst
Data page size distrubution: 0
Loading data page size distribution from /home/bsc/bsc018186/scratch/itp_asplos25_AE/dump/smt_srv207_ap_srv551_ap_1024i.pdst
cpu0_L2C IP-based stride prefetcher
cpu0_L2C is using xPTP/LRU
	TLB_LOWER_STRESS_THRESHOLD:1
	TLB_UPPER_STRESS_THRESHOLD:4
	MIN_EVICTION_POSITION:4
cpu0_L1D next line prefetcher
cpu0_STLB using iTP with max lru@8
cpu0_STLB using iTP with instr@0 and data@2
Init sat counter with 3 bits (max:50).
cpu0_L1I next line prefetcher
Off-chip DRAM Size: 4 GiB Channels: 1 Width: 64-bit Data Rate: 3200 MT/s
Heartbeat CPU 0 instructions: 10000001 cycles: 2500392 heartbeat IPC: 3.99938 cumulative IPC: 3.99938 (Simulation time: 0 hr 0 min 37 sec) 
Heartbeat CPU 0 instructions: 20000001 cycles: 5000893 heartbeat IPC: 3.9992 cumulative IPC: 3.99929 (Simulation time: 0 hr 1 min 16 sec) 
Heartbeat CPU 0 instructions: 30000001 cycles: 7501039 heartbeat IPC: 3.99977 cumulative IPC: 3.99945 (Simulation time: 0 hr 1 min 55 sec) 
Heartbeat CPU 0 instructions: 40000003 cycles: 10001201 heartbeat IPC: 3.99975 cumulative IPC: 3.99952 (Simulation time: 0 hr 2 min 35 sec) 
Heartbeat CPU 0 instructions: 50000002 cycles: 12501283 heartbeat IPC: 3.99987 cumulative IPC: 3.99959 (Simulation time: 0 hr 3 min 15 sec) 
Warmup finished CPU 0 instructions: 50000002 cycles: 12501284 cumulative IPC: 3.99959 (Simulation time: 0 hr 3 min 15 sec) 

Warmup complete CPU 0 instructions: 50000002 cycles: 12501284 (Simulation time: 0 hr 3 min 15 sec) 

Heartbeat CPU 0 instructions: 60000003 cycles: 40332781 heartbeat IPC: 0.359306 cumulative IPC: 0.359306 (Simulation time: 0 hr 4 min 36 sec) 
Heartbeat CPU 0 instructions: 70000000 cycles: 69530675 heartbeat IPC: 0.342491 cumulative IPC: 0.350697 (Simulation time: 0 hr 5 min 58 sec) 
Heartbeat CPU 0 instructions: 80000001 cycles: 98176608 heartbeat IPC: 0.34909 cumulative IPC: 0.35016 (Simulation time: 0 hr 7 min 20 sec) 
Heartbeat CPU 0 instructions: 90000003 cycles: 126784858 heartbeat IPC: 0.34955 cumulative IPC: 0.350007 (Simulation time: 0 hr 8 min 43 sec) 
Heartbeat CPU 0 instructions: 100000000 cycles: 155058539 heartbeat IPC: 0.353686 cumulative IPC: 0.350737 (Simulation time: 0 hr 10 min 4 sec) 
Heartbeat CPU 0 instructions: 110000000 cycles: 182302457 heartbeat IPC: 0.367055 cumulative IPC: 0.353355 (Simulation time: 0 hr 11 min 24 sec) 
Heartbeat CPU 0 instructions: 120000002 cycles: 206351965 heartbeat IPC: 0.41581 cumulative IPC: 0.361103 (Simulation time: 0 hr 12 min 42 sec) 
Heartbeat CPU 0 instructions: 130000000 cycles: 222600895 heartbeat IPC: 0.615426 cumulative IPC: 0.380772 (Simulation time: 0 hr 13 min 51 sec) 
Heartbeat CPU 0 instructions: 140000002 cycles: 241131340 heartbeat IPC: 0.539653 cumulative IPC: 0.39365 (Simulation time: 0 hr 15 min 2 sec) 
Heartbeat CPU 0 instructions: 150000000 cycles: 270198784 heartbeat IPC: 0.344028 cumulative IPC: 0.388052 (Simulation time: 0 hr 16 min 25 sec) 
Simulation finished CPU 0 instructions: 100000003 cycles: 257697502 cumulative IPC: 0.388052 (Simulation time: 0 hr 16 min 25 sec) 

Simulation complete CPU 0 instructions: 100000003 cycles: 257697502 (Simulation time: 0 hr 16 min 25 sec) 


ChampSim completed all CPUs

Saving instructions large page distribution to /home/bsc/bsc018186/scratch/itp_asplos25_AE/dump/smt_srv207_ap_srv551_ap_1024i.pdst...
Saving data large page distribution to /home/bsc/bsc018186/scratch/itp_asplos25_AE/dump/smt_srv207_ap_srv551_ap_1024i.pdst...
=== Simulation ===
CPU 0 runs /gpfs/projects/bsc18/MN4/bsc18/romol/ChampSim/traces/qualcomm_srv/smt_srv207_ap_srv551_ap_1024i.champsimtrace.xz

Region of Interest Statistics

CPU 0 cumulative IPC: 0.388052 instructions: 100000003 cycles: 257697502
CPU 0 Branch Prediction Accuracy: 77.4636% MPKI: 43.4302 Average ROB Occupancy at Mispredict: 11.571
Branch type MPKI
BRANCH_DIRECT_JUMP: 1.27778
BRANCH_INDIRECT: 23.718
BRANCH_CONDITIONAL: 11.5725
BRANCH_DIRECT_CALL: 2.41064
BRANCH_INDIRECT_CALL: 1.08263
BRANCH_RETURN: 3.36873

Instructions large pages: 0
Instructions small pages: 11910
Large page distribution for instructions: 0%

Data large pages: 0
Data small pages: 10385
Large page distribution for data: 0%

cpu0_L1I TOTAL       ACCESS:   39799246  HIT:   31823669  MISS:    7975577  iACCESS:   39799246  iHIT:   31823669  iMISS:    7975577  dACCESS:          0  dHIT:          0  dMISS:          0  itACCESS:          0  itHIT:          0  itMISS:          0  dtACCESS:          0  dtHIT:          0  dtMISS:          0
cpu0_L1I LOAD         ACCESS:   11253050  HIT:    9078265  MISS:    2174785  iACCESS:   11253050  iHIT:    9078265  iMISS:    2174785  dACCESS:          0  dHIT:          0  dMISS:          0  itACCESS:          0  itHIT:          0  itMISS:          0  dtACCESS:          0  dtHIT:          0  dtMISS:          0
cpu0_L1I RFO          ACCESS:          0  HIT:          0  MISS:          0  iACCESS:          0  iHIT:          0  iMISS:          0  dACCESS:          0  dHIT:          0  dMISS:          0  itACCESS:          0  itHIT:          0  itMISS:          0  dtACCESS:          0  dtHIT:          0  dtMISS:          0
cpu0_L1I PREFETCH     ACCESS:   28546196  HIT:   22745404  MISS:    5800792  iACCESS:   28546196  iHIT:   22745404  iMISS:    5800792  dACCESS:          0  dHIT:          0  dMISS:          0  itACCESS:          0  itHIT:          0  itMISS:          0  dtACCESS:          0  dtHIT:          0  dtMISS:          0
cpu0_L1I WRITE        ACCESS:          0  HIT:          0  MISS:          0  iACCESS:          0  iHIT:          0  iMISS:          0  dACCESS:          0  dHIT:          0  dMISS:          0  itACCESS:          0  itHIT:          0  itMISS:          0  dtACCESS:          0  dtHIT:          0  dtMISS:          0
cpu0_L1I TRANSLATION  ACCESS:          0  HIT:          0  MISS:          0  iACCESS:          0  iHIT:          0  iMISS:          0  dACCESS:          0  dHIT:          0  dMISS:          0  itACCESS:          0  itHIT:          0  itMISS:          0  dtACCESS:          0  dtHIT:          0  dtMISS:          0
cpu0_L1I PREFETCH  REQUESTED:   31080633  ISSUED:   31080347  CROSSED:          0  USEFUL:    1966229  USELESS:     707965
cpu0_L1I AVERAGE iMISS LATENCY: 23.0122 cycles
cpu0_L1I AVERAGE dMISS LATENCY: 0 cycles
cpu0_L1I AVERAGE itMISS LATENCY: 0 cycles
cpu0_L1I AVERAGE dtMISS LATENCY: 0 cycles
cpu0_L1I PAGE CROSSINGS (TLB HIT):         0 
cpu0_L1I PAGE CROSSINGS (TLB MISS):         0 
cpu0_L1I AVERAGE MISS LATENCY: 23.0122 cycles
cpu0_ITLB TOTAL       ACCESS:   33495695  HIT:   31483079  MISS:    2012616  iACCESS:   33495695  iHIT:   31483079  iMISS:    2012616  dACCESS:          0  dHIT:          0  dMISS:          0  itACCESS:          0  itHIT:          0  itMISS:          0  dtACCESS:          0  dtHIT:          0  dtMISS:          0
cpu0_ITLB LOAD         ACCESS:   33495695  HIT:   31483079  MISS:    2012616  iACCESS:   33495695  iHIT:   31483079  iMISS:    2012616  dACCESS:          0  dHIT:          0  dMISS:          0  itACCESS:          0  itHIT:          0  itMISS:          0  dtACCESS:          0  dtHIT:          0  dtMISS:          0
cpu0_ITLB RFO          ACCESS:          0  HIT:          0  MISS:          0  iACCESS:          0  iHIT:          0  iMISS:          0  dACCESS:          0  dHIT:          0  dMISS:          0  itACCESS:          0  itHIT:          0  itMISS:          0  dtACCESS:          0  dtHIT:          0  dtMISS:          0
cpu0_ITLB PREFETCH     ACCESS:          0  HIT:          0  MISS:          0  iACCESS:          0  iHIT:          0  iMISS:          0  dACCESS:          0  dHIT:          0  dMISS:          0  itACCESS:          0  itHIT:          0  itMISS:          0  dtACCESS:          0  dtHIT:          0  dtMISS:          0
cpu0_ITLB WRITE        ACCESS:          0  HIT:          0  MISS:          0  iACCESS:          0  iHIT:          0  iMISS:          0  dACCESS:          0  dHIT:          0  dMISS:          0  itACCESS:          0  itHIT:          0  itMISS:          0  dtACCESS:          0  dtHIT:          0  dtMISS:          0
cpu0_ITLB TRANSLATION  ACCESS:          0  HIT:          0  MISS:          0  iACCESS:          0  iHIT:          0  iMISS:          0  dACCESS:          0  dHIT:          0  dMISS:          0  itACCESS:          0  itHIT:          0  itMISS:          0  dtACCESS:          0  dtHIT:          0  dtMISS:          0
cpu0_ITLB PREFETCH  REQUESTED:          0  ISSUED:          0  CROSSED:          0  USEFUL:     356051  USELESS:      73903
cpu0_ITLB AVERAGE iMISS LATENCY: 6.20684 cycles
cpu0_ITLB AVERAGE dMISS LATENCY: 0 cycles
cpu0_ITLB AVERAGE itMISS LATENCY: 0 cycles
cpu0_ITLB AVERAGE dtMISS LATENCY: 0 cycles
cpu0_ITLB PAGE CROSSINGS (TLB HIT):         0 
cpu0_ITLB PAGE CROSSINGS (TLB MISS):         0 
cpu0_ITLB AVERAGE MISS LATENCY: 6.20684 cycles
cpu0_DTLB TOTAL       ACCESS:   31117113  HIT:   25081405  MISS:    6035708  iACCESS:          0  iHIT:          0  iMISS:          0  dACCESS:   31117113  dHIT:   25081405  dMISS:    6035708  itACCESS:          0  itHIT:          0  itMISS:          0  dtACCESS:          0  dtHIT:          0  dtMISS:          0
cpu0_DTLB LOAD         ACCESS:   31117113  HIT:   25081405  MISS:    6035708  iACCESS:          0  iHIT:          0  iMISS:          0  dACCESS:   31117113  dHIT:   25081405  dMISS:    6035708  itACCESS:          0  itHIT:          0  itMISS:          0  dtACCESS:          0  dtHIT:          0  dtMISS:          0
cpu0_DTLB RFO          ACCESS:          0  HIT:          0  MISS:          0  iACCESS:          0  iHIT:          0  iMISS:          0  dACCESS:          0  dHIT:          0  dMISS:          0  itACCESS:          0  itHIT:          0  itMISS:          0  dtACCESS:          0  dtHIT:          0  dtMISS:          0
cpu0_DTLB PREFETCH     ACCESS:          0  HIT:          0  MISS:          0  iACCESS:          0  iHIT:          0  iMISS:          0  dACCESS:          0  dHIT:          0  dMISS:          0  itACCESS:          0  itHIT:          0  itMISS:          0  dtACCESS:          0  dtHIT:          0  dtMISS:          0
cpu0_DTLB WRITE        ACCESS:          0  HIT:          0  MISS:          0  iACCESS:          0  iHIT:          0  iMISS:          0  dACCESS:          0  dHIT:          0  dMISS:          0  itACCESS:          0  itHIT:          0  itMISS:          0  dtACCESS:          0  dtHIT:          0  dtMISS:          0
cpu0_DTLB TRANSLATION  ACCESS:          0  HIT:          0  MISS:          0  iACCESS:          0  iHIT:          0  iMISS:          0  dACCESS:          0  dHIT:          0  dMISS:          0  itACCESS:          0  itHIT:          0  itMISS:          0  dtACCESS:          0  dtHIT:          0  dtMISS:          0
cpu0_DTLB PREFETCH  REQUESTED:          0  ISSUED:          0  CROSSED:          0  USEFUL:          0  USELESS:          0
cpu0_DTLB AVERAGE iMISS LATENCY: 0 cycles
cpu0_DTLB AVERAGE dMISS LATENCY: 12.0314 cycles
cpu0_DTLB AVERAGE itMISS LATENCY: 0 cycles
cpu0_DTLB AVERAGE dtMISS LATENCY: 0 cycles
cpu0_DTLB PAGE CROSSINGS (TLB HIT):         0 
cpu0_DTLB PAGE CROSSINGS (TLB MISS):         0 
cpu0_DTLB AVERAGE MISS LATENCY: 12.0314 cycles
cpu0_STLB TOTAL       ACCESS:    3660404  HIT:    3328180  MISS:     332224  iACCESS:     429961  iHIT:     373928  iMISS:      56033  dACCESS:    3230443  dHIT:    2954252  dMISS:     276191  itACCESS:          0  itHIT:          0  itMISS:          0  dtACCESS:          0  dtHIT:          0  dtMISS:          0
cpu0_STLB LOAD         ACCESS:    3660404  HIT:    3328180  MISS:     332224  iACCESS:     429961  iHIT:     373928  iMISS:      56033  dACCESS:    3230443  dHIT:    2954252  dMISS:     276191  itACCESS:          0  itHIT:          0  itMISS:          0  dtACCESS:          0  dtHIT:          0  dtMISS:          0
cpu0_STLB RFO          ACCESS:          0  HIT:          0  MISS:          0  iACCESS:          0  iHIT:          0  iMISS:          0  dACCESS:          0  dHIT:          0  dMISS:          0  itACCESS:          0  itHIT:          0  itMISS:          0  dtACCESS:          0  dtHIT:          0  dtMISS:          0
cpu0_STLB PREFETCH     ACCESS:          0  HIT:          0  MISS:          0  iACCESS:          0  iHIT:          0  iMISS:          0  dACCESS:          0  dHIT:          0  dMISS:          0  itACCESS:          0  itHIT:          0  itMISS:          0  dtACCESS:          0  dtHIT:          0  dtMISS:          0
cpu0_STLB WRITE        ACCESS:          0  HIT:          0  MISS:          0  iACCESS:          0  iHIT:          0  iMISS:          0  dACCESS:          0  dHIT:          0  dMISS:          0  itACCESS:          0  itHIT:          0  itMISS:          0  dtACCESS:          0  dtHIT:          0  dtMISS:          0
cpu0_STLB TRANSLATION  ACCESS:          0  HIT:          0  MISS:          0  iACCESS:          0  iHIT:          0  iMISS:          0  dACCESS:          0  dHIT:          0  dMISS:          0  itACCESS:          0  itHIT:          0  itMISS:          0  dtACCESS:          0  dtHIT:          0  dtMISS:          0
cpu0_STLB PREFETCH  REQUESTED:          0  ISSUED:          0  CROSSED:          0  USEFUL:          0  USELESS:          0
cpu0_STLB AVERAGE iMISS LATENCY: 27.4182 cycles
cpu0_STLB AVERAGE dMISS LATENCY: 139.823 cycles
cpu0_STLB AVERAGE itMISS LATENCY: 0 cycles
cpu0_STLB AVERAGE dtMISS LATENCY: 0 cycles
cpu0_STLB PAGE CROSSINGS (TLB HIT):         0 
cpu0_STLB PAGE CROSSINGS (TLB MISS):         0 
cpu0_STLB AVERAGE MISS LATENCY: 167.241 cycles
cpu0_L1D TOTAL       ACCESS:   49738727  HIT:   40082477  MISS:    9656250  iACCESS:          0  iHIT:          0  iMISS:          0  dACCESS:   49240688  dHIT:   40058177  dMISS:    9182511  itACCESS:      65726  itHIT:       4869  itMISS:      60857  dtACCESS:     432313  dtHIT:      19431  dtMISS:     412882
cpu0_L1D LOAD         ACCESS:   23750922  HIT:   18678704  MISS:    5072218  iACCESS:          0  iHIT:          0  iMISS:          0  dACCESS:   23750922  dHIT:   18678704  dMISS:    5072218  itACCESS:          0  itHIT:          0  itMISS:          0  dtACCESS:          0  dtHIT:          0  dtMISS:          0
cpu0_L1D RFO          ACCESS:          0  HIT:          0  MISS:          0  iACCESS:          0  iHIT:          0  iMISS:          0  dACCESS:          0  dHIT:          0  dMISS:          0  itACCESS:          0  itHIT:          0  itMISS:          0  dtACCESS:          0  dtHIT:          0  dtMISS:          0
cpu0_L1D PREFETCH     ACCESS:   15740804  HIT:   12233737  MISS:    3507067  iACCESS:          0  iHIT:          0  iMISS:          0  dACCESS:   15740804  dHIT:   12233737  dMISS:    3507067  itACCESS:          0  itHIT:          0  itMISS:          0  dtACCESS:          0  dtHIT:          0  dtMISS:          0
cpu0_L1D WRITE        ACCESS:    9748962  HIT:    9145736  MISS:     603226  iACCESS:          0  iHIT:          0  iMISS:          0  dACCESS:    9748962  dHIT:    9145736  dMISS:     603226  itACCESS:          0  itHIT:          0  itMISS:          0  dtACCESS:          0  dtHIT:          0  dtMISS:          0
cpu0_L1D TRANSLATION  ACCESS:     498039  HIT:      24300  MISS:     473739  iACCESS:          0  iHIT:          0  iMISS:          0  dACCESS:          0  dHIT:          0  dMISS:          0  itACCESS:      65726  itHIT:       4869  itMISS:      60857  dtACCESS:     432313  dtHIT:      19431  dtMISS:     412882
cpu0_L1D PREFETCH  REQUESTED:   23750922  ISSUED:   19293328  CROSSED:          0  USEFUL:     346960  USELESS:    1104143
cpu0_L1D AVERAGE iMISS LATENCY: 0 cycles
cpu0_L1D AVERAGE dMISS LATENCY: 30.8012 cycles
cpu0_L1D AVERAGE itMISS LATENCY: 0.882632 cycles
cpu0_L1D AVERAGE dtMISS LATENCY: 4.34652 cycles
cpu0_L1D PAGE CROSSINGS (TLB HIT):         0 
cpu0_L1D PAGE CROSSINGS (TLB MISS):         0 
cpu0_L1D AVERAGE MISS LATENCY: 36.0303 cycles
cpu0_L2C TOTAL       ACCESS:    9930596  HIT:    3117600  MISS:    6812996  iACCESS:    3397855  iHIT:    1234991  iMISS:    2162864  dACCESS:    6082103  dHIT:    1697952  dMISS:    4384151  itACCESS:      60731  itHIT:      13008  itMISS:      47723  dtACCESS:     389907  dtHIT:     171649  dtMISS:     218258
cpu0_L2C LOAD         ACCESS:    3662206  HIT:    1187228  MISS:    2474978  iACCESS:     752316  iHIT:     241273  iMISS:     511043  dACCESS:    2909890  dHIT:     945955  dMISS:    1963935  itACCESS:          0  itHIT:          0  itMISS:          0  dtACCESS:          0  dtHIT:          0  dtMISS:          0
cpu0_L2C RFO          ACCESS:     233208  HIT:      33526  MISS:     199682  iACCESS:          0  iHIT:          0  iMISS:          0  dACCESS:     233208  dHIT:      33526  dMISS:     199682  itACCESS:          0  itHIT:          0  itMISS:          0  dtACCESS:          0  dtHIT:          0  dtMISS:          0
cpu0_L2C PREFETCH     ACCESS:    5257340  HIT:    1588290  MISS:    3669050  iACCESS:    2645539  iHIT:     993718  iMISS:    1651821  dACCESS:    2611801  dHIT:     594572  dMISS:    2017229  itACCESS:          0  itHIT:          0  itMISS:          0  dtACCESS:          0  dtHIT:          0  dtMISS:          0
cpu0_L2C WRITE        ACCESS:     327204  HIT:     123899  MISS:     203305  iACCESS:          0  iHIT:          0  iMISS:          0  dACCESS:     327204  dHIT:     123899  dMISS:     203305  itACCESS:          0  itHIT:          0  itMISS:          0  dtACCESS:          0  dtHIT:          0  dtMISS:          0
cpu0_L2C TRANSLATION  ACCESS:     450638  HIT:     184657  MISS:     265981  iACCESS:          0  iHIT:          0  iMISS:          0  dACCESS:          0  dHIT:          0  dMISS:          0  itACCESS:      60731  itHIT:      13008  itMISS:      47723  dtACCESS:     389907  dtHIT:     171649  dtMISS:     218258
cpu0_L2C PREFETCH  REQUESTED:    1369446  ISSUED:    1369442  CROSSED:          0  USEFUL:     330257  USELESS:     396106
cpu0_L2C AVERAGE iMISS LATENCY: 22.7504 cycles
cpu0_L2C AVERAGE dMISS LATENCY: 48.374 cycles
cpu0_L2C AVERAGE itMISS LATENCY: 1.16347 cycles
cpu0_L2C AVERAGE dtMISS LATENCY: 5.61062 cycles
cpu0_L2C PAGE CROSSINGS (TLB HIT):         0 
cpu0_L2C PAGE CROSSINGS (TLB MISS):         0 
cpu0_L2C AVERAGE MISS LATENCY: 77.8984 cycles
LLC TOTAL       ACCESS:    6680926  HIT:    4318826  MISS:    2362100  iACCESS:    2089396  iHIT:    1365761  iMISS:     723635  dACCESS:    4325549  dHIT:    2905350  dMISS:    1420199  itACCESS:      47723  itHIT:       8619  itMISS:      39104  dtACCESS:     218258  dtHIT:      39096  dtMISS:     179162
LLC LOAD         ACCESS:    2467553  HIT:    1896104  MISS:     571449  iACCESS:     509945  iHIT:     358458  iMISS:     151487  dACCESS:    1957608  dHIT:    1537646  dMISS:     419962  itACCESS:          0  itHIT:          0  itMISS:          0  dtACCESS:          0  dtHIT:          0  dtMISS:          0
LLC RFO          ACCESS:     199657  HIT:     119016  MISS:      80641  iACCESS:          0  iHIT:          0  iMISS:          0  dACCESS:     199657  dHIT:     119016  dMISS:      80641  itACCESS:          0  itHIT:          0  itMISS:          0  dtACCESS:          0  dtHIT:          0  dtMISS:          0
LLC PREFETCH     ACCESS:    3491992  HIT:    2003620  MISS:    1488372  iACCESS:    1579451  iHIT:    1007303  iMISS:     572148  dACCESS:    1912541  dHIT:     996317  dMISS:     916224  itACCESS:          0  itHIT:          0  itMISS:          0  dtACCESS:          0  dtHIT:          0  dtMISS:          0
LLC WRITE        ACCESS:     255743  HIT:     252371  MISS:       3372  iACCESS:          0  iHIT:          0  iMISS:          0  dACCESS:     255743  dHIT:     252371  dMISS:       3372  itACCESS:          0  itHIT:          0  itMISS:          0  dtACCESS:          0  dtHIT:          0  dtMISS:          0
LLC TRANSLATION  ACCESS:     265981  HIT:      47715  MISS:     218266  iACCESS:          0  iHIT:          0  iMISS:          0  dACCESS:          0  dHIT:          0  dMISS:          0  itACCESS:      47723  itHIT:       8619  itMISS:      39104  dtACCESS:     218258  dtHIT:      39096  dtMISS:     179162
LLC PREFETCH  REQUESTED:          0  ISSUED:          0  CROSSED:          0  USEFUL:          0  USELESS:          0
LLC AVERAGE iMISS LATENCY: 48.4164 cycles
LLC AVERAGE dMISS LATENCY: 106.89 cycles
LLC AVERAGE itMISS LATENCY: 2.9569 cycles
LLC AVERAGE dtMISS LATENCY: 14.3587 cycles
LLC PAGE CROSSINGS (TLB HIT):         0 
LLC PAGE CROSSINGS (TLB MISS):         0 
LLC AVERAGE MISS LATENCY: 172.622 cycles

PageTableWalker TOTAL       ACCESS:     188542  
PageTableWalker AVERAGE LATENCY: 6.10702 cycles
PageTableWalker TOTAL LATENCY: 1151429 cycles

DRAM Statistics
Channel 0
 RQ ROW_BUFFER_HIT:     521765
  ROW_BUFFER_MISS:    1820782
 AVG DBUS CONGESTED CYCLE:    3.65307
 WQ ROW_BUFFER_HIT:      57232
  ROW_BUFFER_MISS:      56644  FULL:          0

