last_page:0x200000000000000
VMEM_RES_CAP:0x100000
PAGE_SIZE:4096
LOG2_PAGE_SIZE:12
LOG2_PAGE_TABLE_SIZE:9
page_table_levels:5
WARNING: physical memory size is smaller than virtual memory size
FDiP enabled with aggresivity 16

*** ChampSim Multicore Out-of-Order Simulator ***

Warmup Instructions: 50000000
Simulation Instructions: 100000000
Number of CPUs: 1
Small page size: 4096
Large page size: 2097152

CPU 0 Bimodal branch predictor
Basic BTB sets: 1024 ways: 8 indirect buffer size: 4096 RAS size: 64
Instruction page size distrubution: 0
Loading instruction page size distribution from /home/bsc/bsc018186/scratch/itp_asplos25_AE/dump/smt_srv207_ap_srv495_ap_1024i.pdst
Data page size distrubution: 0
Loading data page size distribution from /home/bsc/bsc018186/scratch/itp_asplos25_AE/dump/smt_srv207_ap_srv495_ap_1024i.pdst
cpu0_L2C IP-based stride prefetcher
cpu0_L2C is using PTP replacement policy:
	TLB_STRESS_THRESHOLD:0
	PTE_EVICTION_RATIO:0
cpu0_L1D next line prefetcher
cpu0_L1I next line prefetcher
Off-chip DRAM Size: 4 GiB Channels: 1 Width: 64-bit Data Rate: 3200 MT/s
Heartbeat CPU 0 instructions: 10000001 cycles: 2500701 heartbeat IPC: 3.99888 cumulative IPC: 3.99888 (Simulation time: 0 hr 0 min 39 sec) 
Heartbeat CPU 0 instructions: 20000003 cycles: 5001256 heartbeat IPC: 3.99912 cumulative IPC: 3.999 (Simulation time: 0 hr 1 min 19 sec) 
Heartbeat CPU 0 instructions: 30000000 cycles: 7501568 heartbeat IPC: 3.9995 cumulative IPC: 3.99917 (Simulation time: 0 hr 2 min 1 sec) 
Heartbeat CPU 0 instructions: 40000000 cycles: 10001868 heartbeat IPC: 3.99953 cumulative IPC: 3.99926 (Simulation time: 0 hr 2 min 44 sec) 
Heartbeat CPU 0 instructions: 50000003 cycles: 12502138 heartbeat IPC: 3.99957 cumulative IPC: 3.99932 (Simulation time: 0 hr 3 min 28 sec) 
Warmup finished CPU 0 instructions: 50000003 cycles: 12502139 cumulative IPC: 3.99932 (Simulation time: 0 hr 3 min 28 sec) 

Warmup complete CPU 0 instructions: 50000003 cycles: 12502139 (Simulation time: 0 hr 3 min 28 sec) 

Heartbeat CPU 0 instructions: 60000001 cycles: 43469061 heartbeat IPC: 0.322926 cumulative IPC: 0.322926 (Simulation time: 0 hr 4 min 57 sec) 
Heartbeat CPU 0 instructions: 70000003 cycles: 74872293 heartbeat IPC: 0.318439 cumulative IPC: 0.320667 (Simulation time: 0 hr 6 min 28 sec) 
Heartbeat CPU 0 instructions: 80000000 cycles: 107552016 heartbeat IPC: 0.306001 cumulative IPC: 0.315624 (Simulation time: 0 hr 8 min 0 sec) 
Heartbeat CPU 0 instructions: 90000000 cycles: 139730526 heartbeat IPC: 0.310767 cumulative IPC: 0.314396 (Simulation time: 0 hr 9 min 32 sec) 
Heartbeat CPU 0 instructions: 100000003 cycles: 169941904 heartbeat IPC: 0.331002 cumulative IPC: 0.317582 (Simulation time: 0 hr 11 min 1 sec) 
Heartbeat CPU 0 instructions: 110000000 cycles: 201729462 heartbeat IPC: 0.314589 cumulative IPC: 0.317079 (Simulation time: 0 hr 12 min 33 sec) 
Heartbeat CPU 0 instructions: 120000000 cycles: 232823001 heartbeat IPC: 0.321611 cumulative IPC: 0.317719 (Simulation time: 0 hr 14 min 4 sec) 
Heartbeat CPU 0 instructions: 130000003 cycles: 263146960 heartbeat IPC: 0.329773 cumulative IPC: 0.319177 (Simulation time: 0 hr 15 min 33 sec) 
Heartbeat CPU 0 instructions: 140000002 cycles: 294763510 heartbeat IPC: 0.316291 cumulative IPC: 0.318854 (Simulation time: 0 hr 17 min 7 sec) 
Heartbeat CPU 0 instructions: 150000000 cycles: 325549059 heartbeat IPC: 0.324828 cumulative IPC: 0.319441 (Simulation time: 0 hr 18 min 40 sec) 
Simulation finished CPU 0 instructions: 100000002 cycles: 313046922 cumulative IPC: 0.319441 (Simulation time: 0 hr 18 min 40 sec) 

Simulation complete CPU 0 instructions: 100000002 cycles: 313046922 (Simulation time: 0 hr 18 min 40 sec) 


ChampSim completed all CPUs

Saving instructions large page distribution to /home/bsc/bsc018186/scratch/itp_asplos25_AE/dump/smt_srv207_ap_srv495_ap_1024i.pdst...
Saving data large page distribution to /home/bsc/bsc018186/scratch/itp_asplos25_AE/dump/smt_srv207_ap_srv495_ap_1024i.pdst...
=== Simulation ===
CPU 0 runs /gpfs/projects/bsc18/MN4/bsc18/romol/ChampSim/traces/qualcomm_srv/smt_srv207_ap_srv495_ap_1024i.champsimtrace.xz

Region of Interest Statistics

CPU 0 cumulative IPC: 0.319441 instructions: 100000002 cycles: 313046922
CPU 0 Branch Prediction Accuracy: 74.477% MPKI: 45.9621 Average ROB Occupancy at Mispredict: 10.7401
Branch type MPKI
BRANCH_DIRECT_JUMP: 1.44247
BRANCH_INDIRECT: 24.0666
BRANCH_CONDITIONAL: 13.0858
BRANCH_DIRECT_CALL: 2.74959
BRANCH_INDIRECT_CALL: 1.02469
BRANCH_RETURN: 3.59303

Instructions large pages: 0
Instructions small pages: 11428
Large page distribution for instructions: 0%

Data large pages: 0
Data small pages: 9945
Large page distribution for data: 0%

cpu0_L1I TOTAL       ACCESS:   39081186  HIT:   30306473  MISS:    8774713  iACCESS:   39081186  iHIT:   30306473  iMISS:    8774713  dACCESS:          0  dHIT:          0  dMISS:          0  itACCESS:          0  itHIT:          0  itMISS:          0  dtACCESS:          0  dtHIT:          0  dtMISS:          0
cpu0_L1I LOAD         ACCESS:   11557166  HIT:    9166951  MISS:    2390215  iACCESS:   11557166  iHIT:    9166951  iMISS:    2390215  dACCESS:          0  dHIT:          0  dMISS:          0  itACCESS:          0  itHIT:          0  itMISS:          0  dtACCESS:          0  dtHIT:          0  dtMISS:          0
cpu0_L1I RFO          ACCESS:          0  HIT:          0  MISS:          0  iACCESS:          0  iHIT:          0  iMISS:          0  dACCESS:          0  dHIT:          0  dMISS:          0  itACCESS:          0  itHIT:          0  itMISS:          0  dtACCESS:          0  dtHIT:          0  dtMISS:          0
cpu0_L1I PREFETCH     ACCESS:   27524020  HIT:   21139522  MISS:    6384498  iACCESS:   27524020  iHIT:   21139522  iMISS:    6384498  dACCESS:          0  dHIT:          0  dMISS:          0  itACCESS:          0  itHIT:          0  itMISS:          0  dtACCESS:          0  dtHIT:          0  dtMISS:          0
cpu0_L1I WRITE        ACCESS:          0  HIT:          0  MISS:          0  iACCESS:          0  iHIT:          0  iMISS:          0  dACCESS:          0  dHIT:          0  dMISS:          0  itACCESS:          0  itHIT:          0  itMISS:          0  dtACCESS:          0  dtHIT:          0  dtMISS:          0
cpu0_L1I TRANSLATION  ACCESS:          0  HIT:          0  MISS:          0  iACCESS:          0  iHIT:          0  iMISS:          0  dACCESS:          0  dHIT:          0  dMISS:          0  itACCESS:          0  itHIT:          0  itMISS:          0  dtACCESS:          0  dtHIT:          0  dtMISS:          0
cpu0_L1I PREFETCH  REQUESTED:   30213582  ISSUED:   30213578  CROSSED:          0  USEFUL:    2216197  USELESS:     795687
cpu0_L1I AVERAGE iMISS LATENCY: 25.3068 cycles
cpu0_L1I AVERAGE dMISS LATENCY: 0 cycles
cpu0_L1I AVERAGE itMISS LATENCY: 0 cycles
cpu0_L1I AVERAGE dtMISS LATENCY: 0 cycles
cpu0_L1I PAGE CROSSINGS (TLB HIT):         0 
cpu0_L1I PAGE CROSSINGS (TLB MISS):         0 
cpu0_L1I AVERAGE MISS LATENCY: 25.3068 cycles
cpu0_ITLB TOTAL       ACCESS:   33210046  HIT:   30933647  MISS:    2276399  iACCESS:   33210046  iHIT:   30933647  iMISS:    2276399  dACCESS:          0  dHIT:          0  dMISS:          0  itACCESS:          0  itHIT:          0  itMISS:          0  dtACCESS:          0  dtHIT:          0  dtMISS:          0
cpu0_ITLB LOAD         ACCESS:   33210046  HIT:   30933647  MISS:    2276399  iACCESS:   33210046  iHIT:   30933647  iMISS:    2276399  dACCESS:          0  dHIT:          0  dMISS:          0  itACCESS:          0  itHIT:          0  itMISS:          0  dtACCESS:          0  dtHIT:          0  dtMISS:          0
cpu0_ITLB RFO          ACCESS:          0  HIT:          0  MISS:          0  iACCESS:          0  iHIT:          0  iMISS:          0  dACCESS:          0  dHIT:          0  dMISS:          0  itACCESS:          0  itHIT:          0  itMISS:          0  dtACCESS:          0  dtHIT:          0  dtMISS:          0
cpu0_ITLB PREFETCH     ACCESS:          0  HIT:          0  MISS:          0  iACCESS:          0  iHIT:          0  iMISS:          0  dACCESS:          0  dHIT:          0  dMISS:          0  itACCESS:          0  itHIT:          0  itMISS:          0  dtACCESS:          0  dtHIT:          0  dtMISS:          0
cpu0_ITLB WRITE        ACCESS:          0  HIT:          0  MISS:          0  iACCESS:          0  iHIT:          0  iMISS:          0  dACCESS:          0  dHIT:          0  dMISS:          0  itACCESS:          0  itHIT:          0  itMISS:          0  dtACCESS:          0  dtHIT:          0  dtMISS:          0
cpu0_ITLB TRANSLATION  ACCESS:          0  HIT:          0  MISS:          0  iACCESS:          0  iHIT:          0  iMISS:          0  dACCESS:          0  dHIT:          0  dMISS:          0  itACCESS:          0  itHIT:          0  itMISS:          0  dtACCESS:          0  dtHIT:          0  dtMISS:          0
cpu0_ITLB PREFETCH  REQUESTED:          0  ISSUED:          0  CROSSED:          0  USEFUL:     400839  USELESS:      82528
cpu0_ITLB AVERAGE iMISS LATENCY: 10.6875 cycles
cpu0_ITLB AVERAGE dMISS LATENCY: 0 cycles
cpu0_ITLB AVERAGE itMISS LATENCY: 0 cycles
cpu0_ITLB AVERAGE dtMISS LATENCY: 0 cycles
cpu0_ITLB PAGE CROSSINGS (TLB HIT):         0 
cpu0_ITLB PAGE CROSSINGS (TLB MISS):         0 
cpu0_ITLB AVERAGE MISS LATENCY: 10.6875 cycles
cpu0_DTLB TOTAL       ACCESS:   29215267  HIT:   25649633  MISS:    3565634  iACCESS:          0  iHIT:          0  iMISS:          0  dACCESS:   29215267  dHIT:   25649633  dMISS:    3565634  itACCESS:          0  itHIT:          0  itMISS:          0  dtACCESS:          0  dtHIT:          0  dtMISS:          0
cpu0_DTLB LOAD         ACCESS:   29215267  HIT:   25649633  MISS:    3565634  iACCESS:          0  iHIT:          0  iMISS:          0  dACCESS:   29215267  dHIT:   25649633  dMISS:    3565634  itACCESS:          0  itHIT:          0  itMISS:          0  dtACCESS:          0  dtHIT:          0  dtMISS:          0
cpu0_DTLB RFO          ACCESS:          0  HIT:          0  MISS:          0  iACCESS:          0  iHIT:          0  iMISS:          0  dACCESS:          0  dHIT:          0  dMISS:          0  itACCESS:          0  itHIT:          0  itMISS:          0  dtACCESS:          0  dtHIT:          0  dtMISS:          0
cpu0_DTLB PREFETCH     ACCESS:          0  HIT:          0  MISS:          0  iACCESS:          0  iHIT:          0  iMISS:          0  dACCESS:          0  dHIT:          0  dMISS:          0  itACCESS:          0  itHIT:          0  itMISS:          0  dtACCESS:          0  dtHIT:          0  dtMISS:          0
cpu0_DTLB WRITE        ACCESS:          0  HIT:          0  MISS:          0  iACCESS:          0  iHIT:          0  iMISS:          0  dACCESS:          0  dHIT:          0  dMISS:          0  itACCESS:          0  itHIT:          0  itMISS:          0  dtACCESS:          0  dtHIT:          0  dtMISS:          0
cpu0_DTLB TRANSLATION  ACCESS:          0  HIT:          0  MISS:          0  iACCESS:          0  iHIT:          0  iMISS:          0  dACCESS:          0  dHIT:          0  dMISS:          0  itACCESS:          0  itHIT:          0  itMISS:          0  dtACCESS:          0  dtHIT:          0  dtMISS:          0
cpu0_DTLB PREFETCH  REQUESTED:          0  ISSUED:          0  CROSSED:          0  USEFUL:          0  USELESS:          0
cpu0_DTLB AVERAGE iMISS LATENCY: 0 cycles
cpu0_DTLB AVERAGE dMISS LATENCY: 26.0087 cycles
cpu0_DTLB AVERAGE itMISS LATENCY: 0 cycles
cpu0_DTLB AVERAGE dtMISS LATENCY: 0 cycles
cpu0_DTLB PAGE CROSSINGS (TLB HIT):         0 
cpu0_DTLB PAGE CROSSINGS (TLB MISS):         0 
cpu0_DTLB AVERAGE MISS LATENCY: 26.0087 cycles
cpu0_STLB TOTAL       ACCESS:    2583394  HIT:    2189129  MISS:     394265  iACCESS:     483364  iHIT:     362752  iMISS:     120612  dACCESS:    2100030  dHIT:    1826377  dMISS:     273653  itACCESS:          0  itHIT:          0  itMISS:          0  dtACCESS:          0  dtHIT:          0  dtMISS:          0
cpu0_STLB LOAD         ACCESS:    2583394  HIT:    2189129  MISS:     394265  iACCESS:     483364  iHIT:     362752  iMISS:     120612  dACCESS:    2100030  dHIT:    1826377  dMISS:     273653  itACCESS:          0  itHIT:          0  itMISS:          0  dtACCESS:          0  dtHIT:          0  dtMISS:          0
cpu0_STLB RFO          ACCESS:          0  HIT:          0  MISS:          0  iACCESS:          0  iHIT:          0  iMISS:          0  dACCESS:          0  dHIT:          0  dMISS:          0  itACCESS:          0  itHIT:          0  itMISS:          0  dtACCESS:          0  dtHIT:          0  dtMISS:          0
cpu0_STLB PREFETCH     ACCESS:          0  HIT:          0  MISS:          0  iACCESS:          0  iHIT:          0  iMISS:          0  dACCESS:          0  dHIT:          0  dMISS:          0  itACCESS:          0  itHIT:          0  itMISS:          0  dtACCESS:          0  dtHIT:          0  dtMISS:          0
cpu0_STLB WRITE        ACCESS:          0  HIT:          0  MISS:          0  iACCESS:          0  iHIT:          0  iMISS:          0  dACCESS:          0  dHIT:          0  dMISS:          0  itACCESS:          0  itHIT:          0  itMISS:          0  dtACCESS:          0  dtHIT:          0  dtMISS:          0
cpu0_STLB TRANSLATION  ACCESS:          0  HIT:          0  MISS:          0  iACCESS:          0  iHIT:          0  iMISS:          0  dACCESS:          0  dHIT:          0  dMISS:          0  itACCESS:          0  itHIT:          0  itMISS:          0  dtACCESS:          0  dtHIT:          0  dtMISS:          0
cpu0_STLB PREFETCH  REQUESTED:          0  ISSUED:          0  CROSSED:          0  USEFUL:          0  USELESS:          0
cpu0_STLB AVERAGE iMISS LATENCY: 51.8923 cycles
cpu0_STLB AVERAGE dMISS LATENCY: 192.324 cycles
cpu0_STLB AVERAGE itMISS LATENCY: 0 cycles
cpu0_STLB AVERAGE dtMISS LATENCY: 0 cycles
cpu0_STLB PAGE CROSSINGS (TLB HIT):         0 
cpu0_STLB PAGE CROSSINGS (TLB MISS):         0 
cpu0_STLB AVERAGE MISS LATENCY: 244.216 cycles
cpu0_L1D TOTAL       ACCESS:   45790359  HIT:   39682151  MISS:    6108208  iACCESS:          0  iHIT:          0  iMISS:          0  dACCESS:   45214116  dHIT:   39648741  dMISS:    5565375  itACCESS:     134881  itHIT:      14317  itMISS:     120564  dtACCESS:     441362  dtHIT:      19093  dtMISS:     422269
cpu0_L1D LOAD         ACCESS:   20706845  HIT:   18191429  MISS:    2515416  iACCESS:          0  iHIT:          0  iMISS:          0  dACCESS:   20706845  dHIT:   18191429  dMISS:    2515416  itACCESS:          0  itHIT:          0  itMISS:          0  dtACCESS:          0  dtHIT:          0  dtMISS:          0
cpu0_L1D RFO          ACCESS:          0  HIT:          0  MISS:          0  iACCESS:          0  iHIT:          0  iMISS:          0  dACCESS:          0  dHIT:          0  dMISS:          0  itACCESS:          0  itHIT:          0  itMISS:          0  dtACCESS:          0  dtHIT:          0  dtMISS:          0
cpu0_L1D PREFETCH     ACCESS:   14387919  HIT:   11931434  MISS:    2456485  iACCESS:          0  iHIT:          0  iMISS:          0  dACCESS:   14387919  dHIT:   11931434  dMISS:    2456485  itACCESS:          0  itHIT:          0  itMISS:          0  dtACCESS:          0  dtHIT:          0  dtMISS:          0
cpu0_L1D WRITE        ACCESS:   10119352  HIT:    9525878  MISS:     593474  iACCESS:          0  iHIT:          0  iMISS:          0  dACCESS:   10119352  dHIT:    9525878  dMISS:     593474  itACCESS:          0  itHIT:          0  itMISS:          0  dtACCESS:          0  dtHIT:          0  dtMISS:          0
cpu0_L1D TRANSLATION  ACCESS:     576243  HIT:      33410  MISS:     542833  iACCESS:          0  iHIT:          0  iMISS:          0  dACCESS:          0  dHIT:          0  dMISS:          0  itACCESS:     134881  itHIT:      14317  itMISS:     120564  dtACCESS:     441362  dtHIT:      19093  dtMISS:     422269
cpu0_L1D PREFETCH  REQUESTED:   20706845  ISSUED:   18882159  CROSSED:          0  USEFUL:     380441  USELESS:     959616
cpu0_L1D AVERAGE iMISS LATENCY: 0 cycles
cpu0_L1D AVERAGE dMISS LATENCY: 49.5448 cycles
cpu0_L1D AVERAGE itMISS LATENCY: 3.16584 cycles
cpu0_L1D AVERAGE dtMISS LATENCY: 11.6477 cycles
cpu0_L1D PAGE CROSSINGS (TLB HIT):         0 
cpu0_L1D PAGE CROSSINGS (TLB MISS):         0 
cpu0_L1D AVERAGE MISS LATENCY: 64.3583 cycles
cpu0_L2C TOTAL       ACCESS:    8811385  HIT:    4090341  MISS:    4721044  iACCESS:    3834415  iHIT:    2226978  iMISS:    1607437  dACCESS:    4469257  dHIT:    1797713  dMISS:    2671544  itACCESS:     120259  itHIT:      22256  itMISS:      98003  dtACCESS:     387454  dtHIT:      43394  dtMISS:     344060
cpu0_L2C LOAD         ACCESS:    2114100  HIT:     977304  MISS:    1136796  iACCESS:     856389  iHIT:     515487  iMISS:     340902  dACCESS:    1257711  dHIT:     461817  dMISS:     795894  itACCESS:          0  itHIT:          0  itMISS:          0  dtACCESS:          0  dtHIT:          0  dtMISS:          0
cpu0_L2C RFO          ACCESS:     225065  HIT:      85209  MISS:     139856  iACCESS:          0  iHIT:          0  iMISS:          0  dACCESS:     225065  dHIT:      85209  dMISS:     139856  itACCESS:          0  itHIT:          0  itMISS:          0  dtACCESS:          0  dtHIT:          0  dtMISS:          0
cpu0_L2C PREFETCH     ACCESS:    5614674  HIT:    2632122  MISS:    2982552  iACCESS:    2978026  iHIT:    1711491  iMISS:    1266535  dACCESS:    2636648  dHIT:     920631  dMISS:    1716017  itACCESS:          0  itHIT:          0  itMISS:          0  dtACCESS:          0  dtHIT:          0  dtMISS:          0
cpu0_L2C WRITE        ACCESS:     349833  HIT:     330056  MISS:      19777  iACCESS:          0  iHIT:          0  iMISS:          0  dACCESS:     349833  dHIT:     330056  dMISS:      19777  itACCESS:          0  itHIT:          0  itMISS:          0  dtACCESS:          0  dtHIT:          0  dtMISS:          0
cpu0_L2C TRANSLATION  ACCESS:     507713  HIT:      65650  MISS:     442063  iACCESS:          0  iHIT:          0  iMISS:          0  dACCESS:          0  dHIT:          0  dMISS:          0  itACCESS:     120259  itHIT:      22256  itMISS:      98003  dtACCESS:     387454  dtHIT:      43394  dtMISS:     344060
cpu0_L2C PREFETCH  REQUESTED:    1534151  ISSUED:    1534147  CROSSED:          0  USEFUL:     353238  USELESS:     342727
cpu0_L2C AVERAGE iMISS LATENCY: 40.2836 cycles
cpu0_L2C AVERAGE dMISS LATENCY: 79.3632 cycles
cpu0_L2C AVERAGE itMISS LATENCY: 3.84527 cycles
cpu0_L2C AVERAGE dtMISS LATENCY: 14.254 cycles
cpu0_L2C PAGE CROSSINGS (TLB HIT):         0 
cpu0_L2C PAGE CROSSINGS (TLB MISS):         0 
cpu0_L2C AVERAGE MISS LATENCY: 137.746 cycles
LLC TOTAL       ACCESS:    4698559  HIT:    1448863  MISS:    3249696  iACCESS:    1518067  iHIT:     510307  iMISS:    1007760  dACCESS:    2738429  dHIT:     897918  dMISS:    1840511  itACCESS:      98003  itHIT:       7476  itMISS:      90527  dtACCESS:     344060  dtHIT:      33162  dtMISS:     310898
LLC LOAD         ACCESS:    1128478  HIT:     370514  MISS:     757964  iACCESS:     339635  iHIT:     125247  iMISS:     214388  dACCESS:     788843  dHIT:     245267  dMISS:     543576  itACCESS:          0  itHIT:          0  itMISS:          0  dtACCESS:          0  dtHIT:          0  dtMISS:          0
LLC RFO          ACCESS:     139850  HIT:      43590  MISS:      96260  iACCESS:          0  iHIT:          0  iMISS:          0  dACCESS:     139850  dHIT:      43590  dMISS:      96260  itACCESS:          0  itHIT:          0  itMISS:          0  dtACCESS:          0  dtHIT:          0  dtMISS:          0
LLC PREFETCH     ACCESS:    2771650  HIT:     787792  MISS:    1983858  iACCESS:    1178432  iHIT:     385060  iMISS:     793372  dACCESS:    1593218  dHIT:     402732  dMISS:    1190486  itACCESS:          0  itHIT:          0  itMISS:          0  dtACCESS:          0  dtHIT:          0  dtMISS:          0
LLC WRITE        ACCESS:     216518  HIT:     206329  MISS:      10189  iACCESS:          0  iHIT:          0  iMISS:          0  dACCESS:     216518  dHIT:     206329  dMISS:      10189  itACCESS:          0  itHIT:          0  itMISS:          0  dtACCESS:          0  dtHIT:          0  dtMISS:          0
LLC TRANSLATION  ACCESS:     442063  HIT:      40638  MISS:     401425  iACCESS:          0  iHIT:          0  iMISS:          0  dACCESS:          0  dHIT:          0  dMISS:          0  itACCESS:      98003  itHIT:       7476  itMISS:      90527  dtACCESS:     344060  dtHIT:      33162  dtMISS:     310898
LLC PREFETCH  REQUESTED:          0  ISSUED:          0  CROSSED:          0  USEFUL:          0  USELESS:          0
LLC AVERAGE iMISS LATENCY: 49.3235 cycles
LLC AVERAGE dMISS LATENCY: 100.987 cycles
LLC AVERAGE itMISS LATENCY: 4.98823 cycles
LLC AVERAGE dtMISS LATENCY: 18.6136 cycles
LLC PAGE CROSSINGS (TLB HIT):         0 
LLC PAGE CROSSINGS (TLB MISS):         0 
LLC AVERAGE MISS LATENCY: 173.912 cycles

PageTableWalker TOTAL       ACCESS:     193967  
PageTableWalker AVERAGE LATENCY: 6.38808 cycles
PageTableWalker TOTAL LATENCY: 1239076 cycles

DRAM Statistics
Channel 0
 RQ ROW_BUFFER_HIT:     671397
  ROW_BUFFER_MISS:    2547896
 AVG DBUS CONGESTED CYCLE:    3.65114
 WQ ROW_BUFFER_HIT:      68740
  ROW_BUFFER_MISS:      58325  FULL:          0

