last_page:0x200000000000000
VMEM_RES_CAP:0x100000
PAGE_SIZE:4096
LOG2_PAGE_SIZE:12
LOG2_PAGE_TABLE_SIZE:9
page_table_levels:5
WARNING: physical memory size is smaller than virtual memory size
FDiP enabled with aggresivity 16

*** ChampSim Multicore Out-of-Order Simulator ***

Warmup Instructions: 50000000
Simulation Instructions: 100000000
Number of CPUs: 1
Small page size: 4096
Large page size: 2097152

CPU 0 Bimodal branch predictor
Basic BTB sets: 1024 ways: 8 indirect buffer size: 4096 RAS size: 64
Instruction page size distrubution: 0
Loading instruction page size distribution from /home/bsc/bsc018186/scratch/itp_asplos25_AE/dump/smt_srv207_ap_srv442_ap_1024i.pdst
Data page size distrubution: 0
Loading data page size distribution from /home/bsc/bsc018186/scratch/itp_asplos25_AE/dump/smt_srv207_ap_srv442_ap_1024i.pdst
cpu0_L2C IP-based stride prefetcher
cpu0_L1D next line prefetcher
cpu0_L1I next line prefetcher
Off-chip DRAM Size: 4 GiB Channels: 1 Width: 64-bit Data Rate: 3200 MT/s
Heartbeat CPU 0 instructions: 10000001 cycles: 2500651 heartbeat IPC: 3.99896 cumulative IPC: 3.99896 (Simulation time: 0 hr 0 min 46 sec) 
Heartbeat CPU 0 instructions: 20000003 cycles: 5001123 heartbeat IPC: 3.99925 cumulative IPC: 3.99911 (Simulation time: 0 hr 1 min 34 sec) 
Heartbeat CPU 0 instructions: 30000000 cycles: 7501474 heartbeat IPC: 3.99944 cumulative IPC: 3.99922 (Simulation time: 0 hr 2 min 19 sec) 
Heartbeat CPU 0 instructions: 40000002 cycles: 10001730 heartbeat IPC: 3.9996 cumulative IPC: 3.99931 (Simulation time: 0 hr 3 min 8 sec) 
Heartbeat CPU 0 instructions: 50000000 cycles: 12502231 heartbeat IPC: 3.9992 cumulative IPC: 3.99929 (Simulation time: 0 hr 3 min 57 sec) 
Warmup finished CPU 0 instructions: 50000000 cycles: 12502232 cumulative IPC: 3.99929 (Simulation time: 0 hr 3 min 57 sec) 

Warmup complete CPU 0 instructions: 50000000 cycles: 12502232 (Simulation time: 0 hr 3 min 57 sec) 

Heartbeat CPU 0 instructions: 60000000 cycles: 43037260 heartbeat IPC: 0.327493 cumulative IPC: 0.327493 (Simulation time: 0 hr 5 min 39 sec) 
Heartbeat CPU 0 instructions: 70000004 cycles: 72208066 heartbeat IPC: 0.342809 cumulative IPC: 0.334976 (Simulation time: 0 hr 7 min 15 sec) 
Heartbeat CPU 0 instructions: 80000000 cycles: 102982893 heartbeat IPC: 0.324941 cumulative IPC: 0.331563 (Simulation time: 0 hr 8 min 58 sec) 
Heartbeat CPU 0 instructions: 90000000 cycles: 133611581 heartbeat IPC: 0.326492 cumulative IPC: 0.330281 (Simulation time: 0 hr 10 min 39 sec) 
Heartbeat CPU 0 instructions: 100000000 cycles: 163990439 heartbeat IPC: 0.329177 cumulative IPC: 0.330059 (Simulation time: 0 hr 12 min 19 sec) 
Heartbeat CPU 0 instructions: 110000003 cycles: 194942870 heartbeat IPC: 0.323077 cumulative IPC: 0.328875 (Simulation time: 0 hr 14 min 0 sec) 
Heartbeat CPU 0 instructions: 120000002 cycles: 224783743 heartbeat IPC: 0.335111 cumulative IPC: 0.329751 (Simulation time: 0 hr 15 min 33 sec) 
Heartbeat CPU 0 instructions: 130000001 cycles: 254461272 heartbeat IPC: 0.336956 cumulative IPC: 0.330635 (Simulation time: 0 hr 17 min 9 sec) 
Heartbeat CPU 0 instructions: 140000002 cycles: 283994050 heartbeat IPC: 0.338607 cumulative IPC: 0.331502 (Simulation time: 0 hr 18 min 42 sec) 
Heartbeat CPU 0 instructions: 150000000 cycles: 313512314 heartbeat IPC: 0.338774 cumulative IPC: 0.332215 (Simulation time: 0 hr 20 min 12 sec) 
Simulation finished CPU 0 instructions: 100000000 cycles: 301010083 cumulative IPC: 0.332215 (Simulation time: 0 hr 20 min 12 sec) 

Simulation complete CPU 0 instructions: 100000000 cycles: 301010083 (Simulation time: 0 hr 20 min 12 sec) 


ChampSim completed all CPUs

Saving instructions large page distribution to /home/bsc/bsc018186/scratch/itp_asplos25_AE/dump/smt_srv207_ap_srv442_ap_1024i.pdst...
Saving data large page distribution to /home/bsc/bsc018186/scratch/itp_asplos25_AE/dump/smt_srv207_ap_srv442_ap_1024i.pdst...
=== Simulation ===
CPU 0 runs /gpfs/projects/bsc18/MN4/bsc18/romol/ChampSim/traces/qualcomm_srv/smt_srv207_ap_srv442_ap_1024i.champsimtrace.xz

Region of Interest Statistics

CPU 0 cumulative IPC: 0.332215 instructions: 100000000 cycles: 301010083
CPU 0 Branch Prediction Accuracy: 75.6611% MPKI: 43.8453 Average ROB Occupancy at Mispredict: 11.304
Branch type MPKI
BRANCH_DIRECT_JUMP: 1.36285
BRANCH_INDIRECT: 23.7831
BRANCH_CONDITIONAL: 11.7096
BRANCH_DIRECT_CALL: 2.49863
BRANCH_INDIRECT_CALL: 1.01579
BRANCH_RETURN: 3.47537

Instructions large pages: 0
Instructions small pages: 11573
Large page distribution for instructions: 0%

Data large pages: 0
Data small pages: 10267
Large page distribution for data: 0%

cpu0_L1I TOTAL       ACCESS:   38820851  HIT:   29924525  MISS:    8896326  iACCESS:   38820851  iHIT:   29924525  iMISS:    8896326  dACCESS:          0  dHIT:          0  dMISS:          0  itACCESS:          0  itHIT:          0  itMISS:          0  dtACCESS:          0  dtHIT:          0  dtMISS:          0
cpu0_L1I LOAD         ACCESS:   11526279  HIT:    9074721  MISS:    2451558  iACCESS:   11526279  iHIT:    9074721  iMISS:    2451558  dACCESS:          0  dHIT:          0  dMISS:          0  itACCESS:          0  itHIT:          0  itMISS:          0  dtACCESS:          0  dtHIT:          0  dtMISS:          0
cpu0_L1I RFO          ACCESS:          0  HIT:          0  MISS:          0  iACCESS:          0  iHIT:          0  iMISS:          0  dACCESS:          0  dHIT:          0  dMISS:          0  itACCESS:          0  itHIT:          0  itMISS:          0  dtACCESS:          0  dtHIT:          0  dtMISS:          0
cpu0_L1I PREFETCH     ACCESS:   27294572  HIT:   20849804  MISS:    6444768  iACCESS:   27294572  iHIT:   20849804  iMISS:    6444768  dACCESS:          0  dHIT:          0  dMISS:          0  itACCESS:          0  itHIT:          0  itMISS:          0  dtACCESS:          0  dtHIT:          0  dtMISS:          0
cpu0_L1I WRITE        ACCESS:          0  HIT:          0  MISS:          0  iACCESS:          0  iHIT:          0  iMISS:          0  dACCESS:          0  dHIT:          0  dMISS:          0  itACCESS:          0  itHIT:          0  itMISS:          0  dtACCESS:          0  dtHIT:          0  dtMISS:          0
cpu0_L1I TRANSLATION  ACCESS:          0  HIT:          0  MISS:          0  iACCESS:          0  iHIT:          0  iMISS:          0  dACCESS:          0  dHIT:          0  dMISS:          0  itACCESS:          0  itHIT:          0  itMISS:          0  dtACCESS:          0  dtHIT:          0  dtMISS:          0
cpu0_L1I PREFETCH  REQUESTED:   30052085  ISSUED:   30052057  CROSSED:          0  USEFUL:    2224159  USELESS:     805302
cpu0_L1I AVERAGE iMISS LATENCY: 22.4154 cycles
cpu0_L1I AVERAGE dMISS LATENCY: 0 cycles
cpu0_L1I AVERAGE itMISS LATENCY: 0 cycles
cpu0_L1I AVERAGE dtMISS LATENCY: 0 cycles
cpu0_L1I PAGE CROSSINGS (TLB HIT):         0 
cpu0_L1I PAGE CROSSINGS (TLB MISS):         0 
cpu0_L1I AVERAGE MISS LATENCY: 22.4154 cycles
cpu0_ITLB TOTAL       ACCESS:   32896289  HIT:   30560492  MISS:    2335797  iACCESS:   32896289  iHIT:   30560492  iMISS:    2335797  dACCESS:          0  dHIT:          0  dMISS:          0  itACCESS:          0  itHIT:          0  itMISS:          0  dtACCESS:          0  dtHIT:          0  dtMISS:          0
cpu0_ITLB LOAD         ACCESS:   32896289  HIT:   30560492  MISS:    2335797  iACCESS:   32896289  iHIT:   30560492  iMISS:    2335797  dACCESS:          0  dHIT:          0  dMISS:          0  itACCESS:          0  itHIT:          0  itMISS:          0  dtACCESS:          0  dtHIT:          0  dtMISS:          0
cpu0_ITLB RFO          ACCESS:          0  HIT:          0  MISS:          0  iACCESS:          0  iHIT:          0  iMISS:          0  dACCESS:          0  dHIT:          0  dMISS:          0  itACCESS:          0  itHIT:          0  itMISS:          0  dtACCESS:          0  dtHIT:          0  dtMISS:          0
cpu0_ITLB PREFETCH     ACCESS:          0  HIT:          0  MISS:          0  iACCESS:          0  iHIT:          0  iMISS:          0  dACCESS:          0  dHIT:          0  dMISS:          0  itACCESS:          0  itHIT:          0  itMISS:          0  dtACCESS:          0  dtHIT:          0  dtMISS:          0
cpu0_ITLB WRITE        ACCESS:          0  HIT:          0  MISS:          0  iACCESS:          0  iHIT:          0  iMISS:          0  dACCESS:          0  dHIT:          0  dMISS:          0  itACCESS:          0  itHIT:          0  itMISS:          0  dtACCESS:          0  dtHIT:          0  dtMISS:          0
cpu0_ITLB TRANSLATION  ACCESS:          0  HIT:          0  MISS:          0  iACCESS:          0  iHIT:          0  iMISS:          0  dACCESS:          0  dHIT:          0  dMISS:          0  itACCESS:          0  itHIT:          0  itMISS:          0  dtACCESS:          0  dtHIT:          0  dtMISS:          0
cpu0_ITLB PREFETCH  REQUESTED:          0  ISSUED:          0  CROSSED:          0  USEFUL:     400663  USELESS:      86689
cpu0_ITLB AVERAGE iMISS LATENCY: 10.1453 cycles
cpu0_ITLB AVERAGE dMISS LATENCY: 0 cycles
cpu0_ITLB AVERAGE itMISS LATENCY: 0 cycles
cpu0_ITLB AVERAGE dtMISS LATENCY: 0 cycles
cpu0_ITLB PAGE CROSSINGS (TLB HIT):         0 
cpu0_ITLB PAGE CROSSINGS (TLB MISS):         0 
cpu0_ITLB AVERAGE MISS LATENCY: 10.1453 cycles
cpu0_DTLB TOTAL       ACCESS:   29180347  HIT:   25589830  MISS:    3590517  iACCESS:          0  iHIT:          0  iMISS:          0  dACCESS:   29180347  dHIT:   25589830  dMISS:    3590517  itACCESS:          0  itHIT:          0  itMISS:          0  dtACCESS:          0  dtHIT:          0  dtMISS:          0
cpu0_DTLB LOAD         ACCESS:   29180347  HIT:   25589830  MISS:    3590517  iACCESS:          0  iHIT:          0  iMISS:          0  dACCESS:   29180347  dHIT:   25589830  dMISS:    3590517  itACCESS:          0  itHIT:          0  itMISS:          0  dtACCESS:          0  dtHIT:          0  dtMISS:          0
cpu0_DTLB RFO          ACCESS:          0  HIT:          0  MISS:          0  iACCESS:          0  iHIT:          0  iMISS:          0  dACCESS:          0  dHIT:          0  dMISS:          0  itACCESS:          0  itHIT:          0  itMISS:          0  dtACCESS:          0  dtHIT:          0  dtMISS:          0
cpu0_DTLB PREFETCH     ACCESS:          0  HIT:          0  MISS:          0  iACCESS:          0  iHIT:          0  iMISS:          0  dACCESS:          0  dHIT:          0  dMISS:          0  itACCESS:          0  itHIT:          0  itMISS:          0  dtACCESS:          0  dtHIT:          0  dtMISS:          0
cpu0_DTLB WRITE        ACCESS:          0  HIT:          0  MISS:          0  iACCESS:          0  iHIT:          0  iMISS:          0  dACCESS:          0  dHIT:          0  dMISS:          0  itACCESS:          0  itHIT:          0  itMISS:          0  dtACCESS:          0  dtHIT:          0  dtMISS:          0
cpu0_DTLB TRANSLATION  ACCESS:          0  HIT:          0  MISS:          0  iACCESS:          0  iHIT:          0  iMISS:          0  dACCESS:          0  dHIT:          0  dMISS:          0  itACCESS:          0  itHIT:          0  itMISS:          0  dtACCESS:          0  dtHIT:          0  dtMISS:          0
cpu0_DTLB PREFETCH  REQUESTED:          0  ISSUED:          0  CROSSED:          0  USEFUL:          0  USELESS:          0
cpu0_DTLB AVERAGE iMISS LATENCY: 0 cycles
cpu0_DTLB AVERAGE dMISS LATENCY: 26.2743 cycles
cpu0_DTLB AVERAGE itMISS LATENCY: 0 cycles
cpu0_DTLB AVERAGE dtMISS LATENCY: 0 cycles
cpu0_DTLB PAGE CROSSINGS (TLB HIT):         0 
cpu0_DTLB PAGE CROSSINGS (TLB MISS):         0 
cpu0_DTLB AVERAGE MISS LATENCY: 26.2743 cycles
cpu0_STLB TOTAL       ACCESS:    2589232  HIT:    2202394  MISS:     386838  iACCESS:     487353  iHIT:     376750  iMISS:     110603  dACCESS:    2101879  dHIT:    1825644  dMISS:     276235  itACCESS:          0  itHIT:          0  itMISS:          0  dtACCESS:          0  dtHIT:          0  dtMISS:          0
cpu0_STLB LOAD         ACCESS:    2589232  HIT:    2202394  MISS:     386838  iACCESS:     487353  iHIT:     376750  iMISS:     110603  dACCESS:    2101879  dHIT:    1825644  dMISS:     276235  itACCESS:          0  itHIT:          0  itMISS:          0  dtACCESS:          0  dtHIT:          0  dtMISS:          0
cpu0_STLB RFO          ACCESS:          0  HIT:          0  MISS:          0  iACCESS:          0  iHIT:          0  iMISS:          0  dACCESS:          0  dHIT:          0  dMISS:          0  itACCESS:          0  itHIT:          0  itMISS:          0  dtACCESS:          0  dtHIT:          0  dtMISS:          0
cpu0_STLB PREFETCH     ACCESS:          0  HIT:          0  MISS:          0  iACCESS:          0  iHIT:          0  iMISS:          0  dACCESS:          0  dHIT:          0  dMISS:          0  itACCESS:          0  itHIT:          0  itMISS:          0  dtACCESS:          0  dtHIT:          0  dtMISS:          0
cpu0_STLB WRITE        ACCESS:          0  HIT:          0  MISS:          0  iACCESS:          0  iHIT:          0  iMISS:          0  dACCESS:          0  dHIT:          0  dMISS:          0  itACCESS:          0  itHIT:          0  itMISS:          0  dtACCESS:          0  dtHIT:          0  dtMISS:          0
cpu0_STLB TRANSLATION  ACCESS:          0  HIT:          0  MISS:          0  iACCESS:          0  iHIT:          0  iMISS:          0  dACCESS:          0  dHIT:          0  dMISS:          0  itACCESS:          0  itHIT:          0  itMISS:          0  dtACCESS:          0  dtHIT:          0  dtMISS:          0
cpu0_STLB PREFETCH  REQUESTED:          0  ISSUED:          0  CROSSED:          0  USEFUL:          0  USELESS:          0
cpu0_STLB AVERAGE iMISS LATENCY: 51.2003 cycles
cpu0_STLB AVERAGE dMISS LATENCY: 200.114 cycles
cpu0_STLB AVERAGE itMISS LATENCY: 0 cycles
cpu0_STLB AVERAGE dtMISS LATENCY: 0 cycles
cpu0_STLB PAGE CROSSINGS (TLB HIT):         0 
cpu0_STLB PAGE CROSSINGS (TLB MISS):         0 
cpu0_STLB AVERAGE MISS LATENCY: 251.314 cycles
cpu0_L1D TOTAL       ACCESS:   45822309  HIT:   39547623  MISS:    6274686  iACCESS:          0  iHIT:          0  iMISS:          0  dACCESS:   45247403  dHIT:   39516218  dMISS:    5731185  itACCESS:     124960  itHIT:      12030  itMISS:     112930  dtACCESS:     449946  dtHIT:      19375  dtMISS:     430571
cpu0_L1D LOAD         ACCESS:   20731599  HIT:   18138716  MISS:    2592883  iACCESS:          0  iHIT:          0  iMISS:          0  dACCESS:   20731599  dHIT:   18138716  dMISS:    2592883  itACCESS:          0  itHIT:          0  itMISS:          0  dtACCESS:          0  dtHIT:          0  dtMISS:          0
cpu0_L1D RFO          ACCESS:          0  HIT:          0  MISS:          0  iACCESS:          0  iHIT:          0  iMISS:          0  dACCESS:          0  dHIT:          0  dMISS:          0  itACCESS:          0  itHIT:          0  itMISS:          0  dtACCESS:          0  dtHIT:          0  dtMISS:          0
cpu0_L1D PREFETCH     ACCESS:   14395436  HIT:   11859459  MISS:    2535977  iACCESS:          0  iHIT:          0  iMISS:          0  dACCESS:   14395436  dHIT:   11859459  dMISS:    2535977  itACCESS:          0  itHIT:          0  itMISS:          0  dtACCESS:          0  dtHIT:          0  dtMISS:          0
cpu0_L1D WRITE        ACCESS:   10120368  HIT:    9518043  MISS:     602325  iACCESS:          0  iHIT:          0  iMISS:          0  dACCESS:   10120368  dHIT:    9518043  dMISS:     602325  itACCESS:          0  itHIT:          0  itMISS:          0  dtACCESS:          0  dtHIT:          0  dtMISS:          0
cpu0_L1D TRANSLATION  ACCESS:     574906  HIT:      31405  MISS:     543501  iACCESS:          0  iHIT:          0  iMISS:          0  dACCESS:          0  dHIT:          0  dMISS:          0  itACCESS:     124960  itHIT:      12030  itMISS:     112930  dtACCESS:     449946  dtHIT:      19375  dtMISS:     430571
cpu0_L1D PREFETCH  REQUESTED:   20731599  ISSUED:   18854309  CROSSED:          0  USEFUL:     378996  USELESS:     967738
cpu0_L1D AVERAGE iMISS LATENCY: 0 cycles
cpu0_L1D AVERAGE dMISS LATENCY: 48.5404 cycles
cpu0_L1D AVERAGE itMISS LATENCY: 2.98931 cycles
cpu0_L1D AVERAGE dtMISS LATENCY: 11.5772 cycles
cpu0_L1D PAGE CROSSINGS (TLB HIT):         0 
cpu0_L1D PAGE CROSSINGS (TLB MISS):         0 
cpu0_L1D AVERAGE MISS LATENCY: 63.1068 cycles
cpu0_L2C TOTAL       ACCESS:    8838124  HIT:    4348435  MISS:    4489689  iACCESS:    3880212  iHIT:    2401326  iMISS:    1478886  dACCESS:    4454490  dHIT:    1889751  dMISS:    2564739  itACCESS:     112532  itHIT:      17731  itMISS:      94801  dtACCESS:     390890  dtHIT:      39627  dtMISS:     351263
cpu0_L2C LOAD         ACCESS:    2155162  HIT:    1058125  MISS:    1097037  iACCESS:     886052  iHIT:     573031  iMISS:     313021  dACCESS:    1269110  dHIT:     485094  dMISS:     784016  itACCESS:          0  itHIT:          0  itMISS:          0  dtACCESS:          0  dtHIT:          0  dtMISS:          0
cpu0_L2C RFO          ACCESS:     227219  HIT:      90845  MISS:     136374  iACCESS:          0  iHIT:          0  iMISS:          0  dACCESS:     227219  dHIT:      90845  dMISS:     136374  itACCESS:          0  itHIT:          0  itMISS:          0  dtACCESS:          0  dtHIT:          0  dtMISS:          0
cpu0_L2C PREFETCH     ACCESS:    5599990  HIT:    2793353  MISS:    2806637  iACCESS:    2994160  iHIT:    1828295  iMISS:    1165865  dACCESS:    2605830  dHIT:     965058  dMISS:    1640772  itACCESS:          0  itHIT:          0  itMISS:          0  dtACCESS:          0  dtHIT:          0  dtMISS:          0
cpu0_L2C WRITE        ACCESS:     352331  HIT:     348754  MISS:       3577  iACCESS:          0  iHIT:          0  iMISS:          0  dACCESS:     352331  dHIT:     348754  dMISS:       3577  itACCESS:          0  itHIT:          0  itMISS:          0  dtACCESS:          0  dtHIT:          0  dtMISS:          0
cpu0_L2C TRANSLATION  ACCESS:     503422  HIT:      57358  MISS:     446064  iACCESS:          0  iHIT:          0  iMISS:          0  dACCESS:          0  dHIT:          0  dMISS:          0  itACCESS:     112532  itHIT:      17731  itMISS:      94801  dtACCESS:     390890  dtHIT:      39627  dtMISS:     351263
cpu0_L2C PREFETCH  REQUESTED:    1515918  ISSUED:    1515913  CROSSED:          0  USEFUL:     347892  USELESS:     309206
cpu0_L2C AVERAGE iMISS LATENCY: 36.9909 cycles
cpu0_L2C AVERAGE dMISS LATENCY: 80.9304 cycles
cpu0_L2C AVERAGE itMISS LATENCY: 3.93033 cycles
cpu0_L2C AVERAGE dtMISS LATENCY: 15.313 cycles
cpu0_L2C PAGE CROSSINGS (TLB HIT):         0 
cpu0_L2C PAGE CROSSINGS (TLB MISS):         0 
cpu0_L2C AVERAGE MISS LATENCY: 137.165 cycles
LLC TOTAL       ACCESS:    4511510  HIT:    1462204  MISS:    3049306  iACCESS:    1400688  iHIT:     518873  iMISS:     881815  dACCESS:    2664757  dHIT:     903226  dMISS:    1761531  itACCESS:      94802  itHIT:       6483  itMISS:      88319  dtACCESS:     351263  dtHIT:      33622  dtMISS:     317641
LLC LOAD         ACCESS:    1088269  HIT:     354536  MISS:     733733  iACCESS:     311803  iHIT:     122342  iMISS:     189461  dACCESS:     776466  dHIT:     232194  dMISS:     544272  itACCESS:          0  itHIT:          0  itMISS:          0  dtACCESS:          0  dtHIT:          0  dtMISS:          0
LLC RFO          ACCESS:     136372  HIT:      41038  MISS:      95334  iACCESS:          0  iHIT:          0  iMISS:          0  dACCESS:     136372  dHIT:      41038  dMISS:      95334  itACCESS:          0  itHIT:          0  itMISS:          0  dtACCESS:          0  dtHIT:          0  dtMISS:          0
LLC PREFETCH     ACCESS:    2626472  HIT:     822074  MISS:    1804398  iACCESS:    1088885  iHIT:     396531  iMISS:     692354  dACCESS:    1537587  dHIT:     425543  dMISS:    1112044  itACCESS:          0  itHIT:          0  itMISS:          0  dtACCESS:          0  dtHIT:          0  dtMISS:          0
LLC WRITE        ACCESS:     214332  HIT:     204451  MISS:       9881  iACCESS:          0  iHIT:          0  iMISS:          0  dACCESS:     214332  dHIT:     204451  dMISS:       9881  itACCESS:          0  itHIT:          0  itMISS:          0  dtACCESS:          0  dtHIT:          0  dtMISS:          0
LLC TRANSLATION  ACCESS:     446065  HIT:      40105  MISS:     405960  iACCESS:          0  iHIT:          0  iMISS:          0  dACCESS:          0  dHIT:          0  dMISS:          0  itACCESS:      94802  itHIT:       6483  itMISS:      88319  dtACCESS:     351263  dtHIT:      33622  dtMISS:     317641
LLC PREFETCH  REQUESTED:          0  ISSUED:          0  CROSSED:          0  USEFUL:          0  USELESS:          0
LLC AVERAGE iMISS LATENCY: 45.4352 cycles
LLC AVERAGE dMISS LATENCY: 104.443 cycles
LLC AVERAGE itMISS LATENCY: 5.17013 cycles
LLC AVERAGE dtMISS LATENCY: 20.2675 cycles
LLC PAGE CROSSINGS (TLB HIT):         0 
LLC PAGE CROSSINGS (TLB MISS):         0 
LLC AVERAGE MISS LATENCY: 175.316 cycles

PageTableWalker TOTAL       ACCESS:     187412  
PageTableWalker AVERAGE LATENCY: 6.5583 cycles
PageTableWalker TOTAL LATENCY: 1229103 cycles

DRAM Statistics
Channel 0
 RQ ROW_BUFFER_HIT:     633915
  ROW_BUFFER_MISS:    2385232
 AVG DBUS CONGESTED CYCLE:    3.64537
 WQ ROW_BUFFER_HIT:      68373
  ROW_BUFFER_MISS:      56479  FULL:          0

