last_page:0x200000000000000
VMEM_RES_CAP:0x100000
PAGE_SIZE:4096
LOG2_PAGE_SIZE:12
LOG2_PAGE_TABLE_SIZE:9
page_table_levels:5
WARNING: physical memory size is smaller than virtual memory size
FDiP enabled with aggresivity 16

*** ChampSim Multicore Out-of-Order Simulator ***

Warmup Instructions: 50000000
Simulation Instructions: 100000000
Number of CPUs: 1
Small page size: 4096
Large page size: 2097152

CPU 0 Bimodal branch predictor
Basic BTB sets: 1024 ways: 8 indirect buffer size: 4096 RAS size: 64
Instruction page size distrubution: 0
Loading instruction page size distribution from /home/bsc/bsc018186/scratch/itp_asplos25_AE/dump/smt_srv540_ap_srv180_ap_1024i.pdst
Data page size distrubution: 0
Loading data page size distribution from /home/bsc/bsc018186/scratch/itp_asplos25_AE/dump/smt_srv540_ap_srv180_ap_1024i.pdst
cpu0_L2C IP-based stride prefetcher
cpu0_L1D next line prefetcher
cpu0_L1I next line prefetcher
Off-chip DRAM Size: 4 GiB Channels: 1 Width: 64-bit Data Rate: 3200 MT/s
Heartbeat CPU 0 instructions: 10000000 cycles: 2500617 heartbeat IPC: 3.99902 cumulative IPC: 3.99902 (Simulation time: 0 hr 0 min 46 sec) 
Heartbeat CPU 0 instructions: 20000002 cycles: 5000800 heartbeat IPC: 3.99971 cumulative IPC: 3.99937 (Simulation time: 0 hr 1 min 32 sec) 
Heartbeat CPU 0 instructions: 30000000 cycles: 7501082 heartbeat IPC: 3.99955 cumulative IPC: 3.99943 (Simulation time: 0 hr 2 min 18 sec) 
Heartbeat CPU 0 instructions: 40000000 cycles: 10001340 heartbeat IPC: 3.99959 cumulative IPC: 3.99947 (Simulation time: 0 hr 3 min 7 sec) 
Heartbeat CPU 0 instructions: 50000003 cycles: 12501590 heartbeat IPC: 3.99961 cumulative IPC: 3.9995 (Simulation time: 0 hr 3 min 53 sec) 
Warmup finished CPU 0 instructions: 50000003 cycles: 12501591 cumulative IPC: 3.9995 (Simulation time: 0 hr 3 min 53 sec) 

Warmup complete CPU 0 instructions: 50000003 cycles: 12501591 (Simulation time: 0 hr 3 min 53 sec) 

Heartbeat CPU 0 instructions: 60000001 cycles: 41286597 heartbeat IPC: 0.347404 cumulative IPC: 0.347404 (Simulation time: 0 hr 5 min 26 sec) 
Heartbeat CPU 0 instructions: 70000001 cycles: 69079643 heartbeat IPC: 0.359803 cumulative IPC: 0.353494 (Simulation time: 0 hr 6 min 53 sec) 
Heartbeat CPU 0 instructions: 80000002 cycles: 98420620 heartbeat IPC: 0.340821 cumulative IPC: 0.349166 (Simulation time: 0 hr 8 min 28 sec) 
Heartbeat CPU 0 instructions: 90000000 cycles: 127234717 heartbeat IPC: 0.347053 cumulative IPC: 0.348636 (Simulation time: 0 hr 10 min 0 sec) 
Heartbeat CPU 0 instructions: 100000004 cycles: 156958913 heartbeat IPC: 0.336427 cumulative IPC: 0.346123 (Simulation time: 0 hr 11 min 32 sec) 
Heartbeat CPU 0 instructions: 110000000 cycles: 185591911 heartbeat IPC: 0.349248 cumulative IPC: 0.34664 (Simulation time: 0 hr 13 min 5 sec) 
Heartbeat CPU 0 instructions: 120000001 cycles: 214639048 heartbeat IPC: 0.344269 cumulative IPC: 0.346299 (Simulation time: 0 hr 14 min 34 sec) 
Heartbeat CPU 0 instructions: 130000000 cycles: 242622216 heartbeat IPC: 0.357358 cumulative IPC: 0.347644 (Simulation time: 0 hr 16 min 6 sec) 
Heartbeat CPU 0 instructions: 140000002 cycles: 271792691 heartbeat IPC: 0.342813 cumulative IPC: 0.347101 (Simulation time: 0 hr 17 min 40 sec) 
Heartbeat CPU 0 instructions: 150000001 cycles: 299424850 heartbeat IPC: 0.361898 cumulative IPC: 0.348526 (Simulation time: 0 hr 19 min 8 sec) 
Simulation finished CPU 0 instructions: 100000003 cycles: 286923261 cumulative IPC: 0.348526 (Simulation time: 0 hr 19 min 8 sec) 

Simulation complete CPU 0 instructions: 100000003 cycles: 286923261 (Simulation time: 0 hr 19 min 8 sec) 


ChampSim completed all CPUs

Saving instructions large page distribution to /home/bsc/bsc018186/scratch/itp_asplos25_AE/dump/smt_srv540_ap_srv180_ap_1024i.pdst...
Saving data large page distribution to /home/bsc/bsc018186/scratch/itp_asplos25_AE/dump/smt_srv540_ap_srv180_ap_1024i.pdst...
=== Simulation ===
CPU 0 runs /gpfs/projects/bsc18/MN4/bsc18/romol/ChampSim/traces/qualcomm_srv/smt_srv540_ap_srv180_ap_1024i.champsimtrace.xz

Region of Interest Statistics

CPU 0 cumulative IPC: 0.348526 instructions: 100000003 cycles: 286923261
CPU 0 Branch Prediction Accuracy: 75.9656% MPKI: 43.2063 Average ROB Occupancy at Mispredict: 11.4294
Branch type MPKI
BRANCH_DIRECT_JUMP: 1.30203
BRANCH_INDIRECT: 22.4852
BRANCH_CONDITIONAL: 12.5604
BRANCH_DIRECT_CALL: 2.49187
BRANCH_INDIRECT_CALL: 0.92576
BRANCH_RETURN: 3.44105

Instructions large pages: 0
Instructions small pages: 13008
Large page distribution for instructions: 0%

Data large pages: 0
Data small pages: 11794
Large page distribution for data: 0%

cpu0_L1I TOTAL       ACCESS:   39039681  HIT:   30428404  MISS:    8611277  iACCESS:   39039681  iHIT:   30428404  iMISS:    8611277  dACCESS:          0  dHIT:          0  dMISS:          0  itACCESS:          0  itHIT:          0  itMISS:          0  dtACCESS:          0  dtHIT:          0  dtMISS:          0
cpu0_L1I LOAD         ACCESS:   11750581  HIT:    9401927  MISS:    2348654  iACCESS:   11750581  iHIT:    9401927  iMISS:    2348654  dACCESS:          0  dHIT:          0  dMISS:          0  itACCESS:          0  itHIT:          0  itMISS:          0  dtACCESS:          0  dtHIT:          0  dtMISS:          0
cpu0_L1I RFO          ACCESS:          0  HIT:          0  MISS:          0  iACCESS:          0  iHIT:          0  iMISS:          0  dACCESS:          0  dHIT:          0  dMISS:          0  itACCESS:          0  itHIT:          0  itMISS:          0  dtACCESS:          0  dtHIT:          0  dtMISS:          0
cpu0_L1I PREFETCH     ACCESS:   27289100  HIT:   21026477  MISS:    6262623  iACCESS:   27289100  iHIT:   21026477  iMISS:    6262623  dACCESS:          0  dHIT:          0  dMISS:          0  itACCESS:          0  itHIT:          0  itMISS:          0  dtACCESS:          0  dtHIT:          0  dtMISS:          0
cpu0_L1I WRITE        ACCESS:          0  HIT:          0  MISS:          0  iACCESS:          0  iHIT:          0  iMISS:          0  dACCESS:          0  dHIT:          0  dMISS:          0  itACCESS:          0  itHIT:          0  itMISS:          0  dtACCESS:          0  dtHIT:          0  dtMISS:          0
cpu0_L1I TRANSLATION  ACCESS:          0  HIT:          0  MISS:          0  iACCESS:          0  iHIT:          0  iMISS:          0  dACCESS:          0  dHIT:          0  dMISS:          0  itACCESS:          0  itHIT:          0  itMISS:          0  dtACCESS:          0  dtHIT:          0  dtMISS:          0
cpu0_L1I PREFETCH  REQUESTED:   30182138  ISSUED:   30182120  CROSSED:          0  USEFUL:    2183241  USELESS:     746498
cpu0_L1I AVERAGE iMISS LATENCY: 23.1376 cycles
cpu0_L1I AVERAGE dMISS LATENCY: 0 cycles
cpu0_L1I AVERAGE itMISS LATENCY: 0 cycles
cpu0_L1I AVERAGE dtMISS LATENCY: 0 cycles
cpu0_L1I PAGE CROSSINGS (TLB HIT):         0 
cpu0_L1I PAGE CROSSINGS (TLB MISS):         0 
cpu0_L1I AVERAGE MISS LATENCY: 23.1376 cycles
cpu0_ITLB TOTAL       ACCESS:   32931243  HIT:   30749354  MISS:    2181889  iACCESS:   32931243  iHIT:   30749354  iMISS:    2181889  dACCESS:          0  dHIT:          0  dMISS:          0  itACCESS:          0  itHIT:          0  itMISS:          0  dtACCESS:          0  dtHIT:          0  dtMISS:          0
cpu0_ITLB LOAD         ACCESS:   32931243  HIT:   30749354  MISS:    2181889  iACCESS:   32931243  iHIT:   30749354  iMISS:    2181889  dACCESS:          0  dHIT:          0  dMISS:          0  itACCESS:          0  itHIT:          0  itMISS:          0  dtACCESS:          0  dtHIT:          0  dtMISS:          0
cpu0_ITLB RFO          ACCESS:          0  HIT:          0  MISS:          0  iACCESS:          0  iHIT:          0  iMISS:          0  dACCESS:          0  dHIT:          0  dMISS:          0  itACCESS:          0  itHIT:          0  itMISS:          0  dtACCESS:          0  dtHIT:          0  dtMISS:          0
cpu0_ITLB PREFETCH     ACCESS:          0  HIT:          0  MISS:          0  iACCESS:          0  iHIT:          0  iMISS:          0  dACCESS:          0  dHIT:          0  dMISS:          0  itACCESS:          0  itHIT:          0  itMISS:          0  dtACCESS:          0  dtHIT:          0  dtMISS:          0
cpu0_ITLB WRITE        ACCESS:          0  HIT:          0  MISS:          0  iACCESS:          0  iHIT:          0  iMISS:          0  dACCESS:          0  dHIT:          0  dMISS:          0  itACCESS:          0  itHIT:          0  itMISS:          0  dtACCESS:          0  dtHIT:          0  dtMISS:          0
cpu0_ITLB TRANSLATION  ACCESS:          0  HIT:          0  MISS:          0  iACCESS:          0  iHIT:          0  iMISS:          0  dACCESS:          0  dHIT:          0  dMISS:          0  itACCESS:          0  itHIT:          0  itMISS:          0  dtACCESS:          0  dtHIT:          0  dtMISS:          0
cpu0_ITLB PREFETCH  REQUESTED:          0  ISSUED:          0  CROSSED:          0  USEFUL:     380388  USELESS:      76693
cpu0_ITLB AVERAGE iMISS LATENCY: 9.88821 cycles
cpu0_ITLB AVERAGE dMISS LATENCY: 0 cycles
cpu0_ITLB AVERAGE itMISS LATENCY: 0 cycles
cpu0_ITLB AVERAGE dtMISS LATENCY: 0 cycles
cpu0_ITLB PAGE CROSSINGS (TLB HIT):         0 
cpu0_ITLB PAGE CROSSINGS (TLB MISS):         0 
cpu0_ITLB AVERAGE MISS LATENCY: 9.88821 cycles
cpu0_DTLB TOTAL       ACCESS:   28721643  HIT:   25049358  MISS:    3672285  iACCESS:          0  iHIT:          0  iMISS:          0  dACCESS:   28721643  dHIT:   25049358  dMISS:    3672285  itACCESS:          0  itHIT:          0  itMISS:          0  dtACCESS:          0  dtHIT:          0  dtMISS:          0
cpu0_DTLB LOAD         ACCESS:   28721643  HIT:   25049358  MISS:    3672285  iACCESS:          0  iHIT:          0  iMISS:          0  dACCESS:   28721643  dHIT:   25049358  dMISS:    3672285  itACCESS:          0  itHIT:          0  itMISS:          0  dtACCESS:          0  dtHIT:          0  dtMISS:          0
cpu0_DTLB RFO          ACCESS:          0  HIT:          0  MISS:          0  iACCESS:          0  iHIT:          0  iMISS:          0  dACCESS:          0  dHIT:          0  dMISS:          0  itACCESS:          0  itHIT:          0  itMISS:          0  dtACCESS:          0  dtHIT:          0  dtMISS:          0
cpu0_DTLB PREFETCH     ACCESS:          0  HIT:          0  MISS:          0  iACCESS:          0  iHIT:          0  iMISS:          0  dACCESS:          0  dHIT:          0  dMISS:          0  itACCESS:          0  itHIT:          0  itMISS:          0  dtACCESS:          0  dtHIT:          0  dtMISS:          0
cpu0_DTLB WRITE        ACCESS:          0  HIT:          0  MISS:          0  iACCESS:          0  iHIT:          0  iMISS:          0  dACCESS:          0  dHIT:          0  dMISS:          0  itACCESS:          0  itHIT:          0  itMISS:          0  dtACCESS:          0  dtHIT:          0  dtMISS:          0
cpu0_DTLB TRANSLATION  ACCESS:          0  HIT:          0  MISS:          0  iACCESS:          0  iHIT:          0  iMISS:          0  dACCESS:          0  dHIT:          0  dMISS:          0  itACCESS:          0  itHIT:          0  itMISS:          0  dtACCESS:          0  dtHIT:          0  dtMISS:          0
cpu0_DTLB PREFETCH  REQUESTED:          0  ISSUED:          0  CROSSED:          0  USEFUL:          0  USELESS:          0
cpu0_DTLB AVERAGE iMISS LATENCY: 0 cycles
cpu0_DTLB AVERAGE dMISS LATENCY: 23.7542 cycles
cpu0_DTLB AVERAGE itMISS LATENCY: 0 cycles
cpu0_DTLB AVERAGE dtMISS LATENCY: 0 cycles
cpu0_DTLB PAGE CROSSINGS (TLB HIT):         0 
cpu0_DTLB PAGE CROSSINGS (TLB MISS):         0 
cpu0_DTLB AVERAGE MISS LATENCY: 23.7542 cycles
cpu0_STLB TOTAL       ACCESS:    2582800  HIT:    2223452  MISS:     359348  iACCESS:     457083  iHIT:     350089  iMISS:     106994  dACCESS:    2125717  dHIT:    1873363  dMISS:     252354  itACCESS:          0  itHIT:          0  itMISS:          0  dtACCESS:          0  dtHIT:          0  dtMISS:          0
cpu0_STLB LOAD         ACCESS:    2582800  HIT:    2223452  MISS:     359348  iACCESS:     457083  iHIT:     350089  iMISS:     106994  dACCESS:    2125717  dHIT:    1873363  dMISS:     252354  itACCESS:          0  itHIT:          0  itMISS:          0  dtACCESS:          0  dtHIT:          0  dtMISS:          0
cpu0_STLB RFO          ACCESS:          0  HIT:          0  MISS:          0  iACCESS:          0  iHIT:          0  iMISS:          0  dACCESS:          0  dHIT:          0  dMISS:          0  itACCESS:          0  itHIT:          0  itMISS:          0  dtACCESS:          0  dtHIT:          0  dtMISS:          0
cpu0_STLB PREFETCH     ACCESS:          0  HIT:          0  MISS:          0  iACCESS:          0  iHIT:          0  iMISS:          0  dACCESS:          0  dHIT:          0  dMISS:          0  itACCESS:          0  itHIT:          0  itMISS:          0  dtACCESS:          0  dtHIT:          0  dtMISS:          0
cpu0_STLB WRITE        ACCESS:          0  HIT:          0  MISS:          0  iACCESS:          0  iHIT:          0  iMISS:          0  dACCESS:          0  dHIT:          0  dMISS:          0  itACCESS:          0  itHIT:          0  itMISS:          0  dtACCESS:          0  dtHIT:          0  dtMISS:          0
cpu0_STLB TRANSLATION  ACCESS:          0  HIT:          0  MISS:          0  iACCESS:          0  iHIT:          0  iMISS:          0  dACCESS:          0  dHIT:          0  dMISS:          0  itACCESS:          0  itHIT:          0  itMISS:          0  dtACCESS:          0  dtHIT:          0  dtMISS:          0
cpu0_STLB PREFETCH  REQUESTED:          0  ISSUED:          0  CROSSED:          0  USEFUL:          0  USELESS:          0
cpu0_STLB AVERAGE iMISS LATENCY: 49.8792 cycles
cpu0_STLB AVERAGE dMISS LATENCY: 195.167 cycles
cpu0_STLB AVERAGE itMISS LATENCY: 0 cycles
cpu0_STLB AVERAGE dtMISS LATENCY: 0 cycles
cpu0_STLB PAGE CROSSINGS (TLB HIT):         0 
cpu0_STLB PAGE CROSSINGS (TLB MISS):         0 
cpu0_STLB AVERAGE MISS LATENCY: 245.046 cycles
cpu0_L1D TOTAL       ACCESS:   44112893  HIT:   38927463  MISS:    5185430  iACCESS:          0  iHIT:          0  iMISS:          0  dACCESS:   43589039  dHIT:   38892940  dMISS:    4696099  itACCESS:     120449  itHIT:      14198  itMISS:     106251  dtACCESS:     403405  dtHIT:      20325  dtMISS:     383080
cpu0_L1D LOAD         ACCESS:   19909424  HIT:   17823858  MISS:    2085566  iACCESS:          0  iHIT:          0  iMISS:          0  dACCESS:   19909424  dHIT:   17823858  dMISS:    2085566  itACCESS:          0  itHIT:          0  itMISS:          0  dtACCESS:          0  dtHIT:          0  dtMISS:          0
cpu0_L1D RFO          ACCESS:          0  HIT:          0  MISS:          0  iACCESS:          0  iHIT:          0  iMISS:          0  dACCESS:          0  dHIT:          0  dMISS:          0  itACCESS:          0  itHIT:          0  itMISS:          0  dtACCESS:          0  dtHIT:          0  dtMISS:          0
cpu0_L1D PREFETCH     ACCESS:   13547980  HIT:   11485349  MISS:    2062631  iACCESS:          0  iHIT:          0  iMISS:          0  dACCESS:   13547980  dHIT:   11485349  dMISS:    2062631  itACCESS:          0  itHIT:          0  itMISS:          0  dtACCESS:          0  dtHIT:          0  dtMISS:          0
cpu0_L1D WRITE        ACCESS:   10131635  HIT:    9583733  MISS:     547902  iACCESS:          0  iHIT:          0  iMISS:          0  dACCESS:   10131635  dHIT:    9583733  dMISS:     547902  itACCESS:          0  itHIT:          0  itMISS:          0  dtACCESS:          0  dtHIT:          0  dtMISS:          0
cpu0_L1D TRANSLATION  ACCESS:     523854  HIT:      34523  MISS:     489331  iACCESS:          0  iHIT:          0  iMISS:          0  dACCESS:          0  dHIT:          0  dMISS:          0  itACCESS:     120449  itHIT:      14198  itMISS:     106251  dtACCESS:     403405  dtHIT:      20325  dtMISS:     383080
cpu0_L1D PREFETCH  REQUESTED:   19909424  ISSUED:   18245853  CROSSED:          0  USEFUL:     358023  USELESS:     920732
cpu0_L1D AVERAGE iMISS LATENCY: 0 cycles
cpu0_L1D AVERAGE dMISS LATENCY: 51.4952 cycles
cpu0_L1D AVERAGE itMISS LATENCY: 3.26733 cycles
cpu0_L1D AVERAGE dtMISS LATENCY: 12.5202 cycles
cpu0_L1D PAGE CROSSINGS (TLB HIT):         0 
cpu0_L1D PAGE CROSSINGS (TLB MISS):         0 
cpu0_L1D AVERAGE MISS LATENCY: 67.2827 cycles
cpu0_L2C TOTAL       ACCESS:    8480006  HIT:    4160453  MISS:    4319553  iACCESS:    3727766  iHIT:    2281730  iMISS:    1446036  dACCESS:    4285761  dHIT:    1820759  dMISS:    2465002  itACCESS:     105761  itHIT:      19296  itMISS:      86465  dtACCESS:     360718  dtHIT:      38668  dtMISS:     322050
cpu0_L2C LOAD         ACCESS:    2021322  HIT:     995783  MISS:    1025539  iACCESS:     837308  iHIT:     533721  iMISS:     303587  dACCESS:    1184014  dHIT:     462062  dMISS:     721952  itACCESS:          0  itHIT:          0  itMISS:          0  dtACCESS:          0  dtHIT:          0  dtMISS:          0
cpu0_L2C RFO          ACCESS:     212417  HIT:      83952  MISS:     128465  iACCESS:          0  iHIT:          0  iMISS:          0  dACCESS:     212417  dHIT:      83952  dMISS:     128465  itACCESS:          0  itHIT:          0  itMISS:          0  dtACCESS:          0  dtHIT:          0  dtMISS:          0
cpu0_L2C PREFETCH     ACCESS:    5432747  HIT:    2679548  MISS:    2753199  iACCESS:    2890458  iHIT:    1748009  iMISS:    1142449  dACCESS:    2542289  dHIT:     931539  dMISS:    1610750  itACCESS:          0  itHIT:          0  itMISS:          0  dtACCESS:          0  dtHIT:          0  dtMISS:          0
cpu0_L2C WRITE        ACCESS:     347041  HIT:     343206  MISS:       3835  iACCESS:          0  iHIT:          0  iMISS:          0  dACCESS:     347041  dHIT:     343206  dMISS:       3835  itACCESS:          0  itHIT:          0  itMISS:          0  dtACCESS:          0  dtHIT:          0  dtMISS:          0
cpu0_L2C TRANSLATION  ACCESS:     466479  HIT:      57964  MISS:     408515  iACCESS:          0  iHIT:          0  iMISS:          0  dACCESS:          0  dHIT:          0  dMISS:          0  itACCESS:     105761  itHIT:      19296  itMISS:      86465  dtACCESS:     360718  dtHIT:      38668  dtMISS:     322050
cpu0_L2C PREFETCH  REQUESTED:    1512129  ISSUED:    1512126  CROSSED:          0  USEFUL:     360352  USELESS:     318816
cpu0_L2C AVERAGE iMISS LATENCY: 38.7698 cycles
cpu0_L2C AVERAGE dMISS LATENCY: 76.8011 cycles
cpu0_L2C AVERAGE itMISS LATENCY: 3.68121 cycles
cpu0_L2C AVERAGE dtMISS LATENCY: 14.199 cycles
cpu0_L2C PAGE CROSSINGS (TLB HIT):         0 
cpu0_L2C PAGE CROSSINGS (TLB MISS):         0 
cpu0_L2C AVERAGE MISS LATENCY: 133.452 cycles
LLC TOTAL       ACCESS:    4321959  HIT:    1427543  MISS:    2894416  iACCESS:    1355729  iHIT:     464282  iMISS:     891447  dACCESS:    2557715  dHIT:     920837  dMISS:    1636878  itACCESS:      86465  itHIT:       6938  itMISS:      79527  dtACCESS:     322050  dtHIT:      35486  dtMISS:     286564
LLC LOAD         ACCESS:    1020965  HIT:     356486  MISS:     664479  iACCESS:     302415  iHIT:     110506  iMISS:     191909  dACCESS:     718550  dHIT:     245980  dMISS:     472570  itACCESS:          0  itHIT:          0  itMISS:          0  dtACCESS:          0  dtHIT:          0  dtMISS:          0
LLC RFO          ACCESS:     128462  HIT:      42038  MISS:      86424  iACCESS:          0  iHIT:          0  iMISS:          0  dACCESS:     128462  dHIT:      42038  dMISS:      86424  itACCESS:          0  itHIT:          0  itMISS:          0  dtACCESS:          0  dtHIT:          0  dtMISS:          0
LLC PREFETCH     ACCESS:    2550134  HIT:     783047  MISS:    1767087  iACCESS:    1053314  iHIT:     353776  iMISS:     699538  dACCESS:    1496820  dHIT:     429271  dMISS:    1067549  itACCESS:          0  itHIT:          0  itMISS:          0  dtACCESS:          0  dtHIT:          0  dtMISS:          0
LLC WRITE        ACCESS:     213883  HIT:     203548  MISS:      10335  iACCESS:          0  iHIT:          0  iMISS:          0  dACCESS:     213883  dHIT:     203548  dMISS:      10335  itACCESS:          0  itHIT:          0  itMISS:          0  dtACCESS:          0  dtHIT:          0  dtMISS:          0
LLC TRANSLATION  ACCESS:     408515  HIT:      42424  MISS:     366091  iACCESS:          0  iHIT:          0  iMISS:          0  dACCESS:          0  dHIT:          0  dMISS:          0  itACCESS:      86465  itHIT:       6938  itMISS:      79527  dtACCESS:     322050  dtHIT:      35486  dtMISS:     286564
LLC PREFETCH  REQUESTED:          0  ISSUED:          0  CROSSED:          0  USEFUL:          0  USELESS:          0
LLC AVERAGE iMISS LATENCY: 48.6421 cycles
LLC AVERAGE dMISS LATENCY: 99.3994 cycles
LLC AVERAGE itMISS LATENCY: 4.90144 cycles
LLC AVERAGE dtMISS LATENCY: 18.9909 cycles
LLC PAGE CROSSINGS (TLB HIT):         0 
LLC PAGE CROSSINGS (TLB MISS):         0 
LLC AVERAGE MISS LATENCY: 171.934 cycles

PageTableWalker TOTAL       ACCESS:     181658  
PageTableWalker AVERAGE LATENCY: 6.53328 cycles
PageTableWalker TOTAL LATENCY: 1186822 cycles

DRAM Statistics
Channel 0
 RQ ROW_BUFFER_HIT:     609535
  ROW_BUFFER_MISS:    2263806
 AVG DBUS CONGESTED CYCLE:    3.64722
 WQ ROW_BUFFER_HIT:      63970
  ROW_BUFFER_MISS:      52457  FULL:          0

