last_page:0x200000000000000
VMEM_RES_CAP:0x100000
PAGE_SIZE:4096
LOG2_PAGE_SIZE:12
LOG2_PAGE_TABLE_SIZE:9
page_table_levels:5
WARNING: physical memory size is smaller than virtual memory size
FDiP enabled with aggresivity 16

*** ChampSim Multicore Out-of-Order Simulator ***

Warmup Instructions: 50000000
Simulation Instructions: 100000000
Number of CPUs: 1
Small page size: 4096
Large page size: 2097152

CPU 0 Bimodal branch predictor
Basic BTB sets: 1024 ways: 8 indirect buffer size: 4096 RAS size: 64
Instruction page size distrubution: 0
Loading instruction page size distribution from /home/bsc/bsc018186/scratch/itp_asplos25_AE/dump/smt_srv540_ap_srv582_ap_1024i.pdst
Data page size distrubution: 0
Loading data page size distribution from /home/bsc/bsc018186/scratch/itp_asplos25_AE/dump/smt_srv540_ap_srv582_ap_1024i.pdst
cpu0_L2C IP-based stride prefetcher
cpu0_L1D next line prefetcher
cpu0_STLB using iTP with max lru@8
cpu0_STLB using iTP with instr@0 and data@2
Init sat counter with 3 bits (max:50).
cpu0_L1I next line prefetcher
Off-chip DRAM Size: 4 GiB Channels: 1 Width: 64-bit Data Rate: 3200 MT/s
Heartbeat CPU 0 instructions: 10000003 cycles: 2500247 heartbeat IPC: 3.99961 cumulative IPC: 3.99961 (Simulation time: 0 hr 0 min 38 sec) 
Heartbeat CPU 0 instructions: 20000003 cycles: 5000365 heartbeat IPC: 3.99982 cumulative IPC: 3.99971 (Simulation time: 0 hr 1 min 17 sec) 
Heartbeat CPU 0 instructions: 30000003 cycles: 7500433 heartbeat IPC: 3.9999 cumulative IPC: 3.99977 (Simulation time: 0 hr 1 min 57 sec) 
Heartbeat CPU 0 instructions: 40000002 cycles: 10000496 heartbeat IPC: 3.9999 cumulative IPC: 3.99981 (Simulation time: 0 hr 2 min 37 sec) 
Heartbeat CPU 0 instructions: 50000001 cycles: 12500638 heartbeat IPC: 3.99978 cumulative IPC: 3.9998 (Simulation time: 0 hr 3 min 17 sec) 
Warmup finished CPU 0 instructions: 50000001 cycles: 12500639 cumulative IPC: 3.9998 (Simulation time: 0 hr 3 min 17 sec) 

Warmup complete CPU 0 instructions: 50000001 cycles: 12500639 (Simulation time: 0 hr 3 min 17 sec) 

Heartbeat CPU 0 instructions: 60000002 cycles: 42379836 heartbeat IPC: 0.334682 cumulative IPC: 0.334682 (Simulation time: 0 hr 4 min 41 sec) 
Heartbeat CPU 0 instructions: 70000000 cycles: 72723817 heartbeat IPC: 0.329555 cumulative IPC: 0.332099 (Simulation time: 0 hr 6 min 4 sec) 
Heartbeat CPU 0 instructions: 80000002 cycles: 102247934 heartbeat IPC: 0.338707 cumulative IPC: 0.334272 (Simulation time: 0 hr 7 min 27 sec) 
Heartbeat CPU 0 instructions: 90000000 cycles: 132554176 heartbeat IPC: 0.329965 cumulative IPC: 0.333185 (Simulation time: 0 hr 8 min 51 sec) 
Heartbeat CPU 0 instructions: 100000004 cycles: 164040792 heartbeat IPC: 0.317596 cumulative IPC: 0.329946 (Simulation time: 0 hr 10 min 16 sec) 
Heartbeat CPU 0 instructions: 110000004 cycles: 194232913 heartbeat IPC: 0.331213 cumulative IPC: 0.330157 (Simulation time: 0 hr 11 min 40 sec) 
Heartbeat CPU 0 instructions: 120000004 cycles: 224936750 heartbeat IPC: 0.325693 cumulative IPC: 0.329511 (Simulation time: 0 hr 13 min 4 sec) 
Heartbeat CPU 0 instructions: 130000000 cycles: 255027998 heartbeat IPC: 0.332323 cumulative IPC: 0.32986 (Simulation time: 0 hr 14 min 28 sec) 
Heartbeat CPU 0 instructions: 140000002 cycles: 285218743 heartbeat IPC: 0.331228 cumulative IPC: 0.330012 (Simulation time: 0 hr 15 min 52 sec) 
Heartbeat CPU 0 instructions: 150000001 cycles: 313981847 heartbeat IPC: 0.347668 cumulative IPC: 0.331696 (Simulation time: 0 hr 17 min 13 sec) 
Simulation finished CPU 0 instructions: 100000000 cycles: 301481209 cumulative IPC: 0.331696 (Simulation time: 0 hr 17 min 13 sec) 

Simulation complete CPU 0 instructions: 100000000 cycles: 301481209 (Simulation time: 0 hr 17 min 13 sec) 


ChampSim completed all CPUs

Saving instructions large page distribution to /home/bsc/bsc018186/scratch/itp_asplos25_AE/dump/smt_srv540_ap_srv582_ap_1024i.pdst...
Saving data large page distribution to /home/bsc/bsc018186/scratch/itp_asplos25_AE/dump/smt_srv540_ap_srv582_ap_1024i.pdst...
=== Simulation ===
CPU 0 runs /gpfs/projects/bsc18/MN4/bsc18/romol/ChampSim/traces/qualcomm_srv/smt_srv540_ap_srv582_ap_1024i.champsimtrace.xz

Region of Interest Statistics

CPU 0 cumulative IPC: 0.331696 instructions: 100000000 cycles: 301481209
CPU 0 Branch Prediction Accuracy: 75.1418% MPKI: 44.8326 Average ROB Occupancy at Mispredict: 10.9118
Branch type MPKI
BRANCH_DIRECT_JUMP: 1.39704
BRANCH_INDIRECT: 23.1452
BRANCH_CONDITIONAL: 13.0321
BRANCH_DIRECT_CALL: 2.68799
BRANCH_INDIRECT_CALL: 1.02459
BRANCH_RETURN: 3.54575

Instructions large pages: 0
Instructions small pages: 9622
Large page distribution for instructions: 0%

Data large pages: 0
Data small pages: 8277
Large page distribution for data: 0%

cpu0_L1I TOTAL       ACCESS:   39259118  HIT:   30591285  MISS:    8667833  iACCESS:   39259118  iHIT:   30591285  iMISS:    8667833  dACCESS:          0  dHIT:          0  dMISS:          0  itACCESS:          0  itHIT:          0  itMISS:          0  dtACCESS:          0  dtHIT:          0  dtMISS:          0
cpu0_L1I LOAD         ACCESS:   11753030  HIT:    9395932  MISS:    2357098  iACCESS:   11753030  iHIT:    9395932  iMISS:    2357098  dACCESS:          0  dHIT:          0  dMISS:          0  itACCESS:          0  itHIT:          0  itMISS:          0  dtACCESS:          0  dtHIT:          0  dtMISS:          0
cpu0_L1I RFO          ACCESS:          0  HIT:          0  MISS:          0  iACCESS:          0  iHIT:          0  iMISS:          0  dACCESS:          0  dHIT:          0  dMISS:          0  itACCESS:          0  itHIT:          0  itMISS:          0  dtACCESS:          0  dtHIT:          0  dtMISS:          0
cpu0_L1I PREFETCH     ACCESS:   27506088  HIT:   21195353  MISS:    6310735  iACCESS:   27506088  iHIT:   21195353  iMISS:    6310735  dACCESS:          0  dHIT:          0  dMISS:          0  itACCESS:          0  itHIT:          0  itMISS:          0  dtACCESS:          0  dtHIT:          0  dtMISS:          0
cpu0_L1I WRITE        ACCESS:          0  HIT:          0  MISS:          0  iACCESS:          0  iHIT:          0  iMISS:          0  dACCESS:          0  dHIT:          0  dMISS:          0  itACCESS:          0  itHIT:          0  itMISS:          0  dtACCESS:          0  dtHIT:          0  dtMISS:          0
cpu0_L1I TRANSLATION  ACCESS:          0  HIT:          0  MISS:          0  iACCESS:          0  iHIT:          0  iMISS:          0  dACCESS:          0  dHIT:          0  dMISS:          0  itACCESS:          0  itHIT:          0  itMISS:          0  dtACCESS:          0  dtHIT:          0  dtMISS:          0
cpu0_L1I PREFETCH  REQUESTED:   30336181  ISSUED:   30336121  CROSSED:          0  USEFUL:    2206609  USELESS:     766290
cpu0_L1I AVERAGE iMISS LATENCY: 24.7556 cycles
cpu0_L1I AVERAGE dMISS LATENCY: 0 cycles
cpu0_L1I AVERAGE itMISS LATENCY: 0 cycles
cpu0_L1I AVERAGE dtMISS LATENCY: 0 cycles
cpu0_L1I PAGE CROSSINGS (TLB HIT):         0 
cpu0_L1I PAGE CROSSINGS (TLB MISS):         0 
cpu0_L1I AVERAGE MISS LATENCY: 24.7556 cycles
cpu0_ITLB TOTAL       ACCESS:   33232969  HIT:   31006369  MISS:    2226600  iACCESS:   33232969  iHIT:   31006369  iMISS:    2226600  dACCESS:          0  dHIT:          0  dMISS:          0  itACCESS:          0  itHIT:          0  itMISS:          0  dtACCESS:          0  dtHIT:          0  dtMISS:          0
cpu0_ITLB LOAD         ACCESS:   33232969  HIT:   31006369  MISS:    2226600  iACCESS:   33232969  iHIT:   31006369  iMISS:    2226600  dACCESS:          0  dHIT:          0  dMISS:          0  itACCESS:          0  itHIT:          0  itMISS:          0  dtACCESS:          0  dtHIT:          0  dtMISS:          0
cpu0_ITLB RFO          ACCESS:          0  HIT:          0  MISS:          0  iACCESS:          0  iHIT:          0  iMISS:          0  dACCESS:          0  dHIT:          0  dMISS:          0  itACCESS:          0  itHIT:          0  itMISS:          0  dtACCESS:          0  dtHIT:          0  dtMISS:          0
cpu0_ITLB PREFETCH     ACCESS:          0  HIT:          0  MISS:          0  iACCESS:          0  iHIT:          0  iMISS:          0  dACCESS:          0  dHIT:          0  dMISS:          0  itACCESS:          0  itHIT:          0  itMISS:          0  dtACCESS:          0  dtHIT:          0  dtMISS:          0
cpu0_ITLB WRITE        ACCESS:          0  HIT:          0  MISS:          0  iACCESS:          0  iHIT:          0  iMISS:          0  dACCESS:          0  dHIT:          0  dMISS:          0  itACCESS:          0  itHIT:          0  itMISS:          0  dtACCESS:          0  dtHIT:          0  dtMISS:          0
cpu0_ITLB TRANSLATION  ACCESS:          0  HIT:          0  MISS:          0  iACCESS:          0  iHIT:          0  iMISS:          0  dACCESS:          0  dHIT:          0  dMISS:          0  itACCESS:          0  itHIT:          0  itMISS:          0  dtACCESS:          0  dtHIT:          0  dtMISS:          0
cpu0_ITLB PREFETCH  REQUESTED:          0  ISSUED:          0  CROSSED:          0  USEFUL:     389076  USELESS:      79380
cpu0_ITLB AVERAGE iMISS LATENCY: 6.70626 cycles
cpu0_ITLB AVERAGE dMISS LATENCY: 0 cycles
cpu0_ITLB AVERAGE itMISS LATENCY: 0 cycles
cpu0_ITLB AVERAGE dtMISS LATENCY: 0 cycles
cpu0_ITLB PAGE CROSSINGS (TLB HIT):         0 
cpu0_ITLB PAGE CROSSINGS (TLB MISS):         0 
cpu0_ITLB AVERAGE MISS LATENCY: 6.70626 cycles
cpu0_DTLB TOTAL       ACCESS:   28835715  HIT:   25205905  MISS:    3629810  iACCESS:          0  iHIT:          0  iMISS:          0  dACCESS:   28835715  dHIT:   25205905  dMISS:    3629810  itACCESS:          0  itHIT:          0  itMISS:          0  dtACCESS:          0  dtHIT:          0  dtMISS:          0
cpu0_DTLB LOAD         ACCESS:   28835715  HIT:   25205905  MISS:    3629810  iACCESS:          0  iHIT:          0  iMISS:          0  dACCESS:   28835715  dHIT:   25205905  dMISS:    3629810  itACCESS:          0  itHIT:          0  itMISS:          0  dtACCESS:          0  dtHIT:          0  dtMISS:          0
cpu0_DTLB RFO          ACCESS:          0  HIT:          0  MISS:          0  iACCESS:          0  iHIT:          0  iMISS:          0  dACCESS:          0  dHIT:          0  dMISS:          0  itACCESS:          0  itHIT:          0  itMISS:          0  dtACCESS:          0  dtHIT:          0  dtMISS:          0
cpu0_DTLB PREFETCH     ACCESS:          0  HIT:          0  MISS:          0  iACCESS:          0  iHIT:          0  iMISS:          0  dACCESS:          0  dHIT:          0  dMISS:          0  itACCESS:          0  itHIT:          0  itMISS:          0  dtACCESS:          0  dtHIT:          0  dtMISS:          0
cpu0_DTLB WRITE        ACCESS:          0  HIT:          0  MISS:          0  iACCESS:          0  iHIT:          0  iMISS:          0  dACCESS:          0  dHIT:          0  dMISS:          0  itACCESS:          0  itHIT:          0  itMISS:          0  dtACCESS:          0  dtHIT:          0  dtMISS:          0
cpu0_DTLB TRANSLATION  ACCESS:          0  HIT:          0  MISS:          0  iACCESS:          0  iHIT:          0  iMISS:          0  dACCESS:          0  dHIT:          0  dMISS:          0  itACCESS:          0  itHIT:          0  itMISS:          0  dtACCESS:          0  dtHIT:          0  dtMISS:          0
cpu0_DTLB PREFETCH  REQUESTED:          0  ISSUED:          0  CROSSED:          0  USEFUL:          0  USELESS:          0
cpu0_DTLB AVERAGE iMISS LATENCY: 0 cycles
cpu0_DTLB AVERAGE dMISS LATENCY: 27.8961 cycles
cpu0_DTLB AVERAGE itMISS LATENCY: 0 cycles
cpu0_DTLB AVERAGE dtMISS LATENCY: 0 cycles
cpu0_DTLB PAGE CROSSINGS (TLB HIT):         0 
cpu0_DTLB PAGE CROSSINGS (TLB MISS):         0 
cpu0_DTLB AVERAGE MISS LATENCY: 27.8961 cycles
cpu0_STLB TOTAL       ACCESS:    2573869  HIT:    2197597  MISS:     376272  iACCESS:     468456  iHIT:     410117  iMISS:      58339  dACCESS:    2105413  dHIT:    1787480  dMISS:     317933  itACCESS:          0  itHIT:          0  itMISS:          0  dtACCESS:          0  dtHIT:          0  dtMISS:          0
cpu0_STLB LOAD         ACCESS:    2573869  HIT:    2197597  MISS:     376272  iACCESS:     468456  iHIT:     410117  iMISS:      58339  dACCESS:    2105413  dHIT:    1787480  dMISS:     317933  itACCESS:          0  itHIT:          0  itMISS:          0  dtACCESS:          0  dtHIT:          0  dtMISS:          0
cpu0_STLB RFO          ACCESS:          0  HIT:          0  MISS:          0  iACCESS:          0  iHIT:          0  iMISS:          0  dACCESS:          0  dHIT:          0  dMISS:          0  itACCESS:          0  itHIT:          0  itMISS:          0  dtACCESS:          0  dtHIT:          0  dtMISS:          0
cpu0_STLB PREFETCH     ACCESS:          0  HIT:          0  MISS:          0  iACCESS:          0  iHIT:          0  iMISS:          0  dACCESS:          0  dHIT:          0  dMISS:          0  itACCESS:          0  itHIT:          0  itMISS:          0  dtACCESS:          0  dtHIT:          0  dtMISS:          0
cpu0_STLB WRITE        ACCESS:          0  HIT:          0  MISS:          0  iACCESS:          0  iHIT:          0  iMISS:          0  dACCESS:          0  dHIT:          0  dMISS:          0  itACCESS:          0  itHIT:          0  itMISS:          0  dtACCESS:          0  dtHIT:          0  dtMISS:          0
cpu0_STLB TRANSLATION  ACCESS:          0  HIT:          0  MISS:          0  iACCESS:          0  iHIT:          0  iMISS:          0  dACCESS:          0  dHIT:          0  dMISS:          0  itACCESS:          0  itHIT:          0  itMISS:          0  dtACCESS:          0  dtHIT:          0  dtMISS:          0
cpu0_STLB PREFETCH  REQUESTED:          0  ISSUED:          0  CROSSED:          0  USEFUL:          0  USELESS:          0
cpu0_STLB AVERAGE iMISS LATENCY: 29.891 cycles
cpu0_STLB AVERAGE dMISS LATENCY: 223.906 cycles
cpu0_STLB AVERAGE itMISS LATENCY: 0 cycles
cpu0_STLB AVERAGE dtMISS LATENCY: 0 cycles
cpu0_STLB PAGE CROSSINGS (TLB HIT):         0 
cpu0_STLB PAGE CROSSINGS (TLB MISS):         0 
cpu0_STLB AVERAGE MISS LATENCY: 253.797 cycles
cpu0_L1D TOTAL       ACCESS:   45035728  HIT:   39062727  MISS:    5973001  iACCESS:          0  iHIT:          0  iMISS:          0  dACCESS:   44462125  dHIT:   39033327  dMISS:    5428798  itACCESS:      68677  itHIT:       5024  itMISS:      63653  dtACCESS:     504926  dtHIT:      24376  dtMISS:     480550
cpu0_L1D LOAD         ACCESS:   20315594  HIT:   17872410  MISS:    2443184  iACCESS:          0  iHIT:          0  iMISS:          0  dACCESS:   20315594  dHIT:   17872410  dMISS:    2443184  itACCESS:          0  itHIT:          0  itMISS:          0  dtACCESS:          0  dtHIT:          0  dtMISS:          0
cpu0_L1D RFO          ACCESS:          0  HIT:          0  MISS:          0  iACCESS:          0  iHIT:          0  iMISS:          0  dACCESS:          0  dHIT:          0  dMISS:          0  itACCESS:          0  itHIT:          0  itMISS:          0  dtACCESS:          0  dtHIT:          0  dtMISS:          0
cpu0_L1D PREFETCH     ACCESS:   13998364  HIT:   11584601  MISS:    2413763  iACCESS:          0  iHIT:          0  iMISS:          0  dACCESS:   13998364  dHIT:   11584601  dMISS:    2413763  itACCESS:          0  itHIT:          0  itMISS:          0  dtACCESS:          0  dtHIT:          0  dtMISS:          0
cpu0_L1D WRITE        ACCESS:   10148167  HIT:    9576316  MISS:     571851  iACCESS:          0  iHIT:          0  iMISS:          0  dACCESS:   10148167  dHIT:    9576316  dMISS:     571851  itACCESS:          0  itHIT:          0  itMISS:          0  dtACCESS:          0  dtHIT:          0  dtMISS:          0
cpu0_L1D TRANSLATION  ACCESS:     573603  HIT:      29400  MISS:     544203  iACCESS:          0  iHIT:          0  iMISS:          0  dACCESS:          0  dHIT:          0  dMISS:          0  itACCESS:      68677  itHIT:       5024  itMISS:      63653  dtACCESS:     504926  dtHIT:      24376  dtMISS:     480550
cpu0_L1D PREFETCH  REQUESTED:   20315594  ISSUED:   18423373  CROSSED:          0  USEFUL:     359185  USELESS:     927982
cpu0_L1D AVERAGE iMISS LATENCY: 0 cycles
cpu0_L1D AVERAGE dMISS LATENCY: 48.4669 cycles
cpu0_L1D AVERAGE itMISS LATENCY: 1.78501 cycles
cpu0_L1D AVERAGE dtMISS LATENCY: 13.2371 cycles
cpu0_L1D PAGE CROSSINGS (TLB HIT):         0 
cpu0_L1D PAGE CROSSINGS (TLB MISS):         0 
cpu0_L1D AVERAGE MISS LATENCY: 63.4889 cycles
cpu0_L2C TOTAL       ACCESS:    8651245  HIT:    4187924  MISS:    4463321  iACCESS:    3779202  iHIT:    2298797  iMISS:    1480405  dACCESS:    4357335  dHIT:    1822234  dMISS:    2535101  itACCESS:      63031  itHIT:       9670  itMISS:      53361  dtACCESS:     451677  dtHIT:      57223  dtMISS:     394454
cpu0_L2C LOAD         ACCESS:    2043789  HIT:     994765  MISS:    1049024  iACCESS:     844700  iHIT:     535932  iMISS:     308768  dACCESS:    1199089  dHIT:     458833  dMISS:     740256  itACCESS:          0  itHIT:          0  itMISS:          0  dtACCESS:          0  dtHIT:          0  dtMISS:          0
cpu0_L2C RFO          ACCESS:     220106  HIT:      84699  MISS:     135407  iACCESS:          0  iHIT:          0  iMISS:          0  dACCESS:     220106  dHIT:      84699  dMISS:     135407  itACCESS:          0  itHIT:          0  itMISS:          0  dtACCESS:          0  dtHIT:          0  dtMISS:          0
cpu0_L2C PREFETCH     ACCESS:    5526738  HIT:    2699396  MISS:    2827342  iACCESS:    2934502  iHIT:    1762865  iMISS:    1171637  dACCESS:    2592236  dHIT:     936531  dMISS:    1655705  itACCESS:          0  itHIT:          0  itMISS:          0  dtACCESS:          0  dtHIT:          0  dtMISS:          0
cpu0_L2C WRITE        ACCESS:     345904  HIT:     342171  MISS:       3733  iACCESS:          0  iHIT:          0  iMISS:          0  dACCESS:     345904  dHIT:     342171  dMISS:       3733  itACCESS:          0  itHIT:          0  itMISS:          0  dtACCESS:          0  dtHIT:          0  dtMISS:          0
cpu0_L2C TRANSLATION  ACCESS:     514708  HIT:      66893  MISS:     447815  iACCESS:          0  iHIT:          0  iMISS:          0  dACCESS:          0  dHIT:          0  dMISS:          0  itACCESS:      63031  itHIT:       9670  itMISS:      53361  dtACCESS:     451677  dtHIT:      57223  dtMISS:     394454
cpu0_L2C PREFETCH  REQUESTED:    1546084  ISSUED:    1546080  CROSSED:          0  USEFUL:     358526  USELESS:     326955
cpu0_L2C AVERAGE iMISS LATENCY: 41.0369 cycles
cpu0_L2C AVERAGE dMISS LATENCY: 80.8125 cycles
cpu0_L2C AVERAGE itMISS LATENCY: 2.24929 cycles
cpu0_L2C AVERAGE dtMISS LATENCY: 16.7093 cycles
cpu0_L2C PAGE CROSSINGS (TLB HIT):         0 
cpu0_L2C PAGE CROSSINGS (TLB MISS):         0 
cpu0_L2C AVERAGE MISS LATENCY: 140.808 cycles
LLC TOTAL       ACCESS:    4450211  HIT:    1304745  MISS:    3145466  iACCESS:    1388835  iHIT:     411739  iMISS:     977096  dACCESS:    2613561  dHIT:     840290  dMISS:    1773271  itACCESS:      53361  itHIT:       3246  itMISS:      50115  dtACCESS:     394454  dtHIT:      49470  dtMISS:     344984
LLC LOAD         ACCESS:    1042020  HIT:     321272  MISS:     720748  iACCESS:     307523  iHIT:      97904  iMISS:     209619  dACCESS:     734497  dHIT:     223368  dMISS:     511129  itACCESS:          0  itHIT:          0  itMISS:          0  dtACCESS:          0  dtHIT:          0  dtMISS:          0
LLC RFO          ACCESS:     135404  HIT:      39846  MISS:      95558  iACCESS:          0  iHIT:          0  iMISS:          0  dACCESS:     135404  dHIT:      39846  dMISS:      95558  itACCESS:          0  itHIT:          0  itMISS:          0  dtACCESS:          0  dtHIT:          0  dtMISS:          0
LLC PREFETCH     ACCESS:    2611678  HIT:     688120  MISS:    1923558  iACCESS:    1081312  iHIT:     313835  iMISS:     767477  dACCESS:    1530366  dHIT:     374285  dMISS:    1156081  itACCESS:          0  itHIT:          0  itMISS:          0  dtACCESS:          0  dtHIT:          0  dtMISS:          0
LLC WRITE        ACCESS:     213294  HIT:     202791  MISS:      10503  iACCESS:          0  iHIT:          0  iMISS:          0  dACCESS:     213294  dHIT:     202791  dMISS:      10503  itACCESS:          0  itHIT:          0  itMISS:          0  dtACCESS:          0  dtHIT:          0  dtMISS:          0
LLC TRANSLATION  ACCESS:     447815  HIT:      52716  MISS:     395099  iACCESS:          0  iHIT:          0  iMISS:          0  dACCESS:          0  dHIT:          0  dMISS:          0  itACCESS:      53361  itHIT:       3246  itMISS:      50115  dtACCESS:     394454  dtHIT:      49470  dtMISS:     344984
LLC PREFETCH  REQUESTED:          0  ISSUED:          0  CROSSED:          0  USEFUL:          0  USELESS:          0
LLC AVERAGE iMISS LATENCY: 49.5297 cycles
LLC AVERAGE dMISS LATENCY: 100.786 cycles
LLC AVERAGE itMISS LATENCY: 2.85496 cycles
LLC AVERAGE dtMISS LATENCY: 21.2321 cycles
LLC PAGE CROSSINGS (TLB HIT):         0 
LLC PAGE CROSSINGS (TLB MISS):         0 
LLC AVERAGE MISS LATENCY: 174.403 cycles

PageTableWalker TOTAL       ACCESS:     188677  
PageTableWalker AVERAGE LATENCY: 6.73051 cycles
PageTableWalker TOTAL LATENCY: 1269891 cycles

DRAM Statistics
Channel 0
 RQ ROW_BUFFER_HIT:     649607
  ROW_BUFFER_MISS:    2462247
 AVG DBUS CONGESTED CYCLE:    3.65064
 WQ ROW_BUFFER_HIT:      66738
  ROW_BUFFER_MISS:      56164  FULL:          0

