last_page:0x200000000000000
VMEM_RES_CAP:0x100000
PAGE_SIZE:4096
LOG2_PAGE_SIZE:12
LOG2_PAGE_TABLE_SIZE:9
page_table_levels:5
WARNING: physical memory size is smaller than virtual memory size
FDiP enabled with aggresivity 16

*** ChampSim Multicore Out-of-Order Simulator ***

Warmup Instructions: 50000000
Simulation Instructions: 100000000
Number of CPUs: 1
Small page size: 4096
Large page size: 2097152

CPU 0 Bimodal branch predictor
Basic BTB sets: 1024 ways: 8 indirect buffer size: 4096 RAS size: 64
Instruction page size distrubution: 0
Loading instruction page size distribution from /home/bsc/bsc018186/scratch/itp_asplos25_AE/dump/smt_srv540_ap_srv551_ap_1024i.pdst
Data page size distrubution: 0
Loading data page size distribution from /home/bsc/bsc018186/scratch/itp_asplos25_AE/dump/smt_srv540_ap_srv551_ap_1024i.pdst
cpu0_L2C IP-based stride prefetcher
cpu0_L1D next line prefetcher
CHiRPing...
cpu0_L1I next line prefetcher
Off-chip DRAM Size: 4 GiB Channels: 1 Width: 64-bit Data Rate: 3200 MT/s
Heartbeat CPU 0 instructions: 10000002 cycles: 2500404 heartbeat IPC: 3.99936 cumulative IPC: 3.99936 (Simulation time: 0 hr 0 min 44 sec) 
Heartbeat CPU 0 instructions: 20000001 cycles: 5000597 heartbeat IPC: 3.9997 cumulative IPC: 3.99953 (Simulation time: 0 hr 1 min 32 sec) 
Heartbeat CPU 0 instructions: 30000001 cycles: 7500953 heartbeat IPC: 3.99944 cumulative IPC: 3.9995 (Simulation time: 0 hr 2 min 19 sec) 
Heartbeat CPU 0 instructions: 40000002 cycles: 10001203 heartbeat IPC: 3.99961 cumulative IPC: 3.99952 (Simulation time: 0 hr 3 min 6 sec) 
Heartbeat CPU 0 instructions: 50000003 cycles: 12501639 heartbeat IPC: 3.99931 cumulative IPC: 3.99948 (Simulation time: 0 hr 3 min 54 sec) 
Warmup finished CPU 0 instructions: 50000003 cycles: 12501640 cumulative IPC: 3.99948 (Simulation time: 0 hr 3 min 54 sec) 

Warmup complete CPU 0 instructions: 50000003 cycles: 12501640 (Simulation time: 0 hr 3 min 54 sec) 

Heartbeat CPU 0 instructions: 60000000 cycles: 42886967 heartbeat IPC: 0.329107 cumulative IPC: 0.329107 (Simulation time: 0 hr 5 min 29 sec) 
Heartbeat CPU 0 instructions: 70000000 cycles: 73734797 heartbeat IPC: 0.324172 cumulative IPC: 0.326621 (Simulation time: 0 hr 7 min 4 sec) 
Heartbeat CPU 0 instructions: 80000002 cycles: 104253685 heartbeat IPC: 0.327667 cumulative IPC: 0.326969 (Simulation time: 0 hr 8 min 40 sec) 
Heartbeat CPU 0 instructions: 90000000 cycles: 134407617 heartbeat IPC: 0.331632 cumulative IPC: 0.328122 (Simulation time: 0 hr 10 min 17 sec) 
Heartbeat CPU 0 instructions: 100000003 cycles: 165722281 heartbeat IPC: 0.31934 cumulative IPC: 0.326327 (Simulation time: 0 hr 11 min 56 sec) 
Heartbeat CPU 0 instructions: 110000000 cycles: 194662442 heartbeat IPC: 0.345541 cumulative IPC: 0.32938 (Simulation time: 0 hr 13 min 32 sec) 
Heartbeat CPU 0 instructions: 120000000 cycles: 220871929 heartbeat IPC: 0.381542 cumulative IPC: 0.335941 (Simulation time: 0 hr 15 min 6 sec) 
Heartbeat CPU 0 instructions: 130000000 cycles: 237633095 heartbeat IPC: 0.596618 cumulative IPC: 0.355348 (Simulation time: 0 hr 16 min 26 sec) 
Heartbeat CPU 0 instructions: 140000002 cycles: 255192523 heartbeat IPC: 0.569495 cumulative IPC: 0.370843 (Simulation time: 0 hr 17 min 47 sec) 
Heartbeat CPU 0 instructions: 150000001 cycles: 285993384 heartbeat IPC: 0.324667 cumulative IPC: 0.365642 (Simulation time: 0 hr 19 min 26 sec) 
Simulation finished CPU 0 instructions: 100000003 cycles: 273491746 cumulative IPC: 0.365642 (Simulation time: 0 hr 19 min 26 sec) 

Simulation complete CPU 0 instructions: 100000003 cycles: 273491746 (Simulation time: 0 hr 19 min 26 sec) 


ChampSim completed all CPUs

Saving instructions large page distribution to /home/bsc/bsc018186/scratch/itp_asplos25_AE/dump/smt_srv540_ap_srv551_ap_1024i.pdst...
Saving data large page distribution to /home/bsc/bsc018186/scratch/itp_asplos25_AE/dump/smt_srv540_ap_srv551_ap_1024i.pdst...
=== Simulation ===
CPU 0 runs /gpfs/projects/bsc18/MN4/bsc18/romol/ChampSim/traces/qualcomm_srv/smt_srv540_ap_srv551_ap_1024i.champsimtrace.xz

Region of Interest Statistics

CPU 0 cumulative IPC: 0.365642 instructions: 100000003 cycles: 273491746
CPU 0 Branch Prediction Accuracy: 77.9969% MPKI: 42.4508 Average ROB Occupancy at Mispredict: 11.2678
Branch type MPKI
BRANCH_DIRECT_JUMP: 1.23399
BRANCH_INDIRECT: 22.826
BRANCH_CONDITIONAL: 11.6402
BRANCH_DIRECT_CALL: 2.36679
BRANCH_INDIRECT_CALL: 1.07038
BRANCH_RETURN: 3.31346

Instructions large pages: 0
Instructions small pages: 10131
Large page distribution for instructions: 0%

Data large pages: 0
Data small pages: 8688
Large page distribution for data: 0%

cpu0_L1I TOTAL       ACCESS:   39683235  HIT:   32022432  MISS:    7660803  iACCESS:   39683235  iHIT:   32022432  iMISS:    7660803  dACCESS:          0  dHIT:          0  dMISS:          0  itACCESS:          0  itHIT:          0  itMISS:          0  dtACCESS:          0  dtHIT:          0  dtMISS:          0
cpu0_L1I LOAD         ACCESS:   11328260  HIT:    9244728  MISS:    2083532  iACCESS:   11328260  iHIT:    9244728  iMISS:    2083532  dACCESS:          0  dHIT:          0  dMISS:          0  itACCESS:          0  itHIT:          0  itMISS:          0  dtACCESS:          0  dtHIT:          0  dtMISS:          0
cpu0_L1I RFO          ACCESS:          0  HIT:          0  MISS:          0  iACCESS:          0  iHIT:          0  iMISS:          0  dACCESS:          0  dHIT:          0  dMISS:          0  itACCESS:          0  itHIT:          0  itMISS:          0  dtACCESS:          0  dtHIT:          0  dtMISS:          0
cpu0_L1I PREFETCH     ACCESS:   28354975  HIT:   22777704  MISS:    5577271  iACCESS:   28354975  iHIT:   22777704  iMISS:    5577271  dACCESS:          0  dHIT:          0  dMISS:          0  itACCESS:          0  itHIT:          0  itMISS:          0  dtACCESS:          0  dtHIT:          0  dtMISS:          0
cpu0_L1I WRITE        ACCESS:          0  HIT:          0  MISS:          0  iACCESS:          0  iHIT:          0  iMISS:          0  dACCESS:          0  dHIT:          0  dMISS:          0  itACCESS:          0  itHIT:          0  itMISS:          0  dtACCESS:          0  dtHIT:          0  dtMISS:          0
cpu0_L1I TRANSLATION  ACCESS:          0  HIT:          0  MISS:          0  iACCESS:          0  iHIT:          0  iMISS:          0  dACCESS:          0  dHIT:          0  dMISS:          0  itACCESS:          0  itHIT:          0  itMISS:          0  dtACCESS:          0  dtHIT:          0  dtMISS:          0
cpu0_L1I PREFETCH  REQUESTED:   31038794  ISSUED:   31038350  CROSSED:          0  USEFUL:    1958578  USELESS:     678876
cpu0_L1I AVERAGE iMISS LATENCY: 24.3367 cycles
cpu0_L1I AVERAGE dMISS LATENCY: 0 cycles
cpu0_L1I AVERAGE itMISS LATENCY: 0 cycles
cpu0_L1I AVERAGE dtMISS LATENCY: 0 cycles
cpu0_L1I PAGE CROSSINGS (TLB HIT):         0 
cpu0_L1I PAGE CROSSINGS (TLB MISS):         0 
cpu0_L1I AVERAGE MISS LATENCY: 24.3367 cycles
cpu0_ITLB TOTAL       ACCESS:   33395356  HIT:   31421559  MISS:    1973797  iACCESS:   33395356  iHIT:   31421559  iMISS:    1973797  dACCESS:          0  dHIT:          0  dMISS:          0  itACCESS:          0  itHIT:          0  itMISS:          0  dtACCESS:          0  dtHIT:          0  dtMISS:          0
cpu0_ITLB LOAD         ACCESS:   33395356  HIT:   31421559  MISS:    1973797  iACCESS:   33395356  iHIT:   31421559  iMISS:    1973797  dACCESS:          0  dHIT:          0  dMISS:          0  itACCESS:          0  itHIT:          0  itMISS:          0  dtACCESS:          0  dtHIT:          0  dtMISS:          0
cpu0_ITLB RFO          ACCESS:          0  HIT:          0  MISS:          0  iACCESS:          0  iHIT:          0  iMISS:          0  dACCESS:          0  dHIT:          0  dMISS:          0  itACCESS:          0  itHIT:          0  itMISS:          0  dtACCESS:          0  dtHIT:          0  dtMISS:          0
cpu0_ITLB PREFETCH     ACCESS:          0  HIT:          0  MISS:          0  iACCESS:          0  iHIT:          0  iMISS:          0  dACCESS:          0  dHIT:          0  dMISS:          0  itACCESS:          0  itHIT:          0  itMISS:          0  dtACCESS:          0  dtHIT:          0  dtMISS:          0
cpu0_ITLB WRITE        ACCESS:          0  HIT:          0  MISS:          0  iACCESS:          0  iHIT:          0  iMISS:          0  dACCESS:          0  dHIT:          0  dMISS:          0  itACCESS:          0  itHIT:          0  itMISS:          0  dtACCESS:          0  dtHIT:          0  dtMISS:          0
cpu0_ITLB TRANSLATION  ACCESS:          0  HIT:          0  MISS:          0  iACCESS:          0  iHIT:          0  iMISS:          0  dACCESS:          0  dHIT:          0  dMISS:          0  itACCESS:          0  itHIT:          0  itMISS:          0  dtACCESS:          0  dtHIT:          0  dtMISS:          0
cpu0_ITLB PREFETCH  REQUESTED:          0  ISSUED:          0  CROSSED:          0  USEFUL:     345292  USELESS:      70883
cpu0_ITLB AVERAGE iMISS LATENCY: 10.414 cycles
cpu0_ITLB AVERAGE dMISS LATENCY: 0 cycles
cpu0_ITLB AVERAGE itMISS LATENCY: 0 cycles
cpu0_ITLB AVERAGE dtMISS LATENCY: 0 cycles
cpu0_ITLB PAGE CROSSINGS (TLB HIT):         0 
cpu0_ITLB PAGE CROSSINGS (TLB MISS):         0 
cpu0_ITLB AVERAGE MISS LATENCY: 10.414 cycles
cpu0_DTLB TOTAL       ACCESS:   30725025  HIT:   24569801  MISS:    6155224  iACCESS:          0  iHIT:          0  iMISS:          0  dACCESS:   30725025  dHIT:   24569801  dMISS:    6155224  itACCESS:          0  itHIT:          0  itMISS:          0  dtACCESS:          0  dtHIT:          0  dtMISS:          0
cpu0_DTLB LOAD         ACCESS:   30725025  HIT:   24569801  MISS:    6155224  iACCESS:          0  iHIT:          0  iMISS:          0  dACCESS:   30725025  dHIT:   24569801  dMISS:    6155224  itACCESS:          0  itHIT:          0  itMISS:          0  dtACCESS:          0  dtHIT:          0  dtMISS:          0
cpu0_DTLB RFO          ACCESS:          0  HIT:          0  MISS:          0  iACCESS:          0  iHIT:          0  iMISS:          0  dACCESS:          0  dHIT:          0  dMISS:          0  itACCESS:          0  itHIT:          0  itMISS:          0  dtACCESS:          0  dtHIT:          0  dtMISS:          0
cpu0_DTLB PREFETCH     ACCESS:          0  HIT:          0  MISS:          0  iACCESS:          0  iHIT:          0  iMISS:          0  dACCESS:          0  dHIT:          0  dMISS:          0  itACCESS:          0  itHIT:          0  itMISS:          0  dtACCESS:          0  dtHIT:          0  dtMISS:          0
cpu0_DTLB WRITE        ACCESS:          0  HIT:          0  MISS:          0  iACCESS:          0  iHIT:          0  iMISS:          0  dACCESS:          0  dHIT:          0  dMISS:          0  itACCESS:          0  itHIT:          0  itMISS:          0  dtACCESS:          0  dtHIT:          0  dtMISS:          0
cpu0_DTLB TRANSLATION  ACCESS:          0  HIT:          0  MISS:          0  iACCESS:          0  iHIT:          0  iMISS:          0  dACCESS:          0  dHIT:          0  dMISS:          0  itACCESS:          0  itHIT:          0  itMISS:          0  dtACCESS:          0  dtHIT:          0  dtMISS:          0
cpu0_DTLB PREFETCH  REQUESTED:          0  ISSUED:          0  CROSSED:          0  USEFUL:          0  USELESS:          0
cpu0_DTLB AVERAGE iMISS LATENCY: 0 cycles
cpu0_DTLB AVERAGE dMISS LATENCY: 14.3543 cycles
cpu0_DTLB AVERAGE itMISS LATENCY: 0 cycles
cpu0_DTLB AVERAGE dtMISS LATENCY: 0 cycles
cpu0_DTLB PAGE CROSSINGS (TLB HIT):         0 
cpu0_DTLB PAGE CROSSINGS (TLB MISS):         0 
cpu0_DTLB AVERAGE MISS LATENCY: 14.3543 cycles
cpu0_STLB TOTAL       ACCESS:    3671100  HIT:    3342402  MISS:     328698  iACCESS:     416178  iHIT:     312534  iMISS:     103644  dACCESS:    3254922  dHIT:    3029868  dMISS:     225054  itACCESS:          0  itHIT:          0  itMISS:          0  dtACCESS:          0  dtHIT:          0  dtMISS:          0
cpu0_STLB LOAD         ACCESS:    3671100  HIT:    3342402  MISS:     328698  iACCESS:     416178  iHIT:     312534  iMISS:     103644  dACCESS:    3254922  dHIT:    3029868  dMISS:     225054  itACCESS:          0  itHIT:          0  itMISS:          0  dtACCESS:          0  dtHIT:          0  dtMISS:          0
cpu0_STLB RFO          ACCESS:          0  HIT:          0  MISS:          0  iACCESS:          0  iHIT:          0  iMISS:          0  dACCESS:          0  dHIT:          0  dMISS:          0  itACCESS:          0  itHIT:          0  itMISS:          0  dtACCESS:          0  dtHIT:          0  dtMISS:          0
cpu0_STLB PREFETCH     ACCESS:          0  HIT:          0  MISS:          0  iACCESS:          0  iHIT:          0  iMISS:          0  dACCESS:          0  dHIT:          0  dMISS:          0  itACCESS:          0  itHIT:          0  itMISS:          0  dtACCESS:          0  dtHIT:          0  dtMISS:          0
cpu0_STLB WRITE        ACCESS:          0  HIT:          0  MISS:          0  iACCESS:          0  iHIT:          0  iMISS:          0  dACCESS:          0  dHIT:          0  dMISS:          0  itACCESS:          0  itHIT:          0  itMISS:          0  dtACCESS:          0  dtHIT:          0  dtMISS:          0
cpu0_STLB TRANSLATION  ACCESS:          0  HIT:          0  MISS:          0  iACCESS:          0  iHIT:          0  iMISS:          0  dACCESS:          0  dHIT:          0  dMISS:          0  itACCESS:          0  itHIT:          0  itMISS:          0  dtACCESS:          0  dtHIT:          0  dtMISS:          0
cpu0_STLB PREFETCH  REQUESTED:          0  ISSUED:          0  CROSSED:          0  USEFUL:          0  USELESS:          0
cpu0_STLB AVERAGE iMISS LATENCY: 52.3934 cycles
cpu0_STLB AVERAGE dMISS LATENCY: 188.696 cycles
cpu0_STLB AVERAGE itMISS LATENCY: 0 cycles
cpu0_STLB AVERAGE dtMISS LATENCY: 0 cycles
cpu0_STLB PAGE CROSSINGS (TLB HIT):         0 
cpu0_STLB PAGE CROSSINGS (TLB MISS):         0 
cpu0_STLB AVERAGE MISS LATENCY: 241.09 cycles
cpu0_L1D TOTAL       ACCESS:   47724381  HIT:   39420715  MISS:    8303666  iACCESS:          0  iHIT:          0  iMISS:          0  dACCESS:   47254146  dHIT:   39391983  dMISS:    7862163  itACCESS:     115563  itHIT:      12477  itMISS:     103086  dtACCESS:     354672  dtHIT:      16255  dtMISS:     338417
cpu0_L1D LOAD         ACCESS:   22722719  HIT:   18298531  MISS:    4424188  iACCESS:          0  iHIT:          0  iMISS:          0  dACCESS:   22722719  dHIT:   18298531  dMISS:    4424188  itACCESS:          0  itHIT:          0  itMISS:          0  dtACCESS:          0  dtHIT:          0  dtMISS:          0
cpu0_L1D RFO          ACCESS:          0  HIT:          0  MISS:          0  iACCESS:          0  iHIT:          0  iMISS:          0  dACCESS:          0  dHIT:          0  dMISS:          0  itACCESS:          0  itHIT:          0  itMISS:          0  dtACCESS:          0  dtHIT:          0  dtMISS:          0
cpu0_L1D PREFETCH     ACCESS:   14757261  HIT:   11879777  MISS:    2877484  iACCESS:          0  iHIT:          0  iMISS:          0  dACCESS:   14757261  dHIT:   11879777  dMISS:    2877484  itACCESS:          0  itHIT:          0  itMISS:          0  dtACCESS:          0  dtHIT:          0  dtMISS:          0
cpu0_L1D WRITE        ACCESS:    9774166  HIT:    9213675  MISS:     560491  iACCESS:          0  iHIT:          0  iMISS:          0  dACCESS:    9774166  dHIT:    9213675  dMISS:     560491  itACCESS:          0  itHIT:          0  itMISS:          0  dtACCESS:          0  dtHIT:          0  dtMISS:          0
cpu0_L1D TRANSLATION  ACCESS:     470235  HIT:      28732  MISS:     441503  iACCESS:          0  iHIT:          0  iMISS:          0  dACCESS:          0  dHIT:          0  dMISS:          0  itACCESS:     115563  itHIT:      12477  itMISS:     103086  dtACCESS:     354672  dtHIT:      16255  dtMISS:     338417
cpu0_L1D PREFETCH  REQUESTED:   22722719  ISSUED:   18851323  CROSSED:          0  USEFUL:     326653  USELESS:    1175310
cpu0_L1D AVERAGE iMISS LATENCY: 0 cycles
cpu0_L1D AVERAGE dMISS LATENCY: 33.2907 cycles
cpu0_L1D AVERAGE itMISS LATENCY: 1.95584 cycles
cpu0_L1D AVERAGE dtMISS LATENCY: 6.98025 cycles
cpu0_L1D PAGE CROSSINGS (TLB HIT):         0 
cpu0_L1D PAGE CROSSINGS (TLB MISS):         0 
cpu0_L1D AVERAGE MISS LATENCY: 42.2268 cycles
cpu0_L2C TOTAL       ACCESS:    9935975  HIT:    6064752  MISS:    3871223  iACCESS:    3347731  iHIT:    2041592  iMISS:    1306139  dACCESS:    6167545  dHIT:    3969383  dMISS:    2198162  itACCESS:     102938  itHIT:      19634  itMISS:      83304  dtACCESS:     317761  dtHIT:      34143  dtMISS:     283618
cpu0_L2C LOAD         ACCESS:    3671023  HIT:    2756893  MISS:     914130  iACCESS:     743453  iHIT:     470222  iMISS:     273231  dACCESS:    2927570  dHIT:    2286671  dMISS:     640899  itACCESS:          0  itHIT:          0  itMISS:          0  dtACCESS:          0  dtHIT:          0  dtMISS:          0
cpu0_L2C RFO          ACCESS:     227086  HIT:     111488  MISS:     115598  iACCESS:          0  iHIT:          0  iMISS:          0  dACCESS:     227086  dHIT:     111488  dMISS:     115598  itACCESS:          0  itHIT:          0  itMISS:          0  dtACCESS:          0  dtHIT:          0  dtMISS:          0
cpu0_L2C PREFETCH     ACCESS:    5291391  HIT:    2819684  MISS:    2471707  iACCESS:    2604278  iHIT:    1571370  iMISS:    1032908  dACCESS:    2687113  dHIT:    1248314  dMISS:    1438799  itACCESS:          0  itHIT:          0  itMISS:          0  dtACCESS:          0  dtHIT:          0  dtMISS:          0
cpu0_L2C WRITE        ACCESS:     325776  HIT:     322910  MISS:       2866  iACCESS:          0  iHIT:          0  iMISS:          0  dACCESS:     325776  dHIT:     322910  dMISS:       2866  itACCESS:          0  itHIT:          0  itMISS:          0  dtACCESS:          0  dtHIT:          0  dtMISS:          0
cpu0_L2C TRANSLATION  ACCESS:     420699  HIT:      53777  MISS:     366922  iACCESS:          0  iHIT:          0  iMISS:          0  dACCESS:          0  dHIT:          0  dMISS:          0  itACCESS:     102938  itHIT:      19634  itMISS:      83304  dtACCESS:     317761  dtHIT:      34143  dtMISS:     283618
cpu0_L2C PREFETCH  REQUESTED:    1396544  ISSUED:    1396476  CROSSED:          0  USEFUL:     315521  USELESS:     284058
cpu0_L2C AVERAGE iMISS LATENCY: 40.9441 cycles
cpu0_L2C AVERAGE dMISS LATENCY: 79.6844 cycles
cpu0_L2C AVERAGE itMISS LATENCY: 3.93364 cycles
cpu0_L2C AVERAGE dtMISS LATENCY: 14.1559 cycles
cpu0_L2C PAGE CROSSINGS (TLB HIT):         0 
cpu0_L2C PAGE CROSSINGS (TLB MISS):         0 
cpu0_L2C AVERAGE MISS LATENCY: 138.718 cycles
LLC TOTAL       ACCESS:    3855000  HIT:    1143530  MISS:    2711470  iACCESS:    1225883  iHIT:     374100  iMISS:     851783  dACCESS:    2262195  dHIT:     733201  dMISS:    1528994  itACCESS:      83304  itHIT:       7213  itMISS:      76091  dtACCESS:     283618  dtHIT:      29016  dtMISS:     254602
LLC LOAD         ACCESS:     907309  HIT:     284198  MISS:     623111  iACCESS:     272125  iHIT:      89110  iMISS:     183015  dACCESS:     635184  dHIT:     195088  dMISS:     440096  itACCESS:          0  itHIT:          0  itMISS:          0  dtACCESS:          0  dtHIT:          0  dtMISS:          0
LLC RFO          ACCESS:     115595  HIT:      34644  MISS:      80951  iACCESS:          0  iHIT:          0  iMISS:          0  dACCESS:     115595  dHIT:      34644  dMISS:      80951  itACCESS:          0  itHIT:          0  itMISS:          0  dtACCESS:          0  dtHIT:          0  dtMISS:          0
LLC PREFETCH     ACCESS:    2284509  HIT:     617186  MISS:    1667323  iACCESS:     953758  iHIT:     284990  iMISS:     668768  dACCESS:    1330751  dHIT:     332196  dMISS:     998555  itACCESS:          0  itHIT:          0  itMISS:          0  dtACCESS:          0  dtHIT:          0  dtMISS:          0
LLC WRITE        ACCESS:     180665  HIT:     171273  MISS:       9392  iACCESS:          0  iHIT:          0  iMISS:          0  dACCESS:     180665  dHIT:     171273  dMISS:       9392  itACCESS:          0  itHIT:          0  itMISS:          0  dtACCESS:          0  dtHIT:          0  dtMISS:          0
LLC TRANSLATION  ACCESS:     366922  HIT:      36229  MISS:     330693  iACCESS:          0  iHIT:          0  iMISS:          0  dACCESS:          0  dHIT:          0  dMISS:          0  itACCESS:      83304  itHIT:       7213  itMISS:      76091  dtACCESS:     283618  dtHIT:      29016  dtMISS:     254602
LLC PREFETCH  REQUESTED:          0  ISSUED:          0  CROSSED:          0  USEFUL:          0  USELESS:          0
LLC AVERAGE iMISS LATENCY: 49.5482 cycles
LLC AVERAGE dMISS LATENCY: 99.7584 cycles
LLC AVERAGE itMISS LATENCY: 5.00704 cycles
LLC AVERAGE dtMISS LATENCY: 18.1426 cycles
LLC PAGE CROSSINGS (TLB HIT):         0 
LLC PAGE CROSSINGS (TLB MISS):         0 
LLC AVERAGE MISS LATENCY: 172.457 cycles

PageTableWalker TOTAL       ACCESS:     194748  
PageTableWalker AVERAGE LATENCY: 6.43715 cycles
PageTableWalker TOTAL LATENCY: 1253621 cycles

DRAM Statistics
Channel 0
 RQ ROW_BUFFER_HIT:     574678
  ROW_BUFFER_MISS:    2108310
 AVG DBUS CONGESTED CYCLE:    3.64821
 WQ ROW_BUFFER_HIT:      56272
  ROW_BUFFER_MISS:      48346  FULL:          0

