last_page:0x200000000000000
VMEM_RES_CAP:0x100000
PAGE_SIZE:4096
LOG2_PAGE_SIZE:12
LOG2_PAGE_TABLE_SIZE:9
page_table_levels:5
WARNING: physical memory size is smaller than virtual memory size
FDiP enabled with aggresivity 16

*** ChampSim Multicore Out-of-Order Simulator ***

Warmup Instructions: 50000000
Simulation Instructions: 100000000
Number of CPUs: 1
Small page size: 4096
Large page size: 2097152

CPU 0 Bimodal branch predictor
Basic BTB sets: 1024 ways: 8 indirect buffer size: 4096 RAS size: 64
Instruction page size distrubution: 0
Loading instruction page size distribution from /home/bsc/bsc018186/scratch/itp_asplos25_AE/dump/smt_srv207_ap_srv697_ap_1024i.pdst
Data page size distrubution: 0
Loading data page size distribution from /home/bsc/bsc018186/scratch/itp_asplos25_AE/dump/smt_srv207_ap_srv697_ap_1024i.pdst
cpu0_L2C IP-based stride prefetcher
cpu0_L2C is using xPTP/LRU
	TLB_LOWER_STRESS_THRESHOLD:1
	TLB_UPPER_STRESS_THRESHOLD:4
	MIN_EVICTION_POSITION:4
cpu0_L1D next line prefetcher
cpu0_STLB using iTP with max lru@8
cpu0_STLB using iTP with instr@0 and data@2
Init sat counter with 3 bits (max:50).
cpu0_L1I next line prefetcher
Off-chip DRAM Size: 4 GiB Channels: 1 Width: 64-bit Data Rate: 3200 MT/s
Heartbeat CPU 0 instructions: 10000002 cycles: 2500408 heartbeat IPC: 3.99935 cumulative IPC: 3.99935 (Simulation time: 0 hr 0 min 37 sec) 
Heartbeat CPU 0 instructions: 20000003 cycles: 5000681 heartbeat IPC: 3.99957 cumulative IPC: 3.99946 (Simulation time: 0 hr 1 min 16 sec) 
Heartbeat CPU 0 instructions: 30000000 cycles: 7500808 heartbeat IPC: 3.9998 cumulative IPC: 3.99957 (Simulation time: 0 hr 1 min 56 sec) 
Heartbeat CPU 0 instructions: 40000000 cycles: 10001039 heartbeat IPC: 3.99964 cumulative IPC: 3.99959 (Simulation time: 0 hr 2 min 35 sec) 
Heartbeat CPU 0 instructions: 50000000 cycles: 12501231 heartbeat IPC: 3.9997 cumulative IPC: 3.99961 (Simulation time: 0 hr 3 min 15 sec) 
Warmup finished CPU 0 instructions: 50000000 cycles: 12501232 cumulative IPC: 3.99961 (Simulation time: 0 hr 3 min 15 sec) 

Warmup complete CPU 0 instructions: 50000000 cycles: 12501232 (Simulation time: 0 hr 3 min 15 sec) 

Heartbeat CPU 0 instructions: 60000003 cycles: 39472280 heartbeat IPC: 0.370769 cumulative IPC: 0.370769 (Simulation time: 0 hr 4 min 35 sec) 
Heartbeat CPU 0 instructions: 70000002 cycles: 65135023 heartbeat IPC: 0.38967 cumulative IPC: 0.379985 (Simulation time: 0 hr 5 min 52 sec) 
Heartbeat CPU 0 instructions: 80000000 cycles: 92357333 heartbeat IPC: 0.367346 cumulative IPC: 0.375676 (Simulation time: 0 hr 7 min 12 sec) 
Heartbeat CPU 0 instructions: 90000000 cycles: 119750876 heartbeat IPC: 0.36505 cumulative IPC: 0.372962 (Simulation time: 0 hr 8 min 33 sec) 
Heartbeat CPU 0 instructions: 100000003 cycles: 145984579 heartbeat IPC: 0.38119 cumulative IPC: 0.374579 (Simulation time: 0 hr 9 min 51 sec) 
Heartbeat CPU 0 instructions: 110000002 cycles: 172101842 heartbeat IPC: 0.382889 cumulative IPC: 0.375939 (Simulation time: 0 hr 11 min 10 sec) 
Heartbeat CPU 0 instructions: 120000001 cycles: 198540673 heartbeat IPC: 0.378232 cumulative IPC: 0.376265 (Simulation time: 0 hr 12 min 29 sec) 
Heartbeat CPU 0 instructions: 130000004 cycles: 224531412 heartbeat IPC: 0.384753 cumulative IPC: 0.377305 (Simulation time: 0 hr 13 min 48 sec) 
Heartbeat CPU 0 instructions: 140000002 cycles: 251242110 heartbeat IPC: 0.374382 cumulative IPC: 0.376978 (Simulation time: 0 hr 15 min 7 sec) 
Heartbeat CPU 0 instructions: 150000000 cycles: 277787324 heartbeat IPC: 0.376716 cumulative IPC: 0.376952 (Simulation time: 0 hr 16 min 26 sec) 
Simulation finished CPU 0 instructions: 100000000 cycles: 265286093 cumulative IPC: 0.376952 (Simulation time: 0 hr 16 min 26 sec) 

Simulation complete CPU 0 instructions: 100000000 cycles: 265286093 (Simulation time: 0 hr 16 min 26 sec) 


ChampSim completed all CPUs

Saving instructions large page distribution to /home/bsc/bsc018186/scratch/itp_asplos25_AE/dump/smt_srv207_ap_srv697_ap_1024i.pdst...
Saving data large page distribution to /home/bsc/bsc018186/scratch/itp_asplos25_AE/dump/smt_srv207_ap_srv697_ap_1024i.pdst...
=== Simulation ===
CPU 0 runs /gpfs/projects/bsc18/MN4/bsc18/romol/ChampSim/traces/qualcomm_srv/smt_srv207_ap_srv697_ap_1024i.champsimtrace.xz

Region of Interest Statistics

CPU 0 cumulative IPC: 0.376952 instructions: 100000000 cycles: 265286093
CPU 0 Branch Prediction Accuracy: 75.3513% MPKI: 44.268 Average ROB Occupancy at Mispredict: 11.2324
Branch type MPKI
BRANCH_DIRECT_JUMP: 1.35477
BRANCH_INDIRECT: 23.4079
BRANCH_CONDITIONAL: 12.5038
BRANCH_DIRECT_CALL: 2.54274
BRANCH_INDIRECT_CALL: 0.948221
BRANCH_RETURN: 3.5106

Instructions large pages: 0
Instructions small pages: 14748
Large page distribution for instructions: 0%

Data large pages: 0
Data small pages: 13364
Large page distribution for data: 0%

cpu0_L1I TOTAL       ACCESS:   39183638  HIT:   30225900  MISS:    8957738  iACCESS:   39183638  iHIT:   30225900  iMISS:    8957738  dACCESS:          0  dHIT:          0  dMISS:          0  itACCESS:          0  itHIT:          0  itMISS:          0  dtACCESS:          0  dtHIT:          0  dtMISS:          0
cpu0_L1I LOAD         ACCESS:   11675757  HIT:    9229121  MISS:    2446636  iACCESS:   11675757  iHIT:    9229121  iMISS:    2446636  dACCESS:          0  dHIT:          0  dMISS:          0  itACCESS:          0  itHIT:          0  itMISS:          0  dtACCESS:          0  dtHIT:          0  dtMISS:          0
cpu0_L1I RFO          ACCESS:          0  HIT:          0  MISS:          0  iACCESS:          0  iHIT:          0  iMISS:          0  dACCESS:          0  dHIT:          0  dMISS:          0  itACCESS:          0  itHIT:          0  itMISS:          0  dtACCESS:          0  dtHIT:          0  dtMISS:          0
cpu0_L1I PREFETCH     ACCESS:   27507881  HIT:   20996779  MISS:    6511102  iACCESS:   27507881  iHIT:   20996779  iMISS:    6511102  dACCESS:          0  dHIT:          0  dMISS:          0  itACCESS:          0  itHIT:          0  itMISS:          0  dtACCESS:          0  dtHIT:          0  dtMISS:          0
cpu0_L1I WRITE        ACCESS:          0  HIT:          0  MISS:          0  iACCESS:          0  iHIT:          0  iMISS:          0  dACCESS:          0  dHIT:          0  dMISS:          0  itACCESS:          0  itHIT:          0  itMISS:          0  dtACCESS:          0  dtHIT:          0  dtMISS:          0
cpu0_L1I TRANSLATION  ACCESS:          0  HIT:          0  MISS:          0  iACCESS:          0  iHIT:          0  iMISS:          0  dACCESS:          0  dHIT:          0  dMISS:          0  itACCESS:          0  itHIT:          0  itMISS:          0  dtACCESS:          0  dtHIT:          0  dtMISS:          0
cpu0_L1I PREFETCH  REQUESTED:   30221951  ISSUED:   30221723  CROSSED:          0  USEFUL:    2201566  USELESS:     779385
cpu0_L1I AVERAGE iMISS LATENCY: 22.1441 cycles
cpu0_L1I AVERAGE dMISS LATENCY: 0 cycles
cpu0_L1I AVERAGE itMISS LATENCY: 0 cycles
cpu0_L1I AVERAGE dtMISS LATENCY: 0 cycles
cpu0_L1I PAGE CROSSINGS (TLB HIT):         0 
cpu0_L1I PAGE CROSSINGS (TLB MISS):         0 
cpu0_L1I AVERAGE MISS LATENCY: 22.1441 cycles
cpu0_ITLB TOTAL       ACCESS:   33058873  HIT:   30836431  MISS:    2222442  iACCESS:   33058873  iHIT:   30836431  iMISS:    2222442  dACCESS:          0  dHIT:          0  dMISS:          0  itACCESS:          0  itHIT:          0  itMISS:          0  dtACCESS:          0  dtHIT:          0  dtMISS:          0
cpu0_ITLB LOAD         ACCESS:   33058873  HIT:   30836431  MISS:    2222442  iACCESS:   33058873  iHIT:   30836431  iMISS:    2222442  dACCESS:          0  dHIT:          0  dMISS:          0  itACCESS:          0  itHIT:          0  itMISS:          0  dtACCESS:          0  dtHIT:          0  dtMISS:          0
cpu0_ITLB RFO          ACCESS:          0  HIT:          0  MISS:          0  iACCESS:          0  iHIT:          0  iMISS:          0  dACCESS:          0  dHIT:          0  dMISS:          0  itACCESS:          0  itHIT:          0  itMISS:          0  dtACCESS:          0  dtHIT:          0  dtMISS:          0
cpu0_ITLB PREFETCH     ACCESS:          0  HIT:          0  MISS:          0  iACCESS:          0  iHIT:          0  iMISS:          0  dACCESS:          0  dHIT:          0  dMISS:          0  itACCESS:          0  itHIT:          0  itMISS:          0  dtACCESS:          0  dtHIT:          0  dtMISS:          0
cpu0_ITLB WRITE        ACCESS:          0  HIT:          0  MISS:          0  iACCESS:          0  iHIT:          0  iMISS:          0  dACCESS:          0  dHIT:          0  dMISS:          0  itACCESS:          0  itHIT:          0  itMISS:          0  dtACCESS:          0  dtHIT:          0  dtMISS:          0
cpu0_ITLB TRANSLATION  ACCESS:          0  HIT:          0  MISS:          0  iACCESS:          0  iHIT:          0  iMISS:          0  dACCESS:          0  dHIT:          0  dMISS:          0  itACCESS:          0  itHIT:          0  itMISS:          0  dtACCESS:          0  dtHIT:          0  dtMISS:          0
cpu0_ITLB PREFETCH  REQUESTED:          0  ISSUED:          0  CROSSED:          0  USEFUL:     392987  USELESS:      79730
cpu0_ITLB AVERAGE iMISS LATENCY: 5.41452 cycles
cpu0_ITLB AVERAGE dMISS LATENCY: 0 cycles
cpu0_ITLB AVERAGE itMISS LATENCY: 0 cycles
cpu0_ITLB AVERAGE dtMISS LATENCY: 0 cycles
cpu0_ITLB PAGE CROSSINGS (TLB HIT):         0 
cpu0_ITLB PAGE CROSSINGS (TLB MISS):         0 
cpu0_ITLB AVERAGE MISS LATENCY: 5.41452 cycles
cpu0_DTLB TOTAL       ACCESS:   29126070  HIT:   25506689  MISS:    3619381  iACCESS:          0  iHIT:          0  iMISS:          0  dACCESS:   29126070  dHIT:   25506689  dMISS:    3619381  itACCESS:          0  itHIT:          0  itMISS:          0  dtACCESS:          0  dtHIT:          0  dtMISS:          0
cpu0_DTLB LOAD         ACCESS:   29126070  HIT:   25506689  MISS:    3619381  iACCESS:          0  iHIT:          0  iMISS:          0  dACCESS:   29126070  dHIT:   25506689  dMISS:    3619381  itACCESS:          0  itHIT:          0  itMISS:          0  dtACCESS:          0  dtHIT:          0  dtMISS:          0
cpu0_DTLB RFO          ACCESS:          0  HIT:          0  MISS:          0  iACCESS:          0  iHIT:          0  iMISS:          0  dACCESS:          0  dHIT:          0  dMISS:          0  itACCESS:          0  itHIT:          0  itMISS:          0  dtACCESS:          0  dtHIT:          0  dtMISS:          0
cpu0_DTLB PREFETCH     ACCESS:          0  HIT:          0  MISS:          0  iACCESS:          0  iHIT:          0  iMISS:          0  dACCESS:          0  dHIT:          0  dMISS:          0  itACCESS:          0  itHIT:          0  itMISS:          0  dtACCESS:          0  dtHIT:          0  dtMISS:          0
cpu0_DTLB WRITE        ACCESS:          0  HIT:          0  MISS:          0  iACCESS:          0  iHIT:          0  iMISS:          0  dACCESS:          0  dHIT:          0  dMISS:          0  itACCESS:          0  itHIT:          0  itMISS:          0  dtACCESS:          0  dtHIT:          0  dtMISS:          0
cpu0_DTLB TRANSLATION  ACCESS:          0  HIT:          0  MISS:          0  iACCESS:          0  iHIT:          0  iMISS:          0  dACCESS:          0  dHIT:          0  dMISS:          0  itACCESS:          0  itHIT:          0  itMISS:          0  dtACCESS:          0  dtHIT:          0  dtMISS:          0
cpu0_DTLB PREFETCH  REQUESTED:          0  ISSUED:          0  CROSSED:          0  USEFUL:          0  USELESS:          0
cpu0_DTLB AVERAGE iMISS LATENCY: 0 cycles
cpu0_DTLB AVERAGE dMISS LATENCY: 18.6402 cycles
cpu0_DTLB AVERAGE itMISS LATENCY: 0 cycles
cpu0_DTLB AVERAGE dtMISS LATENCY: 0 cycles
cpu0_DTLB PAGE CROSSINGS (TLB HIT):         0 
cpu0_DTLB PAGE CROSSINGS (TLB MISS):         0 
cpu0_DTLB AVERAGE MISS LATENCY: 18.6402 cycles
cpu0_STLB TOTAL       ACCESS:    2587143  HIT:    2218426  MISS:     368717  iACCESS:     472719  iHIT:     420340  iMISS:      52379  dACCESS:    2114424  dHIT:    1798086  dMISS:     316338  itACCESS:          0  itHIT:          0  itMISS:          0  dtACCESS:          0  dtHIT:          0  dtMISS:          0
cpu0_STLB LOAD         ACCESS:    2587143  HIT:    2218426  MISS:     368717  iACCESS:     472719  iHIT:     420340  iMISS:      52379  dACCESS:    2114424  dHIT:    1798086  dMISS:     316338  itACCESS:          0  itHIT:          0  itMISS:          0  dtACCESS:          0  dtHIT:          0  dtMISS:          0
cpu0_STLB RFO          ACCESS:          0  HIT:          0  MISS:          0  iACCESS:          0  iHIT:          0  iMISS:          0  dACCESS:          0  dHIT:          0  dMISS:          0  itACCESS:          0  itHIT:          0  itMISS:          0  dtACCESS:          0  dtHIT:          0  dtMISS:          0
cpu0_STLB PREFETCH     ACCESS:          0  HIT:          0  MISS:          0  iACCESS:          0  iHIT:          0  iMISS:          0  dACCESS:          0  dHIT:          0  dMISS:          0  itACCESS:          0  itHIT:          0  itMISS:          0  dtACCESS:          0  dtHIT:          0  dtMISS:          0
cpu0_STLB WRITE        ACCESS:          0  HIT:          0  MISS:          0  iACCESS:          0  iHIT:          0  iMISS:          0  dACCESS:          0  dHIT:          0  dMISS:          0  itACCESS:          0  itHIT:          0  itMISS:          0  dtACCESS:          0  dtHIT:          0  dtMISS:          0
cpu0_STLB TRANSLATION  ACCESS:          0  HIT:          0  MISS:          0  iACCESS:          0  iHIT:          0  iMISS:          0  dACCESS:          0  dHIT:          0  dMISS:          0  itACCESS:          0  itHIT:          0  itMISS:          0  dtACCESS:          0  dtHIT:          0  dtMISS:          0
cpu0_STLB PREFETCH  REQUESTED:          0  ISSUED:          0  CROSSED:          0  USEFUL:          0  USELESS:          0
cpu0_STLB AVERAGE iMISS LATENCY: 22.5795 cycles
cpu0_STLB AVERAGE dMISS LATENCY: 136.74 cycles
cpu0_STLB AVERAGE itMISS LATENCY: 0 cycles
cpu0_STLB AVERAGE dtMISS LATENCY: 0 cycles
cpu0_STLB PAGE CROSSINGS (TLB HIT):         0 
cpu0_STLB PAGE CROSSINGS (TLB MISS):         0 
cpu0_STLB AVERAGE MISS LATENCY: 159.319 cycles
cpu0_L1D TOTAL       ACCESS:   45006979  HIT:   39542804  MISS:    5464175  iACCESS:          0  iHIT:          0  iMISS:          0  dACCESS:   44444401  dHIT:   39513079  dMISS:    4931322  itACCESS:      62661  itHIT:       5136  itMISS:      57525  dtACCESS:     499917  dtHIT:      24589  dtMISS:     475328
cpu0_L1D LOAD         ACCESS:   20353145  HIT:   18137423  MISS:    2215722  iACCESS:          0  iHIT:          0  iMISS:          0  dACCESS:   20353145  dHIT:   18137423  dMISS:    2215722  itACCESS:          0  itHIT:          0  itMISS:          0  dtACCESS:          0  dtHIT:          0  dtMISS:          0
cpu0_L1D RFO          ACCESS:          0  HIT:          0  MISS:          0  iACCESS:          0  iHIT:          0  iMISS:          0  dACCESS:          0  dHIT:          0  dMISS:          0  itACCESS:          0  itHIT:          0  itMISS:          0  dtACCESS:          0  dtHIT:          0  dtMISS:          0
cpu0_L1D PREFETCH     ACCESS:   13982791  HIT:   11842863  MISS:    2139928  iACCESS:          0  iHIT:          0  iMISS:          0  dACCESS:   13982791  dHIT:   11842863  dMISS:    2139928  itACCESS:          0  itHIT:          0  itMISS:          0  dtACCESS:          0  dtHIT:          0  dtMISS:          0
cpu0_L1D WRITE        ACCESS:   10108465  HIT:    9532793  MISS:     575672  iACCESS:          0  iHIT:          0  iMISS:          0  dACCESS:   10108465  dHIT:    9532793  dMISS:     575672  itACCESS:          0  itHIT:          0  itMISS:          0  dtACCESS:          0  dtHIT:          0  dtMISS:          0
cpu0_L1D TRANSLATION  ACCESS:     562578  HIT:      29725  MISS:     532853  iACCESS:          0  iHIT:          0  iMISS:          0  dACCESS:          0  dHIT:          0  dMISS:          0  itACCESS:      62661  itHIT:       5136  itMISS:      57525  dtACCESS:     499917  dtHIT:      24589  dtMISS:     475328
cpu0_L1D PREFETCH  REQUESTED:   20353145  ISSUED:   18719992  CROSSED:          0  USEFUL:     377534  USELESS:     949603
cpu0_L1D AVERAGE iMISS LATENCY: 0 cycles
cpu0_L1D AVERAGE dMISS LATENCY: 49.3673 cycles
cpu0_L1D AVERAGE itMISS LATENCY: 1.42484 cycles
cpu0_L1D AVERAGE dtMISS LATENCY: 8.18432 cycles
cpu0_L1D PAGE CROSSINGS (TLB HIT):         0 
cpu0_L1D PAGE CROSSINGS (TLB MISS):         0 
cpu0_L1D AVERAGE MISS LATENCY: 58.9765 cycles
cpu0_L2C TOTAL       ACCESS:    8687030  HIT:    2475740  MISS:    6211290  iACCESS:    3791430  iHIT:    1376782  iMISS:    2414648  dACCESS:    4387453  dHIT:     865233  dMISS:    3522220  itACCESS:      57275  itHIT:      14171  itMISS:      43104  dtACCESS:     450872  dtHIT:     219554  dtMISS:     231318
cpu0_L2C LOAD         ACCESS:    2082890  HIT:     477332  MISS:    1605558  iACCESS:     845265  iHIT:     275050  iMISS:     570215  dACCESS:    1237625  dHIT:     202282  dMISS:    1035343  itACCESS:          0  itHIT:          0  itMISS:          0  dtACCESS:          0  dtHIT:          0  dtMISS:          0
cpu0_L2C RFO          ACCESS:     218761  HIT:      31973  MISS:     186788  iACCESS:          0  iHIT:          0  iMISS:          0  dACCESS:     218761  dHIT:      31973  dMISS:     186788  itACCESS:          0  itHIT:          0  itMISS:          0  dtACCESS:          0  dtHIT:          0  dtMISS:          0
cpu0_L2C PREFETCH     ACCESS:    5528315  HIT:    1605941  MISS:    3922374  iACCESS:    2946165  iHIT:    1101732  iMISS:    1844433  dACCESS:    2582150  dHIT:     504209  dMISS:    2077941  itACCESS:          0  itHIT:          0  itMISS:          0  dtACCESS:          0  dtHIT:          0  dtMISS:          0
cpu0_L2C WRITE        ACCESS:     348917  HIT:     126769  MISS:     222148  iACCESS:          0  iHIT:          0  iMISS:          0  dACCESS:     348917  dHIT:     126769  dMISS:     222148  itACCESS:          0  itHIT:          0  itMISS:          0  dtACCESS:          0  dtHIT:          0  dtMISS:          0
cpu0_L2C TRANSLATION  ACCESS:     508147  HIT:     233725  MISS:     274422  iACCESS:          0  iHIT:          0  iMISS:          0  dACCESS:          0  dHIT:          0  dMISS:          0  itACCESS:      57275  itHIT:      14171  itMISS:      43104  dtACCESS:     450872  dtHIT:     219554  dtMISS:     231318
cpu0_L2C PREFETCH  REQUESTED:    1497335  ISSUED:    1497329  CROSSED:          0  USEFUL:     377877  USELESS:     440698
cpu0_L2C AVERAGE iMISS LATENCY: 26.7059 cycles
cpu0_L2C AVERAGE dMISS LATENCY: 52.6313 cycles
cpu0_L2C AVERAGE itMISS LATENCY: 1.16328 cycles
cpu0_L2C AVERAGE dtMISS LATENCY: 6.50588 cycles
cpu0_L2C PAGE CROSSINGS (TLB HIT):         0 
cpu0_L2C PAGE CROSSINGS (TLB MISS):         0 
cpu0_L2C AVERAGE MISS LATENCY: 87.0063 cycles
LLC TOTAL       ACCESS:    6073197  HIT:    3572649  MISS:    2500548  iACCESS:    2331089  iHIT:    1572117  iMISS:     758972  dACCESS:    3467686  dHIT:    1953329  dMISS:    1514357  itACCESS:      43104  itHIT:       7320  itMISS:      35784  dtACCESS:     231318  dtHIT:      39883  dtMISS:     191435
LLC LOAD         ACCESS:    1600028  HIT:     991958  MISS:     608070  iACCESS:     568924  iHIT:     410959  iMISS:     157965  dACCESS:    1031104  dHIT:     580999  dMISS:     450105  itACCESS:          0  itHIT:          0  itMISS:          0  dtACCESS:          0  dtHIT:          0  dtMISS:          0
LLC RFO          ACCESS:     186772  HIT:     102205  MISS:      84567  iACCESS:          0  iHIT:          0  iMISS:          0  dACCESS:     186772  dHIT:     102205  dMISS:      84567  itACCESS:          0  itHIT:          0  itMISS:          0  dtACCESS:          0  dtHIT:          0  dtMISS:          0
LLC PREFETCH     ACCESS:    3732254  HIT:    2156045  MISS:    1576209  iACCESS:    1762165  iHIT:    1161158  iMISS:     601007  dACCESS:    1970089  dHIT:     994887  dMISS:     975202  itACCESS:          0  itHIT:          0  itMISS:          0  dtACCESS:          0  dtHIT:          0  dtMISS:          0
LLC WRITE        ACCESS:     279721  HIT:     275238  MISS:       4483  iACCESS:          0  iHIT:          0  iMISS:          0  dACCESS:     279721  dHIT:     275238  dMISS:       4483  itACCESS:          0  itHIT:          0  itMISS:          0  dtACCESS:          0  dtHIT:          0  dtMISS:          0
LLC TRANSLATION  ACCESS:     274422  HIT:      47203  MISS:     227219  iACCESS:          0  iHIT:          0  iMISS:          0  dACCESS:          0  dHIT:          0  dMISS:          0  itACCESS:      43104  itHIT:       7320  itMISS:      35784  dtACCESS:     231318  dtHIT:      39883  dtMISS:     191435
LLC PREFETCH  REQUESTED:          0  ISSUED:          0  CROSSED:          0  USEFUL:          0  USELESS:          0
LLC AVERAGE iMISS LATENCY: 48.2189 cycles
LLC AVERAGE dMISS LATENCY: 106.537 cycles
LLC AVERAGE itMISS LATENCY: 2.54908 cycles
LLC AVERAGE dtMISS LATENCY: 14.3331 cycles
LLC PAGE CROSSINGS (TLB HIT):         0 
LLC PAGE CROSSINGS (TLB MISS):         0 
LLC AVERAGE MISS LATENCY: 171.638 cycles

PageTableWalker TOTAL       ACCESS:     177728  
PageTableWalker AVERAGE LATENCY: 5.99889 cycles
PageTableWalker TOTAL LATENCY: 1066169 cycles

DRAM Statistics
Channel 0
 RQ ROW_BUFFER_HIT:     553890
  ROW_BUFFER_MISS:    1931745
 AVG DBUS CONGESTED CYCLE:    3.65226
 WQ ROW_BUFFER_HIT:      63748
  ROW_BUFFER_MISS:      63075  FULL:          0

