last_page:0x200000000000000
VMEM_RES_CAP:0x100000
PAGE_SIZE:4096
LOG2_PAGE_SIZE:12
LOG2_PAGE_TABLE_SIZE:9
page_table_levels:5
WARNING: physical memory size is smaller than virtual memory size
FDiP enabled with aggresivity 16

*** ChampSim Multicore Out-of-Order Simulator ***

Warmup Instructions: 50000000
Simulation Instructions: 100000000
Number of CPUs: 1
Small page size: 4096
Large page size: 2097152

CPU 0 Bimodal branch predictor
Basic BTB sets: 1024 ways: 8 indirect buffer size: 4096 RAS size: 64
Instruction page size distrubution: 0
Loading instruction page size distribution from /home/bsc/bsc018186/scratch/itp_asplos25_AE/dump/smt_srv207_ap_srv194_ap_1024i.pdst
Data page size distrubution: 0
Loading data page size distribution from /home/bsc/bsc018186/scratch/itp_asplos25_AE/dump/smt_srv207_ap_srv194_ap_1024i.pdst
cpu0_L2C IP-based stride prefetcher
cpu0_L1D next line prefetcher
CHiRPing...
cpu0_L1I next line prefetcher
Off-chip DRAM Size: 4 GiB Channels: 1 Width: 64-bit Data Rate: 3200 MT/s
Heartbeat CPU 0 instructions: 10000003 cycles: 2500553 heartbeat IPC: 3.99912 cumulative IPC: 3.99912 (Simulation time: 0 hr 0 min 45 sec) 
Heartbeat CPU 0 instructions: 20000003 cycles: 5001539 heartbeat IPC: 3.99843 cumulative IPC: 3.99877 (Simulation time: 0 hr 1 min 29 sec) 
Heartbeat CPU 0 instructions: 30000001 cycles: 7502166 heartbeat IPC: 3.999 cumulative IPC: 3.99885 (Simulation time: 0 hr 2 min 12 sec) 
Heartbeat CPU 0 instructions: 40000002 cycles: 10003135 heartbeat IPC: 3.99846 cumulative IPC: 3.99875 (Simulation time: 0 hr 2 min 54 sec) 
Heartbeat CPU 0 instructions: 50000001 cycles: 12580296 heartbeat IPC: 3.88024 cumulative IPC: 3.97447 (Simulation time: 0 hr 3 min 36 sec) 
Warmup finished CPU 0 instructions: 50000001 cycles: 12580297 cumulative IPC: 3.97447 (Simulation time: 0 hr 3 min 36 sec) 

Warmup complete CPU 0 instructions: 50000001 cycles: 12580297 (Simulation time: 0 hr 3 min 36 sec) 

Heartbeat CPU 0 instructions: 60000003 cycles: 29354517 heartbeat IPC: 0.596153 cumulative IPC: 0.596154 (Simulation time: 0 hr 4 min 47 sec) 
Heartbeat CPU 0 instructions: 70000002 cycles: 50872295 heartbeat IPC: 0.464732 cumulative IPC: 0.522303 (Simulation time: 0 hr 6 min 5 sec) 
Heartbeat CPU 0 instructions: 80000002 cycles: 83745756 heartbeat IPC: 0.304197 cumulative IPC: 0.421553 (Simulation time: 0 hr 7 min 37 sec) 
Heartbeat CPU 0 instructions: 90000000 cycles: 116484226 heartbeat IPC: 0.305451 cumulative IPC: 0.384971 (Simulation time: 0 hr 9 min 15 sec) 
Heartbeat CPU 0 instructions: 100000004 cycles: 148273582 heartbeat IPC: 0.314571 cumulative IPC: 0.368479 (Simulation time: 0 hr 10 min 50 sec) 
Heartbeat CPU 0 instructions: 110000000 cycles: 179268587 heartbeat IPC: 0.322633 cumulative IPC: 0.359954 (Simulation time: 0 hr 12 min 19 sec) 
Heartbeat CPU 0 instructions: 120000003 cycles: 211477096 heartbeat IPC: 0.310478 cumulative IPC: 0.351942 (Simulation time: 0 hr 13 min 53 sec) 
Heartbeat CPU 0 instructions: 130000000 cycles: 244057323 heartbeat IPC: 0.306935 cumulative IPC: 0.345607 (Simulation time: 0 hr 15 min 39 sec) 
Heartbeat CPU 0 instructions: 140000001 cycles: 278002773 heartbeat IPC: 0.294591 cumulative IPC: 0.339083 (Simulation time: 0 hr 17 min 27 sec) 
Heartbeat CPU 0 instructions: 150000000 cycles: 310331011 heartbeat IPC: 0.309328 cumulative IPC: 0.335852 (Simulation time: 0 hr 19 min 12 sec) 
Simulation finished CPU 0 instructions: 100000004 cycles: 297750716 cumulative IPC: 0.335852 (Simulation time: 0 hr 19 min 12 sec) 

Simulation complete CPU 0 instructions: 100000004 cycles: 297750716 (Simulation time: 0 hr 19 min 12 sec) 


ChampSim completed all CPUs

Saving instructions large page distribution to /home/bsc/bsc018186/scratch/itp_asplos25_AE/dump/smt_srv207_ap_srv194_ap_1024i.pdst...
Saving data large page distribution to /home/bsc/bsc018186/scratch/itp_asplos25_AE/dump/smt_srv207_ap_srv194_ap_1024i.pdst...
=== Simulation ===
CPU 0 runs /gpfs/projects/bsc18/MN4/bsc18/romol/ChampSim/traces/qualcomm_srv/smt_srv207_ap_srv194_ap_1024i.champsimtrace.xz

Region of Interest Statistics

CPU 0 cumulative IPC: 0.335852 instructions: 100000004 cycles: 297750716
CPU 0 Branch Prediction Accuracy: 76.7046% MPKI: 44.3035 Average ROB Occupancy at Mispredict: 10.891
Branch type MPKI
BRANCH_DIRECT_JUMP: 1.35564
BRANCH_INDIRECT: 23.8841
BRANCH_CONDITIONAL: 11.9395
BRANCH_DIRECT_CALL: 2.55225
BRANCH_INDIRECT_CALL: 1.1185
BRANCH_RETURN: 3.45359

Instructions large pages: 0
Instructions small pages: 12690
Large page distribution for instructions: 0%

Data large pages: 0
Data small pages: 10928
Large page distribution for data: 0%

cpu0_L1I TOTAL       ACCESS:   39472823  HIT:   31199545  MISS:    8273278  iACCESS:   39472823  iHIT:   31199545  iMISS:    8273278  dACCESS:          0  dHIT:          0  dMISS:          0  itACCESS:          0  itHIT:          0  itMISS:          0  dtACCESS:          0  dtHIT:          0  dtMISS:          0
cpu0_L1I LOAD         ACCESS:   11220710  HIT:    8948352  MISS:    2272358  iACCESS:   11220710  iHIT:    8948352  iMISS:    2272358  dACCESS:          0  dHIT:          0  dMISS:          0  itACCESS:          0  itHIT:          0  itMISS:          0  dtACCESS:          0  dtHIT:          0  dtMISS:          0
cpu0_L1I RFO          ACCESS:          0  HIT:          0  MISS:          0  iACCESS:          0  iHIT:          0  iMISS:          0  dACCESS:          0  dHIT:          0  dMISS:          0  itACCESS:          0  itHIT:          0  itMISS:          0  dtACCESS:          0  dtHIT:          0  dtMISS:          0
cpu0_L1I PREFETCH     ACCESS:   28252113  HIT:   22251193  MISS:    6000920  iACCESS:   28252113  iHIT:   22251193  iMISS:    6000920  dACCESS:          0  dHIT:          0  dMISS:          0  itACCESS:          0  itHIT:          0  itMISS:          0  dtACCESS:          0  dtHIT:          0  dtMISS:          0
cpu0_L1I WRITE        ACCESS:          0  HIT:          0  MISS:          0  iACCESS:          0  iHIT:          0  iMISS:          0  dACCESS:          0  dHIT:          0  dMISS:          0  itACCESS:          0  itHIT:          0  itMISS:          0  dtACCESS:          0  dtHIT:          0  dtMISS:          0
cpu0_L1I TRANSLATION  ACCESS:          0  HIT:          0  MISS:          0  iACCESS:          0  iHIT:          0  iMISS:          0  dACCESS:          0  dHIT:          0  dMISS:          0  itACCESS:          0  itHIT:          0  itMISS:          0  dtACCESS:          0  dtHIT:          0  dtMISS:          0
cpu0_L1I PREFETCH  REQUESTED:   30801062  ISSUED:   30801059  CROSSED:          0  USEFUL:    2072093  USELESS:     773940
cpu0_L1I AVERAGE iMISS LATENCY: 24.842 cycles
cpu0_L1I AVERAGE dMISS LATENCY: 0 cycles
cpu0_L1I AVERAGE itMISS LATENCY: 0 cycles
cpu0_L1I AVERAGE dtMISS LATENCY: 0 cycles
cpu0_L1I PAGE CROSSINGS (TLB HIT):         0 
cpu0_L1I PAGE CROSSINGS (TLB MISS):         0 
cpu0_L1I AVERAGE MISS LATENCY: 24.842 cycles
cpu0_ITLB TOTAL       ACCESS:   33473963  HIT:   31282704  MISS:    2191259  iACCESS:   33473963  iHIT:   31282704  iMISS:    2191259  dACCESS:          0  dHIT:          0  dMISS:          0  itACCESS:          0  itHIT:          0  itMISS:          0  dtACCESS:          0  dtHIT:          0  dtMISS:          0
cpu0_ITLB LOAD         ACCESS:   33473963  HIT:   31282704  MISS:    2191259  iACCESS:   33473963  iHIT:   31282704  iMISS:    2191259  dACCESS:          0  dHIT:          0  dMISS:          0  itACCESS:          0  itHIT:          0  itMISS:          0  dtACCESS:          0  dtHIT:          0  dtMISS:          0
cpu0_ITLB RFO          ACCESS:          0  HIT:          0  MISS:          0  iACCESS:          0  iHIT:          0  iMISS:          0  dACCESS:          0  dHIT:          0  dMISS:          0  itACCESS:          0  itHIT:          0  itMISS:          0  dtACCESS:          0  dtHIT:          0  dtMISS:          0
cpu0_ITLB PREFETCH     ACCESS:          0  HIT:          0  MISS:          0  iACCESS:          0  iHIT:          0  iMISS:          0  dACCESS:          0  dHIT:          0  dMISS:          0  itACCESS:          0  itHIT:          0  itMISS:          0  dtACCESS:          0  dtHIT:          0  dtMISS:          0
cpu0_ITLB WRITE        ACCESS:          0  HIT:          0  MISS:          0  iACCESS:          0  iHIT:          0  iMISS:          0  dACCESS:          0  dHIT:          0  dMISS:          0  itACCESS:          0  itHIT:          0  itMISS:          0  dtACCESS:          0  dtHIT:          0  dtMISS:          0
cpu0_ITLB TRANSLATION  ACCESS:          0  HIT:          0  MISS:          0  iACCESS:          0  iHIT:          0  iMISS:          0  dACCESS:          0  dHIT:          0  dMISS:          0  itACCESS:          0  itHIT:          0  itMISS:          0  dtACCESS:          0  dtHIT:          0  dtMISS:          0
cpu0_ITLB PREFETCH  REQUESTED:          0  ISSUED:          0  CROSSED:          0  USEFUL:     384283  USELESS:      84387
cpu0_ITLB AVERAGE iMISS LATENCY: 10.7798 cycles
cpu0_ITLB AVERAGE dMISS LATENCY: 0 cycles
cpu0_ITLB AVERAGE itMISS LATENCY: 0 cycles
cpu0_ITLB AVERAGE dtMISS LATENCY: 0 cycles
cpu0_ITLB PAGE CROSSINGS (TLB HIT):         0 
cpu0_ITLB PAGE CROSSINGS (TLB MISS):         0 
cpu0_ITLB AVERAGE MISS LATENCY: 10.7798 cycles
cpu0_DTLB TOTAL       ACCESS:   30660359  HIT:   25472097  MISS:    5188262  iACCESS:          0  iHIT:          0  iMISS:          0  dACCESS:   30660359  dHIT:   25472097  dMISS:    5188262  itACCESS:          0  itHIT:          0  itMISS:          0  dtACCESS:          0  dtHIT:          0  dtMISS:          0
cpu0_DTLB LOAD         ACCESS:   30660359  HIT:   25472097  MISS:    5188262  iACCESS:          0  iHIT:          0  iMISS:          0  dACCESS:   30660359  dHIT:   25472097  dMISS:    5188262  itACCESS:          0  itHIT:          0  itMISS:          0  dtACCESS:          0  dtHIT:          0  dtMISS:          0
cpu0_DTLB RFO          ACCESS:          0  HIT:          0  MISS:          0  iACCESS:          0  iHIT:          0  iMISS:          0  dACCESS:          0  dHIT:          0  dMISS:          0  itACCESS:          0  itHIT:          0  itMISS:          0  dtACCESS:          0  dtHIT:          0  dtMISS:          0
cpu0_DTLB PREFETCH     ACCESS:          0  HIT:          0  MISS:          0  iACCESS:          0  iHIT:          0  iMISS:          0  dACCESS:          0  dHIT:          0  dMISS:          0  itACCESS:          0  itHIT:          0  itMISS:          0  dtACCESS:          0  dtHIT:          0  dtMISS:          0
cpu0_DTLB WRITE        ACCESS:          0  HIT:          0  MISS:          0  iACCESS:          0  iHIT:          0  iMISS:          0  dACCESS:          0  dHIT:          0  dMISS:          0  itACCESS:          0  itHIT:          0  itMISS:          0  dtACCESS:          0  dtHIT:          0  dtMISS:          0
cpu0_DTLB TRANSLATION  ACCESS:          0  HIT:          0  MISS:          0  iACCESS:          0  iHIT:          0  iMISS:          0  dACCESS:          0  dHIT:          0  dMISS:          0  itACCESS:          0  itHIT:          0  itMISS:          0  dtACCESS:          0  dtHIT:          0  dtMISS:          0
cpu0_DTLB PREFETCH  REQUESTED:          0  ISSUED:          0  CROSSED:          0  USEFUL:          0  USELESS:          0
cpu0_DTLB AVERAGE iMISS LATENCY: 0 cycles
cpu0_DTLB AVERAGE dMISS LATENCY: 18.0577 cycles
cpu0_DTLB AVERAGE itMISS LATENCY: 0 cycles
cpu0_DTLB AVERAGE dtMISS LATENCY: 0 cycles
cpu0_DTLB PAGE CROSSINGS (TLB HIT):         0 
cpu0_DTLB PAGE CROSSINGS (TLB MISS):         0 
cpu0_DTLB AVERAGE MISS LATENCY: 18.0577 cycles
cpu0_STLB TOTAL       ACCESS:    3301892  HIT:    2936498  MISS:     365394  iACCESS:     468669  iHIT:     356113  iMISS:     112556  dACCESS:    2833223  dHIT:    2580385  dMISS:     252838  itACCESS:          0  itHIT:          0  itMISS:          0  dtACCESS:          0  dtHIT:          0  dtMISS:          0
cpu0_STLB LOAD         ACCESS:    3301892  HIT:    2936498  MISS:     365394  iACCESS:     468669  iHIT:     356113  iMISS:     112556  dACCESS:    2833223  dHIT:    2580385  dMISS:     252838  itACCESS:          0  itHIT:          0  itMISS:          0  dtACCESS:          0  dtHIT:          0  dtMISS:          0
cpu0_STLB RFO          ACCESS:          0  HIT:          0  MISS:          0  iACCESS:          0  iHIT:          0  iMISS:          0  dACCESS:          0  dHIT:          0  dMISS:          0  itACCESS:          0  itHIT:          0  itMISS:          0  dtACCESS:          0  dtHIT:          0  dtMISS:          0
cpu0_STLB PREFETCH     ACCESS:          0  HIT:          0  MISS:          0  iACCESS:          0  iHIT:          0  iMISS:          0  dACCESS:          0  dHIT:          0  dMISS:          0  itACCESS:          0  itHIT:          0  itMISS:          0  dtACCESS:          0  dtHIT:          0  dtMISS:          0
cpu0_STLB WRITE        ACCESS:          0  HIT:          0  MISS:          0  iACCESS:          0  iHIT:          0  iMISS:          0  dACCESS:          0  dHIT:          0  dMISS:          0  itACCESS:          0  itHIT:          0  itMISS:          0  dtACCESS:          0  dtHIT:          0  dtMISS:          0
cpu0_STLB TRANSLATION  ACCESS:          0  HIT:          0  MISS:          0  iACCESS:          0  iHIT:          0  iMISS:          0  dACCESS:          0  dHIT:          0  dMISS:          0  itACCESS:          0  itHIT:          0  itMISS:          0  dtACCESS:          0  dtHIT:          0  dtMISS:          0
cpu0_STLB PREFETCH  REQUESTED:          0  ISSUED:          0  CROSSED:          0  USEFUL:          0  USELESS:          0
cpu0_STLB AVERAGE iMISS LATENCY: 54.3899 cycles
cpu0_STLB AVERAGE dMISS LATENCY: 193.67 cycles
cpu0_STLB AVERAGE itMISS LATENCY: 0 cycles
cpu0_STLB AVERAGE dtMISS LATENCY: 0 cycles
cpu0_STLB PAGE CROSSINGS (TLB HIT):         0 
cpu0_STLB PAGE CROSSINGS (TLB MISS):         0 
cpu0_STLB AVERAGE MISS LATENCY: 248.06 cycles
cpu0_L1D TOTAL       ACCESS:   47982155  HIT:   40165975  MISS:    7816180  iACCESS:          0  iHIT:          0  iMISS:          0  dACCESS:   47448229  dHIT:   40135999  dMISS:    7312230  itACCESS:     126548  itHIT:      12652  itMISS:     113896  dtACCESS:     407378  dtHIT:      17324  dtMISS:     390054
cpu0_L1D LOAD         ACCESS:   22397218  HIT:   18517244  MISS:    3879974  iACCESS:          0  iHIT:          0  iMISS:          0  dACCESS:   22397218  dHIT:   18517244  dMISS:    3879974  itACCESS:          0  itHIT:          0  itMISS:          0  dtACCESS:          0  dtHIT:          0  dtMISS:          0
cpu0_L1D RFO          ACCESS:          0  HIT:          0  MISS:          0  iACCESS:          0  iHIT:          0  iMISS:          0  dACCESS:          0  dHIT:          0  dMISS:          0  itACCESS:          0  itHIT:          0  itMISS:          0  dtACCESS:          0  dtHIT:          0  dtMISS:          0
cpu0_L1D PREFETCH     ACCESS:   15016963  HIT:   12222541  MISS:    2794422  iACCESS:          0  iHIT:          0  iMISS:          0  dACCESS:   15016963  dHIT:   12222541  dMISS:    2794422  itACCESS:          0  itHIT:          0  itMISS:          0  dtACCESS:          0  dtHIT:          0  dtMISS:          0
cpu0_L1D WRITE        ACCESS:   10034048  HIT:    9396214  MISS:     637834  iACCESS:          0  iHIT:          0  iMISS:          0  dACCESS:   10034048  dHIT:    9396214  dMISS:     637834  itACCESS:          0  itHIT:          0  itMISS:          0  dtACCESS:          0  dtHIT:          0  dtMISS:          0
cpu0_L1D TRANSLATION  ACCESS:     533926  HIT:      29976  MISS:     503950  iACCESS:          0  iHIT:          0  iMISS:          0  dACCESS:          0  dHIT:          0  dMISS:          0  itACCESS:     126548  itHIT:      12652  itMISS:     113896  dtACCESS:     407378  dtHIT:      17324  dtMISS:     390054
cpu0_L1D PREFETCH  REQUESTED:   22397218  ISSUED:   19245450  CROSSED:          0  USEFUL:     350530  USELESS:    1074407
cpu0_L1D AVERAGE iMISS LATENCY: 0 cycles
cpu0_L1D AVERAGE dMISS LATENCY: 38.7415 cycles
cpu0_L1D AVERAGE itMISS LATENCY: 2.40707 cycles
cpu0_L1D AVERAGE dtMISS LATENCY: 8.50057 cycles
cpu0_L1D PAGE CROSSINGS (TLB HIT):         0 
cpu0_L1D PAGE CROSSINGS (TLB MISS):         0 
cpu0_L1D AVERAGE MISS LATENCY: 49.6492 cycles
cpu0_L2C TOTAL       ACCESS:    9685537  HIT:    5478777  MISS:    4206760  iACCESS:    3644173  iHIT:    2223275  iMISS:    1420898  dACCESS:    5571786  dHIT:    3201167  dMISS:    2370619  itACCESS:     113572  itHIT:      18438  itMISS:      95134  dtACCESS:     356006  dtHIT:      35897  dtMISS:     320109
cpu0_L2C LOAD         ACCESS:    3218703  HIT:    2198800  MISS:    1019903  iACCESS:     827936  iHIT:     530864  iMISS:     297072  dACCESS:    2390767  dHIT:    1667936  dMISS:     722831  itACCESS:          0  itHIT:          0  itMISS:          0  dtACCESS:          0  dtHIT:          0  dtMISS:          0
cpu0_L2C RFO          ACCESS:     248132  HIT:     119227  MISS:     128905  iACCESS:          0  iHIT:          0  iMISS:          0  dACCESS:     248132  dHIT:     119227  dMISS:     128905  itACCESS:          0  itHIT:          0  itMISS:          0  dtACCESS:          0  dtHIT:          0  dtMISS:          0
cpu0_L2C PREFETCH     ACCESS:    5409618  HIT:    2769900  MISS:    2639718  iACCESS:    2816237  iHIT:    1692411  iMISS:    1123826  dACCESS:    2593381  dHIT:    1077489  dMISS:    1515892  itACCESS:          0  itHIT:          0  itMISS:          0  dtACCESS:          0  dtHIT:          0  dtMISS:          0
cpu0_L2C WRITE        ACCESS:     339506  HIT:     336515  MISS:       2991  iACCESS:          0  iHIT:          0  iMISS:          0  dACCESS:     339506  dHIT:     336515  dMISS:       2991  itACCESS:          0  itHIT:          0  itMISS:          0  dtACCESS:          0  dtHIT:          0  dtMISS:          0
cpu0_L2C TRANSLATION  ACCESS:     469578  HIT:      54335  MISS:     415243  iACCESS:          0  iHIT:          0  iMISS:          0  dACCESS:          0  dHIT:          0  dMISS:          0  itACCESS:     113572  itHIT:      18438  itMISS:      95134  dtACCESS:     356006  dtHIT:      35897  dtMISS:     320109
cpu0_L2C PREFETCH  REQUESTED:    1379512  ISSUED:    1379496  CROSSED:          0  USEFUL:     307896  USELESS:     297060
cpu0_L2C AVERAGE iMISS LATENCY: 41.6968 cycles
cpu0_L2C AVERAGE dMISS LATENCY: 82.1995 cycles
cpu0_L2C AVERAGE itMISS LATENCY: 4.20598 cycles
cpu0_L2C AVERAGE dtMISS LATENCY: 14.9516 cycles
cpu0_L2C PAGE CROSSINGS (TLB HIT):         0 
cpu0_L2C PAGE CROSSINGS (TLB MISS):         0 
cpu0_L2C AVERAGE MISS LATENCY: 143.054 cycles
LLC TOTAL       ACCESS:    4212582  HIT:    1203464  MISS:    3009118  iACCESS:    1346798  iHIT:     414399  iMISS:     932399  dACCESS:    2450541  dHIT:     751755  dMISS:    1698786  itACCESS:      95134  itHIT:       6970  itMISS:      88164  dtACCESS:     320109  dtHIT:      30340  dtMISS:     289769
LLC LOAD         ACCESS:    1011975  HIT:     297229  MISS:     714746  iACCESS:     296030  iHIT:      96692  iMISS:     199338  dACCESS:     715945  dHIT:     200537  dMISS:     515408  itACCESS:          0  itHIT:          0  itMISS:          0  dtACCESS:          0  dtHIT:          0  dtMISS:          0
LLC RFO          ACCESS:     128900  HIT:      34373  MISS:      94527  iACCESS:          0  iHIT:          0  iMISS:          0  dACCESS:     128900  dHIT:      34373  dMISS:      94527  itACCESS:          0  itHIT:          0  itMISS:          0  dtACCESS:          0  dtHIT:          0  dtMISS:          0
LLC PREFETCH     ACCESS:    2462381  HIT:     650176  MISS:    1812205  iACCESS:    1050768  iHIT:     317707  iMISS:     733061  dACCESS:    1411613  dHIT:     332469  dMISS:    1079144  itACCESS:          0  itHIT:          0  itMISS:          0  dtACCESS:          0  dtHIT:          0  dtMISS:          0
LLC WRITE        ACCESS:     194083  HIT:     184376  MISS:       9707  iACCESS:          0  iHIT:          0  iMISS:          0  dACCESS:     194083  dHIT:     184376  dMISS:       9707  itACCESS:          0  itHIT:          0  itMISS:          0  dtACCESS:          0  dtHIT:          0  dtMISS:          0
LLC TRANSLATION  ACCESS:     415243  HIT:      37310  MISS:     377933  iACCESS:          0  iHIT:          0  iMISS:          0  dACCESS:          0  dHIT:          0  dMISS:          0  itACCESS:      95134  itHIT:       6970  itMISS:      88164  dtACCESS:     320109  dtHIT:      30340  dtMISS:     289769
LLC PREFETCH  REQUESTED:          0  ISSUED:          0  CROSSED:          0  USEFUL:          0  USELESS:          0
LLC AVERAGE iMISS LATENCY: 49.473 cycles
LLC AVERAGE dMISS LATENCY: 101.016 cycles
LLC AVERAGE itMISS LATENCY: 5.25301 cycles
LLC AVERAGE dtMISS LATENCY: 18.7987 cycles
LLC PAGE CROSSINGS (TLB HIT):         0 
LLC PAGE CROSSINGS (TLB MISS):         0 
LLC AVERAGE MISS LATENCY: 174.54 cycles

PageTableWalker TOTAL       ACCESS:     175595  
PageTableWalker AVERAGE LATENCY: 6.54265 cycles
PageTableWalker TOTAL LATENCY: 1148856 cycles

DRAM Statistics
Channel 0
 RQ ROW_BUFFER_HIT:     608029
  ROW_BUFFER_MISS:    2373017
 AVG DBUS CONGESTED CYCLE:     3.6511
 WQ ROW_BUFFER_HIT:      63887
  ROW_BUFFER_MISS:      55980  FULL:          0

