last_page:0x200000000000000
VMEM_RES_CAP:0x100000
PAGE_SIZE:4096
LOG2_PAGE_SIZE:12
LOG2_PAGE_TABLE_SIZE:9
page_table_levels:5
WARNING: physical memory size is smaller than virtual memory size
FDiP enabled with aggresivity 16

*** ChampSim Multicore Out-of-Order Simulator ***

Warmup Instructions: 50000000
Simulation Instructions: 100000000
Number of CPUs: 1
Small page size: 4096
Large page size: 2097152

CPU 0 Bimodal branch predictor
Basic BTB sets: 1024 ways: 8 indirect buffer size: 4096 RAS size: 64
Instruction page size distrubution: 0
Loading instruction page size distribution from /home/bsc/bsc018186/scratch/itp_asplos25_AE/dump/smt_srv12_ap_srv259_ap_1024i.pdst
Data page size distrubution: 0
Loading data page size distribution from /home/bsc/bsc018186/scratch/itp_asplos25_AE/dump/smt_srv12_ap_srv259_ap_1024i.pdst
cpu0_L2C IP-based stride prefetcher
cpu0_L1D next line prefetcher
CHiRPing...
cpu0_L1I next line prefetcher
Off-chip DRAM Size: 4 GiB Channels: 1 Width: 64-bit Data Rate: 3200 MT/s
Heartbeat CPU 0 instructions: 10000003 cycles: 2500556 heartbeat IPC: 3.99912 cumulative IPC: 3.99912 (Simulation time: 0 hr 0 min 46 sec) 
Heartbeat CPU 0 instructions: 20000003 cycles: 5000867 heartbeat IPC: 3.99951 cumulative IPC: 3.99931 (Simulation time: 0 hr 1 min 33 sec) 
Heartbeat CPU 0 instructions: 30000001 cycles: 7501579 heartbeat IPC: 3.99887 cumulative IPC: 3.99916 (Simulation time: 0 hr 2 min 22 sec) 
Heartbeat CPU 0 instructions: 40000003 cycles: 10002076 heartbeat IPC: 3.99921 cumulative IPC: 3.99918 (Simulation time: 0 hr 3 min 10 sec) 
Heartbeat CPU 0 instructions: 50000001 cycles: 12502482 heartbeat IPC: 3.99935 cumulative IPC: 3.99921 (Simulation time: 0 hr 3 min 56 sec) 
Warmup finished CPU 0 instructions: 50000001 cycles: 12502483 cumulative IPC: 3.99921 (Simulation time: 0 hr 3 min 56 sec) 

Warmup complete CPU 0 instructions: 50000001 cycles: 12502483 (Simulation time: 0 hr 3 min 56 sec) 

Heartbeat CPU 0 instructions: 60000000 cycles: 42549945 heartbeat IPC: 0.332807 cumulative IPC: 0.332807 (Simulation time: 0 hr 5 min 36 sec) 
Heartbeat CPU 0 instructions: 70000002 cycles: 73418389 heartbeat IPC: 0.323956 cumulative IPC: 0.328322 (Simulation time: 0 hr 7 min 19 sec) 
Heartbeat CPU 0 instructions: 80000001 cycles: 103683995 heartbeat IPC: 0.330409 cumulative IPC: 0.329015 (Simulation time: 0 hr 9 min 0 sec) 
Heartbeat CPU 0 instructions: 90000001 cycles: 130022166 heartbeat IPC: 0.379678 cumulative IPC: 0.340369 (Simulation time: 0 hr 10 min 34 sec) 
Heartbeat CPU 0 instructions: 100000000 cycles: 160807923 heartbeat IPC: 0.324826 cumulative IPC: 0.337143 (Simulation time: 0 hr 12 min 17 sec) 
Heartbeat CPU 0 instructions: 110000002 cycles: 190661863 heartbeat IPC: 0.334965 cumulative IPC: 0.336778 (Simulation time: 0 hr 13 min 51 sec) 
Heartbeat CPU 0 instructions: 120000004 cycles: 219607677 heartbeat IPC: 0.345474 cumulative IPC: 0.337993 (Simulation time: 0 hr 15 min 18 sec) 
Heartbeat CPU 0 instructions: 130000002 cycles: 248861852 heartbeat IPC: 0.341832 cumulative IPC: 0.338468 (Simulation time: 0 hr 16 min 45 sec) 
Heartbeat CPU 0 instructions: 140000000 cycles: 278506582 heartbeat IPC: 0.337329 cumulative IPC: 0.338341 (Simulation time: 0 hr 18 min 13 sec) 
Heartbeat CPU 0 instructions: 150000002 cycles: 308404954 heartbeat IPC: 0.334467 cumulative IPC: 0.33795 (Simulation time: 0 hr 19 min 41 sec) 
Simulation finished CPU 0 instructions: 100000001 cycles: 295902472 cumulative IPC: 0.33795 (Simulation time: 0 hr 19 min 41 sec) 

Simulation complete CPU 0 instructions: 100000001 cycles: 295902472 (Simulation time: 0 hr 19 min 41 sec) 


ChampSim completed all CPUs

Saving instructions large page distribution to /home/bsc/bsc018186/scratch/itp_asplos25_AE/dump/smt_srv12_ap_srv259_ap_1024i.pdst...
Saving data large page distribution to /home/bsc/bsc018186/scratch/itp_asplos25_AE/dump/smt_srv12_ap_srv259_ap_1024i.pdst...
=== Simulation ===
CPU 0 runs /gpfs/projects/bsc18/MN4/bsc18/romol/ChampSim/traces/qualcomm_srv/smt_srv12_ap_srv259_ap_1024i.champsimtrace.xz

Region of Interest Statistics

CPU 0 cumulative IPC: 0.33795 instructions: 100000001 cycles: 295902472
CPU 0 Branch Prediction Accuracy: 75.8292% MPKI: 43.7686 Average ROB Occupancy at Mispredict: 11.0372
Branch type MPKI
BRANCH_DIRECT_JUMP: 1.39258
BRANCH_INDIRECT: 22.954
BRANCH_CONDITIONAL: 12.2272
BRANCH_DIRECT_CALL: 2.61101
BRANCH_INDIRECT_CALL: 1.11504
BRANCH_RETURN: 3.46884

Instructions large pages: 0
Instructions small pages: 11133
Large page distribution for instructions: 0%

Data large pages: 0
Data small pages: 9495
Large page distribution for data: 0%

cpu0_L1I TOTAL       ACCESS:   38886741  HIT:   30192181  MISS:    8694560  iACCESS:   38886741  iHIT:   30192181  iMISS:    8694560  dACCESS:          0  dHIT:          0  dMISS:          0  itACCESS:          0  itHIT:          0  itMISS:          0  dtACCESS:          0  dtHIT:          0  dtMISS:          0
cpu0_L1I LOAD         ACCESS:   11611543  HIT:    9229704  MISS:    2381839  iACCESS:   11611543  iHIT:    9229704  iMISS:    2381839  dACCESS:          0  dHIT:          0  dMISS:          0  itACCESS:          0  itHIT:          0  itMISS:          0  dtACCESS:          0  dtHIT:          0  dtMISS:          0
cpu0_L1I RFO          ACCESS:          0  HIT:          0  MISS:          0  iACCESS:          0  iHIT:          0  iMISS:          0  dACCESS:          0  dHIT:          0  dMISS:          0  itACCESS:          0  itHIT:          0  itMISS:          0  dtACCESS:          0  dtHIT:          0  dtMISS:          0
cpu0_L1I PREFETCH     ACCESS:   27275198  HIT:   20962477  MISS:    6312721  iACCESS:   27275198  iHIT:   20962477  iMISS:    6312721  dACCESS:          0  dHIT:          0  dMISS:          0  itACCESS:          0  itHIT:          0  itMISS:          0  dtACCESS:          0  dtHIT:          0  dtMISS:          0
cpu0_L1I WRITE        ACCESS:          0  HIT:          0  MISS:          0  iACCESS:          0  iHIT:          0  iMISS:          0  dACCESS:          0  dHIT:          0  dMISS:          0  itACCESS:          0  itHIT:          0  itMISS:          0  dtACCESS:          0  dtHIT:          0  dtMISS:          0
cpu0_L1I TRANSLATION  ACCESS:          0  HIT:          0  MISS:          0  iACCESS:          0  iHIT:          0  iMISS:          0  dACCESS:          0  dHIT:          0  dMISS:          0  itACCESS:          0  itHIT:          0  itMISS:          0  dtACCESS:          0  dtHIT:          0  dtMISS:          0
cpu0_L1I PREFETCH  REQUESTED:   30095252  ISSUED:   30095248  CROSSED:          0  USEFUL:    2201107  USELESS:     766907
cpu0_L1I AVERAGE iMISS LATENCY: 23.0232 cycles
cpu0_L1I AVERAGE dMISS LATENCY: 0 cycles
cpu0_L1I AVERAGE itMISS LATENCY: 0 cycles
cpu0_L1I AVERAGE dtMISS LATENCY: 0 cycles
cpu0_L1I PAGE CROSSINGS (TLB HIT):         0 
cpu0_L1I PAGE CROSSINGS (TLB MISS):         0 
cpu0_L1I AVERAGE MISS LATENCY: 23.0232 cycles
cpu0_ITLB TOTAL       ACCESS:   32908300  HIT:   30655887  MISS:    2252413  iACCESS:   32908300  iHIT:   30655887  iMISS:    2252413  dACCESS:          0  dHIT:          0  dMISS:          0  itACCESS:          0  itHIT:          0  itMISS:          0  dtACCESS:          0  dtHIT:          0  dtMISS:          0
cpu0_ITLB LOAD         ACCESS:   32908300  HIT:   30655887  MISS:    2252413  iACCESS:   32908300  iHIT:   30655887  iMISS:    2252413  dACCESS:          0  dHIT:          0  dMISS:          0  itACCESS:          0  itHIT:          0  itMISS:          0  dtACCESS:          0  dtHIT:          0  dtMISS:          0
cpu0_ITLB RFO          ACCESS:          0  HIT:          0  MISS:          0  iACCESS:          0  iHIT:          0  iMISS:          0  dACCESS:          0  dHIT:          0  dMISS:          0  itACCESS:          0  itHIT:          0  itMISS:          0  dtACCESS:          0  dtHIT:          0  dtMISS:          0
cpu0_ITLB PREFETCH     ACCESS:          0  HIT:          0  MISS:          0  iACCESS:          0  iHIT:          0  iMISS:          0  dACCESS:          0  dHIT:          0  dMISS:          0  itACCESS:          0  itHIT:          0  itMISS:          0  dtACCESS:          0  dtHIT:          0  dtMISS:          0
cpu0_ITLB WRITE        ACCESS:          0  HIT:          0  MISS:          0  iACCESS:          0  iHIT:          0  iMISS:          0  dACCESS:          0  dHIT:          0  dMISS:          0  itACCESS:          0  itHIT:          0  itMISS:          0  dtACCESS:          0  dtHIT:          0  dtMISS:          0
cpu0_ITLB TRANSLATION  ACCESS:          0  HIT:          0  MISS:          0  iACCESS:          0  iHIT:          0  iMISS:          0  dACCESS:          0  dHIT:          0  dMISS:          0  itACCESS:          0  itHIT:          0  itMISS:          0  dtACCESS:          0  dtHIT:          0  dtMISS:          0
cpu0_ITLB PREFETCH  REQUESTED:          0  ISSUED:          0  CROSSED:          0  USEFUL:     389132  USELESS:      81932
cpu0_ITLB AVERAGE iMISS LATENCY: 10.5729 cycles
cpu0_ITLB AVERAGE dMISS LATENCY: 0 cycles
cpu0_ITLB AVERAGE itMISS LATENCY: 0 cycles
cpu0_ITLB AVERAGE dtMISS LATENCY: 0 cycles
cpu0_ITLB PAGE CROSSINGS (TLB HIT):         0 
cpu0_ITLB PAGE CROSSINGS (TLB MISS):         0 
cpu0_ITLB AVERAGE MISS LATENCY: 10.5729 cycles
cpu0_DTLB TOTAL       ACCESS:   28903560  HIT:   25352202  MISS:    3551358  iACCESS:          0  iHIT:          0  iMISS:          0  dACCESS:   28903560  dHIT:   25352202  dMISS:    3551358  itACCESS:          0  itHIT:          0  itMISS:          0  dtACCESS:          0  dtHIT:          0  dtMISS:          0
cpu0_DTLB LOAD         ACCESS:   28903560  HIT:   25352202  MISS:    3551358  iACCESS:          0  iHIT:          0  iMISS:          0  dACCESS:   28903560  dHIT:   25352202  dMISS:    3551358  itACCESS:          0  itHIT:          0  itMISS:          0  dtACCESS:          0  dtHIT:          0  dtMISS:          0
cpu0_DTLB RFO          ACCESS:          0  HIT:          0  MISS:          0  iACCESS:          0  iHIT:          0  iMISS:          0  dACCESS:          0  dHIT:          0  dMISS:          0  itACCESS:          0  itHIT:          0  itMISS:          0  dtACCESS:          0  dtHIT:          0  dtMISS:          0
cpu0_DTLB PREFETCH     ACCESS:          0  HIT:          0  MISS:          0  iACCESS:          0  iHIT:          0  iMISS:          0  dACCESS:          0  dHIT:          0  dMISS:          0  itACCESS:          0  itHIT:          0  itMISS:          0  dtACCESS:          0  dtHIT:          0  dtMISS:          0
cpu0_DTLB WRITE        ACCESS:          0  HIT:          0  MISS:          0  iACCESS:          0  iHIT:          0  iMISS:          0  dACCESS:          0  dHIT:          0  dMISS:          0  itACCESS:          0  itHIT:          0  itMISS:          0  dtACCESS:          0  dtHIT:          0  dtMISS:          0
cpu0_DTLB TRANSLATION  ACCESS:          0  HIT:          0  MISS:          0  iACCESS:          0  iHIT:          0  iMISS:          0  dACCESS:          0  dHIT:          0  dMISS:          0  itACCESS:          0  itHIT:          0  itMISS:          0  dtACCESS:          0  dtHIT:          0  dtMISS:          0
cpu0_DTLB PREFETCH  REQUESTED:          0  ISSUED:          0  CROSSED:          0  USEFUL:          0  USELESS:          0
cpu0_DTLB AVERAGE iMISS LATENCY: 0 cycles
cpu0_DTLB AVERAGE dMISS LATENCY: 25.6444 cycles
cpu0_DTLB AVERAGE itMISS LATENCY: 0 cycles
cpu0_DTLB AVERAGE dtMISS LATENCY: 0 cycles
cpu0_DTLB PAGE CROSSINGS (TLB HIT):         0 
cpu0_DTLB PAGE CROSSINGS (TLB MISS):         0 
cpu0_DTLB AVERAGE MISS LATENCY: 25.6444 cycles
cpu0_STLB TOTAL       ACCESS:    2544938  HIT:    2171215  MISS:     373723  iACCESS:     471072  iHIT:     358486  iMISS:     112586  dACCESS:    2073866  dHIT:    1812729  dMISS:     261137  itACCESS:          0  itHIT:          0  itMISS:          0  dtACCESS:          0  dtHIT:          0  dtMISS:          0
cpu0_STLB LOAD         ACCESS:    2544938  HIT:    2171215  MISS:     373723  iACCESS:     471072  iHIT:     358486  iMISS:     112586  dACCESS:    2073866  dHIT:    1812729  dMISS:     261137  itACCESS:          0  itHIT:          0  itMISS:          0  dtACCESS:          0  dtHIT:          0  dtMISS:          0
cpu0_STLB RFO          ACCESS:          0  HIT:          0  MISS:          0  iACCESS:          0  iHIT:          0  iMISS:          0  dACCESS:          0  dHIT:          0  dMISS:          0  itACCESS:          0  itHIT:          0  itMISS:          0  dtACCESS:          0  dtHIT:          0  dtMISS:          0
cpu0_STLB PREFETCH     ACCESS:          0  HIT:          0  MISS:          0  iACCESS:          0  iHIT:          0  iMISS:          0  dACCESS:          0  dHIT:          0  dMISS:          0  itACCESS:          0  itHIT:          0  itMISS:          0  dtACCESS:          0  dtHIT:          0  dtMISS:          0
cpu0_STLB WRITE        ACCESS:          0  HIT:          0  MISS:          0  iACCESS:          0  iHIT:          0  iMISS:          0  dACCESS:          0  dHIT:          0  dMISS:          0  itACCESS:          0  itHIT:          0  itMISS:          0  dtACCESS:          0  dtHIT:          0  dtMISS:          0
cpu0_STLB TRANSLATION  ACCESS:          0  HIT:          0  MISS:          0  iACCESS:          0  iHIT:          0  iMISS:          0  dACCESS:          0  dHIT:          0  dMISS:          0  itACCESS:          0  itHIT:          0  itMISS:          0  dtACCESS:          0  dtHIT:          0  dtMISS:          0
cpu0_STLB PREFETCH  REQUESTED:          0  ISSUED:          0  CROSSED:          0  USEFUL:          0  USELESS:          0
cpu0_STLB AVERAGE iMISS LATENCY: 53.6428 cycles
cpu0_STLB AVERAGE dMISS LATENCY: 199.003 cycles
cpu0_STLB AVERAGE itMISS LATENCY: 0 cycles
cpu0_STLB AVERAGE dtMISS LATENCY: 0 cycles
cpu0_STLB PAGE CROSSINGS (TLB HIT):         0 
cpu0_STLB PAGE CROSSINGS (TLB MISS):         0 
cpu0_STLB AVERAGE MISS LATENCY: 252.646 cycles
cpu0_L1D TOTAL       ACCESS:   45079054  HIT:   39191467  MISS:    5887587  iACCESS:          0  iHIT:          0  iMISS:          0  dACCESS:   44517832  dHIT:   39159939  dMISS:    5357893  itACCESS:     127090  itHIT:      13278  itMISS:     113812  dtACCESS:     434132  dtHIT:      18250  dtMISS:     415882
cpu0_L1D LOAD         ACCESS:   20387568  HIT:   17981501  MISS:    2406067  iACCESS:          0  iHIT:          0  iMISS:          0  dACCESS:   20387568  dHIT:   17981501  dMISS:    2406067  itACCESS:          0  itHIT:          0  itMISS:          0  dtACCESS:          0  dtHIT:          0  dtMISS:          0
cpu0_L1D RFO          ACCESS:          0  HIT:          0  MISS:          0  iACCESS:          0  iHIT:          0  iMISS:          0  dACCESS:          0  dHIT:          0  dMISS:          0  itACCESS:          0  itHIT:          0  itMISS:          0  dtACCESS:          0  dtHIT:          0  dtMISS:          0
cpu0_L1D PREFETCH     ACCESS:   13987729  HIT:   11609665  MISS:    2378064  iACCESS:          0  iHIT:          0  iMISS:          0  dACCESS:   13987729  dHIT:   11609665  dMISS:    2378064  itACCESS:          0  itHIT:          0  itMISS:          0  dtACCESS:          0  dtHIT:          0  dtMISS:          0
cpu0_L1D WRITE        ACCESS:   10142535  HIT:    9568773  MISS:     573762  iACCESS:          0  iHIT:          0  iMISS:          0  dACCESS:   10142535  dHIT:    9568773  dMISS:     573762  itACCESS:          0  itHIT:          0  itMISS:          0  dtACCESS:          0  dtHIT:          0  dtMISS:          0
cpu0_L1D TRANSLATION  ACCESS:     561222  HIT:      31528  MISS:     529694  iACCESS:          0  iHIT:          0  iMISS:          0  dACCESS:          0  dHIT:          0  dMISS:          0  itACCESS:     127090  itHIT:      13278  itMISS:     113812  dtACCESS:     434132  dtHIT:      18250  dtMISS:     415882
cpu0_L1D PREFETCH  REQUESTED:   20387568  ISSUED:   18495811  CROSSED:          0  USEFUL:     357403  USELESS:     926335
cpu0_L1D AVERAGE iMISS LATENCY: 0 cycles
cpu0_L1D AVERAGE dMISS LATENCY: 48.987 cycles
cpu0_L1D AVERAGE itMISS LATENCY: 3.20903 cycles
cpu0_L1D AVERAGE dtMISS LATENCY: 11.8246 cycles
cpu0_L1D PAGE CROSSINGS (TLB HIT):         0 
cpu0_L1D PAGE CROSSINGS (TLB MISS):         0 
cpu0_L1D AVERAGE MISS LATENCY: 64.0205 cycles
cpu0_L2C TOTAL       ACCESS:    8583670  HIT:    4181542  MISS:    4402128  iACCESS:    3780914  iHIT:    2310526  iMISS:    1470388  dACCESS:    4315374  dHIT:    1815629  dMISS:    2499745  itACCESS:     113379  itHIT:      17561  itMISS:      95818  dtACCESS:     374003  dtHIT:      37826  dtMISS:     336177
cpu0_L2C LOAD         ACCESS:    2054783  HIT:    1010726  MISS:    1044057  iACCESS:     850749  iHIT:     545563  iMISS:     305186  dACCESS:    1204034  dHIT:     465163  dMISS:     738871  itACCESS:          0  itHIT:          0  itMISS:          0  dtACCESS:          0  dtHIT:          0  dtMISS:          0
cpu0_L2C RFO          ACCESS:     214246  HIT:      80588  MISS:     133658  iACCESS:          0  iHIT:          0  iMISS:          0  dACCESS:     214246  dHIT:      80588  dMISS:     133658  itACCESS:          0  itHIT:          0  itMISS:          0  dtACCESS:          0  dtHIT:          0  dtMISS:          0
cpu0_L2C PREFETCH     ACCESS:    5491101  HIT:    2702244  MISS:    2788857  iACCESS:    2930165  iHIT:    1764963  iMISS:    1165202  dACCESS:    2560936  dHIT:     937281  dMISS:    1623655  itACCESS:          0  itHIT:          0  itMISS:          0  dtACCESS:          0  dtHIT:          0  dtMISS:          0
cpu0_L2C WRITE        ACCESS:     336158  HIT:     332597  MISS:       3561  iACCESS:          0  iHIT:          0  iMISS:          0  dACCESS:     336158  dHIT:     332597  dMISS:       3561  itACCESS:          0  itHIT:          0  itMISS:          0  dtACCESS:          0  dtHIT:          0  dtMISS:          0
cpu0_L2C TRANSLATION  ACCESS:     487382  HIT:      55387  MISS:     431995  iACCESS:          0  iHIT:          0  iMISS:          0  dACCESS:          0  dHIT:          0  dMISS:          0  itACCESS:     113379  itHIT:      17561  itMISS:      95818  dtACCESS:     374003  dtHIT:      37826  dtMISS:     336177
cpu0_L2C PREFETCH  REQUESTED:    1533265  ISSUED:    1533263  CROSSED:          0  USEFUL:     361056  USELESS:     314997
cpu0_L2C AVERAGE iMISS LATENCY: 38.072 cycles
cpu0_L2C AVERAGE dMISS LATENCY: 79.7701 cycles
cpu0_L2C AVERAGE itMISS LATENCY: 4.03756 cycles
cpu0_L2C AVERAGE dtMISS LATENCY: 14.9687 cycles
cpu0_L2C PAGE CROSSINGS (TLB HIT):         0 
cpu0_L2C PAGE CROSSINGS (TLB MISS):         0 
cpu0_L2C AVERAGE MISS LATENCY: 136.849 cycles
LLC TOTAL       ACCESS:    4404056  HIT:    1399090  MISS:    3004966  iACCESS:    1386203  iHIT:     489002  iMISS:     897201  dACCESS:    2585858  dHIT:     870777  dMISS:    1715081  itACCESS:      95818  itHIT:       6561  itMISS:      89257  dtACCESS:     336177  dtHIT:      32750  dtMISS:     303427
LLC LOAD         ACCESS:    1036659  HIT:     333475  MISS:     703184  iACCESS:     303992  iHIT:     112423  iMISS:     191569  dACCESS:     732667  dHIT:     221052  dMISS:     511615  itACCESS:          0  itHIT:          0  itMISS:          0  dtACCESS:          0  dtHIT:          0  dtMISS:          0
LLC RFO          ACCESS:     133654  HIT:      40464  MISS:      93190  iACCESS:          0  iHIT:          0  iMISS:          0  dACCESS:     133654  dHIT:      40464  dMISS:      93190  itACCESS:          0  itHIT:          0  itMISS:          0  dtACCESS:          0  dtHIT:          0  dtMISS:          0
LLC PREFETCH     ACCESS:    2595953  HIT:     789621  MISS:    1806332  iACCESS:    1082211  iHIT:     376579  iMISS:     705632  dACCESS:    1513742  dHIT:     413042  dMISS:    1100700  itACCESS:          0  itHIT:          0  itMISS:          0  dtACCESS:          0  dtHIT:          0  dtMISS:          0
LLC WRITE        ACCESS:     205795  HIT:     196219  MISS:       9576  iACCESS:          0  iHIT:          0  iMISS:          0  dACCESS:     205795  dHIT:     196219  dMISS:       9576  itACCESS:          0  itHIT:          0  itMISS:          0  dtACCESS:          0  dtHIT:          0  dtMISS:          0
LLC TRANSLATION  ACCESS:     431995  HIT:      39311  MISS:     392684  iACCESS:          0  iHIT:          0  iMISS:          0  dACCESS:          0  dHIT:          0  dMISS:          0  itACCESS:      95818  itHIT:       6561  itMISS:      89257  dtACCESS:     336177  dtHIT:      32750  dtMISS:     303427
LLC PREFETCH  REQUESTED:          0  ISSUED:          0  CROSSED:          0  USEFUL:          0  USELESS:          0
LLC AVERAGE iMISS LATENCY: 46.7007 cycles
LLC AVERAGE dMISS LATENCY: 102.295 cycles
LLC AVERAGE itMISS LATENCY: 5.28214 cycles
LLC AVERAGE dtMISS LATENCY: 19.7159 cycles
LLC PAGE CROSSINGS (TLB HIT):         0 
LLC PAGE CROSSINGS (TLB MISS):         0 
LLC AVERAGE MISS LATENCY: 173.993 cycles

PageTableWalker TOTAL       ACCESS:     182467  
PageTableWalker AVERAGE LATENCY: 6.48832 cycles
PageTableWalker TOTAL LATENCY: 1183904 cycles

DRAM Statistics
Channel 0
 RQ ROW_BUFFER_HIT:     633974
  ROW_BUFFER_MISS:    2340837
 AVG DBUS CONGESTED CYCLE:    3.64816
 WQ ROW_BUFFER_HIT:      66064
  ROW_BUFFER_MISS:      53505  FULL:          0

