last_page:0x200000000000000
VMEM_RES_CAP:0x100000
PAGE_SIZE:4096
LOG2_PAGE_SIZE:12
LOG2_PAGE_TABLE_SIZE:9
page_table_levels:5
WARNING: physical memory size is smaller than virtual memory size
FDiP enabled with aggresivity 16

*** ChampSim Multicore Out-of-Order Simulator ***

Warmup Instructions: 50000000
Simulation Instructions: 100000000
Number of CPUs: 1
Small page size: 4096
Large page size: 2097152

CPU 0 Bimodal branch predictor
Basic BTB sets: 1024 ways: 8 indirect buffer size: 4096 RAS size: 64
Instruction page size distrubution: 0
Loading instruction page size distribution from /home/bsc/bsc018186/scratch/itp_asplos25_AE/dump/smt_srv540_ap_srv495_ap_1024i.pdst
Data page size distrubution: 0
Loading data page size distribution from /home/bsc/bsc018186/scratch/itp_asplos25_AE/dump/smt_srv540_ap_srv495_ap_1024i.pdst
cpu0_L2C IP-based stride prefetcher
cpu0_L2C is using PTP replacement policy:
	TLB_STRESS_THRESHOLD:0
	PTE_EVICTION_RATIO:0
cpu0_L1D next line prefetcher
CHiRPing...
cpu0_L1I next line prefetcher
Off-chip DRAM Size: 4 GiB Channels: 1 Width: 64-bit Data Rate: 3200 MT/s
Heartbeat CPU 0 instructions: 10000002 cycles: 2500424 heartbeat IPC: 3.99933 cumulative IPC: 3.99933 (Simulation time: 0 hr 0 min 36 sec) 
Heartbeat CPU 0 instructions: 20000002 cycles: 5000746 heartbeat IPC: 3.99949 cumulative IPC: 3.99941 (Simulation time: 0 hr 1 min 14 sec) 
Heartbeat CPU 0 instructions: 30000001 cycles: 7500911 heartbeat IPC: 3.99974 cumulative IPC: 3.99952 (Simulation time: 0 hr 1 min 52 sec) 
Heartbeat CPU 0 instructions: 40000002 cycles: 10001204 heartbeat IPC: 3.99954 cumulative IPC: 3.99952 (Simulation time: 0 hr 2 min 31 sec) 
Heartbeat CPU 0 instructions: 50000002 cycles: 12501338 heartbeat IPC: 3.99979 cumulative IPC: 3.99958 (Simulation time: 0 hr 3 min 10 sec) 
Warmup finished CPU 0 instructions: 50000002 cycles: 12501339 cumulative IPC: 3.99958 (Simulation time: 0 hr 3 min 10 sec) 

Warmup complete CPU 0 instructions: 50000002 cycles: 12501339 (Simulation time: 0 hr 3 min 10 sec) 

Heartbeat CPU 0 instructions: 60000001 cycles: 42650130 heartbeat IPC: 0.331689 cumulative IPC: 0.331689 (Simulation time: 0 hr 4 min 31 sec) 
Heartbeat CPU 0 instructions: 70000003 cycles: 73140823 heartbeat IPC: 0.327969 cumulative IPC: 0.329819 (Simulation time: 0 hr 5 min 53 sec) 
Heartbeat CPU 0 instructions: 80000002 cycles: 103891054 heartbeat IPC: 0.325201 cumulative IPC: 0.328265 (Simulation time: 0 hr 7 min 16 sec) 
Heartbeat CPU 0 instructions: 90000000 cycles: 134627826 heartbeat IPC: 0.325344 cumulative IPC: 0.32753 (Simulation time: 0 hr 8 min 38 sec) 
Heartbeat CPU 0 instructions: 100000001 cycles: 164812549 heartbeat IPC: 0.331294 cumulative IPC: 0.328276 (Simulation time: 0 hr 10 min 0 sec) 
Heartbeat CPU 0 instructions: 110000000 cycles: 194681962 heartbeat IPC: 0.334791 cumulative IPC: 0.329344 (Simulation time: 0 hr 11 min 21 sec) 
Heartbeat CPU 0 instructions: 120000000 cycles: 224891957 heartbeat IPC: 0.331017 cumulative IPC: 0.329582 (Simulation time: 0 hr 12 min 43 sec) 
Heartbeat CPU 0 instructions: 130000001 cycles: 254706980 heartbeat IPC: 0.335402 cumulative IPC: 0.330298 (Simulation time: 0 hr 14 min 4 sec) 
Heartbeat CPU 0 instructions: 140000002 cycles: 284643239 heartbeat IPC: 0.334044 cumulative IPC: 0.33071 (Simulation time: 0 hr 15 min 26 sec) 
Heartbeat CPU 0 instructions: 150000001 cycles: 312917474 heartbeat IPC: 0.353679 cumulative IPC: 0.332872 (Simulation time: 0 hr 16 min 45 sec) 
Simulation finished CPU 0 instructions: 100000004 cycles: 300416137 cumulative IPC: 0.332872 (Simulation time: 0 hr 16 min 45 sec) 

Simulation complete CPU 0 instructions: 100000004 cycles: 300416137 (Simulation time: 0 hr 16 min 45 sec) 


ChampSim completed all CPUs

Saving instructions large page distribution to /home/bsc/bsc018186/scratch/itp_asplos25_AE/dump/smt_srv540_ap_srv495_ap_1024i.pdst...
Saving data large page distribution to /home/bsc/bsc018186/scratch/itp_asplos25_AE/dump/smt_srv540_ap_srv495_ap_1024i.pdst...
=== Simulation ===
CPU 0 runs /gpfs/projects/bsc18/MN4/bsc18/romol/ChampSim/traces/qualcomm_srv/smt_srv540_ap_srv495_ap_1024i.champsimtrace.xz

Region of Interest Statistics

CPU 0 cumulative IPC: 0.332872 instructions: 100000004 cycles: 300416137
CPU 0 Branch Prediction Accuracy: 75.5046% MPKI: 44.1654 Average ROB Occupancy at Mispredict: 11.0534
Branch type MPKI
BRANCH_DIRECT_JUMP: 1.33859
BRANCH_INDIRECT: 22.7715
BRANCH_CONDITIONAL: 12.9584
BRANCH_DIRECT_CALL: 2.62042
BRANCH_INDIRECT_CALL: 0.98476
BRANCH_RETURN: 3.49187

Instructions large pages: 0
Instructions small pages: 9586
Large page distribution for instructions: 0%

Data large pages: 0
Data small pages: 8248
Large page distribution for data: 0%

cpu0_L1I TOTAL       ACCESS:   38747257  HIT:   30176545  MISS:    8570712  iACCESS:   38747257  iHIT:   30176545  iMISS:    8570712  dACCESS:          0  dHIT:          0  dMISS:          0  itACCESS:          0  itHIT:          0  itMISS:          0  dtACCESS:          0  dtHIT:          0  dtMISS:          0
cpu0_L1I LOAD         ACCESS:   11521735  HIT:    9188867  MISS:    2332868  iACCESS:   11521735  iHIT:    9188867  iMISS:    2332868  dACCESS:          0  dHIT:          0  dMISS:          0  itACCESS:          0  itHIT:          0  itMISS:          0  dtACCESS:          0  dtHIT:          0  dtMISS:          0
cpu0_L1I RFO          ACCESS:          0  HIT:          0  MISS:          0  iACCESS:          0  iHIT:          0  iMISS:          0  dACCESS:          0  dHIT:          0  dMISS:          0  itACCESS:          0  itHIT:          0  itMISS:          0  dtACCESS:          0  dtHIT:          0  dtMISS:          0
cpu0_L1I PREFETCH     ACCESS:   27225522  HIT:   20987678  MISS:    6237844  iACCESS:   27225522  iHIT:   20987678  iMISS:    6237844  dACCESS:          0  dHIT:          0  dMISS:          0  itACCESS:          0  itHIT:          0  itMISS:          0  dtACCESS:          0  dtHIT:          0  dtMISS:          0
cpu0_L1I WRITE        ACCESS:          0  HIT:          0  MISS:          0  iACCESS:          0  iHIT:          0  iMISS:          0  dACCESS:          0  dHIT:          0  dMISS:          0  itACCESS:          0  itHIT:          0  itMISS:          0  dtACCESS:          0  dtHIT:          0  dtMISS:          0
cpu0_L1I TRANSLATION  ACCESS:          0  HIT:          0  MISS:          0  iACCESS:          0  iHIT:          0  iMISS:          0  dACCESS:          0  dHIT:          0  dMISS:          0  itACCESS:          0  itHIT:          0  itMISS:          0  dtACCESS:          0  dtHIT:          0  dtMISS:          0
cpu0_L1I PREFETCH  REQUESTED:   29958420  ISSUED:   29958413  CROSSED:          0  USEFUL:    2176400  USELESS:     752359
cpu0_L1I AVERAGE iMISS LATENCY: 24.7673 cycles
cpu0_L1I AVERAGE dMISS LATENCY: 0 cycles
cpu0_L1I AVERAGE itMISS LATENCY: 0 cycles
cpu0_L1I AVERAGE dtMISS LATENCY: 0 cycles
cpu0_L1I PAGE CROSSINGS (TLB HIT):         0 
cpu0_L1I PAGE CROSSINGS (TLB MISS):         0 
cpu0_L1I AVERAGE MISS LATENCY: 24.7673 cycles
cpu0_ITLB TOTAL       ACCESS:   32848769  HIT:   30635520  MISS:    2213249  iACCESS:   32848769  iHIT:   30635520  iMISS:    2213249  dACCESS:          0  dHIT:          0  dMISS:          0  itACCESS:          0  itHIT:          0  itMISS:          0  dtACCESS:          0  dtHIT:          0  dtMISS:          0
cpu0_ITLB LOAD         ACCESS:   32848769  HIT:   30635520  MISS:    2213249  iACCESS:   32848769  iHIT:   30635520  iMISS:    2213249  dACCESS:          0  dHIT:          0  dMISS:          0  itACCESS:          0  itHIT:          0  itMISS:          0  dtACCESS:          0  dtHIT:          0  dtMISS:          0
cpu0_ITLB RFO          ACCESS:          0  HIT:          0  MISS:          0  iACCESS:          0  iHIT:          0  iMISS:          0  dACCESS:          0  dHIT:          0  dMISS:          0  itACCESS:          0  itHIT:          0  itMISS:          0  dtACCESS:          0  dtHIT:          0  dtMISS:          0
cpu0_ITLB PREFETCH     ACCESS:          0  HIT:          0  MISS:          0  iACCESS:          0  iHIT:          0  iMISS:          0  dACCESS:          0  dHIT:          0  dMISS:          0  itACCESS:          0  itHIT:          0  itMISS:          0  dtACCESS:          0  dtHIT:          0  dtMISS:          0
cpu0_ITLB WRITE        ACCESS:          0  HIT:          0  MISS:          0  iACCESS:          0  iHIT:          0  iMISS:          0  dACCESS:          0  dHIT:          0  dMISS:          0  itACCESS:          0  itHIT:          0  itMISS:          0  dtACCESS:          0  dtHIT:          0  dtMISS:          0
cpu0_ITLB TRANSLATION  ACCESS:          0  HIT:          0  MISS:          0  iACCESS:          0  iHIT:          0  iMISS:          0  dACCESS:          0  dHIT:          0  dMISS:          0  itACCESS:          0  itHIT:          0  itMISS:          0  dtACCESS:          0  dtHIT:          0  dtMISS:          0
cpu0_ITLB PREFETCH  REQUESTED:          0  ISSUED:          0  CROSSED:          0  USEFUL:     383268  USELESS:      78558
cpu0_ITLB AVERAGE iMISS LATENCY: 10.4499 cycles
cpu0_ITLB AVERAGE dMISS LATENCY: 0 cycles
cpu0_ITLB AVERAGE itMISS LATENCY: 0 cycles
cpu0_ITLB AVERAGE dtMISS LATENCY: 0 cycles
cpu0_ITLB PAGE CROSSINGS (TLB HIT):         0 
cpu0_ITLB PAGE CROSSINGS (TLB MISS):         0 
cpu0_ITLB AVERAGE MISS LATENCY: 10.4499 cycles
cpu0_DTLB TOTAL       ACCESS:   28800995  HIT:   25127351  MISS:    3673644  iACCESS:          0  iHIT:          0  iMISS:          0  dACCESS:   28800995  dHIT:   25127351  dMISS:    3673644  itACCESS:          0  itHIT:          0  itMISS:          0  dtACCESS:          0  dtHIT:          0  dtMISS:          0
cpu0_DTLB LOAD         ACCESS:   28800995  HIT:   25127351  MISS:    3673644  iACCESS:          0  iHIT:          0  iMISS:          0  dACCESS:   28800995  dHIT:   25127351  dMISS:    3673644  itACCESS:          0  itHIT:          0  itMISS:          0  dtACCESS:          0  dtHIT:          0  dtMISS:          0
cpu0_DTLB RFO          ACCESS:          0  HIT:          0  MISS:          0  iACCESS:          0  iHIT:          0  iMISS:          0  dACCESS:          0  dHIT:          0  dMISS:          0  itACCESS:          0  itHIT:          0  itMISS:          0  dtACCESS:          0  dtHIT:          0  dtMISS:          0
cpu0_DTLB PREFETCH     ACCESS:          0  HIT:          0  MISS:          0  iACCESS:          0  iHIT:          0  iMISS:          0  dACCESS:          0  dHIT:          0  dMISS:          0  itACCESS:          0  itHIT:          0  itMISS:          0  dtACCESS:          0  dtHIT:          0  dtMISS:          0
cpu0_DTLB WRITE        ACCESS:          0  HIT:          0  MISS:          0  iACCESS:          0  iHIT:          0  iMISS:          0  dACCESS:          0  dHIT:          0  dMISS:          0  itACCESS:          0  itHIT:          0  itMISS:          0  dtACCESS:          0  dtHIT:          0  dtMISS:          0
cpu0_DTLB TRANSLATION  ACCESS:          0  HIT:          0  MISS:          0  iACCESS:          0  iHIT:          0  iMISS:          0  dACCESS:          0  dHIT:          0  dMISS:          0  itACCESS:          0  itHIT:          0  itMISS:          0  dtACCESS:          0  dtHIT:          0  dtMISS:          0
cpu0_DTLB PREFETCH  REQUESTED:          0  ISSUED:          0  CROSSED:          0  USEFUL:          0  USELESS:          0
cpu0_DTLB AVERAGE iMISS LATENCY: 0 cycles
cpu0_DTLB AVERAGE dMISS LATENCY: 24.8504 cycles
cpu0_DTLB AVERAGE itMISS LATENCY: 0 cycles
cpu0_DTLB AVERAGE dtMISS LATENCY: 0 cycles
cpu0_DTLB PAGE CROSSINGS (TLB HIT):         0 
cpu0_DTLB PAGE CROSSINGS (TLB MISS):         0 
cpu0_DTLB AVERAGE MISS LATENCY: 24.8504 cycles
cpu0_STLB TOTAL       ACCESS:    2592383  HIT:    2212654  MISS:     379729  iACCESS:     461831  iHIT:     345722  iMISS:     116109  dACCESS:    2130552  dHIT:    1866932  dMISS:     263620  itACCESS:          0  itHIT:          0  itMISS:          0  dtACCESS:          0  dtHIT:          0  dtMISS:          0
cpu0_STLB LOAD         ACCESS:    2592383  HIT:    2212654  MISS:     379729  iACCESS:     461831  iHIT:     345722  iMISS:     116109  dACCESS:    2130552  dHIT:    1866932  dMISS:     263620  itACCESS:          0  itHIT:          0  itMISS:          0  dtACCESS:          0  dtHIT:          0  dtMISS:          0
cpu0_STLB RFO          ACCESS:          0  HIT:          0  MISS:          0  iACCESS:          0  iHIT:          0  iMISS:          0  dACCESS:          0  dHIT:          0  dMISS:          0  itACCESS:          0  itHIT:          0  itMISS:          0  dtACCESS:          0  dtHIT:          0  dtMISS:          0
cpu0_STLB PREFETCH     ACCESS:          0  HIT:          0  MISS:          0  iACCESS:          0  iHIT:          0  iMISS:          0  dACCESS:          0  dHIT:          0  dMISS:          0  itACCESS:          0  itHIT:          0  itMISS:          0  dtACCESS:          0  dtHIT:          0  dtMISS:          0
cpu0_STLB WRITE        ACCESS:          0  HIT:          0  MISS:          0  iACCESS:          0  iHIT:          0  iMISS:          0  dACCESS:          0  dHIT:          0  dMISS:          0  itACCESS:          0  itHIT:          0  itMISS:          0  dtACCESS:          0  dtHIT:          0  dtMISS:          0
cpu0_STLB TRANSLATION  ACCESS:          0  HIT:          0  MISS:          0  iACCESS:          0  iHIT:          0  iMISS:          0  dACCESS:          0  dHIT:          0  dMISS:          0  itACCESS:          0  itHIT:          0  itMISS:          0  dtACCESS:          0  dtHIT:          0  dtMISS:          0
cpu0_STLB PREFETCH  REQUESTED:          0  ISSUED:          0  CROSSED:          0  USEFUL:          0  USELESS:          0
cpu0_STLB AVERAGE iMISS LATENCY: 51.164 cycles
cpu0_STLB AVERAGE dMISS LATENCY: 195.235 cycles
cpu0_STLB AVERAGE itMISS LATENCY: 0 cycles
cpu0_STLB AVERAGE dtMISS LATENCY: 0 cycles
cpu0_STLB PAGE CROSSINGS (TLB HIT):         0 
cpu0_STLB PAGE CROSSINGS (TLB MISS):         0 
cpu0_STLB AVERAGE MISS LATENCY: 246.399 cycles
cpu0_L1D TOTAL       ACCESS:   44818353  HIT:   39000004  MISS:    5818349  iACCESS:          0  iHIT:          0  iMISS:          0  dACCESS:   44262928  dHIT:   38966415  dMISS:    5296513  itACCESS:     130098  itHIT:      14488  itMISS:     115610  dtACCESS:     425327  dtHIT:      19101  dtMISS:     406226
cpu0_L1D LOAD         ACCESS:   20224423  HIT:   17844648  MISS:    2379775  iACCESS:          0  iHIT:          0  iMISS:          0  dACCESS:   20224423  dHIT:   17844648  dMISS:    2379775  itACCESS:          0  itHIT:          0  itMISS:          0  dtACCESS:          0  dtHIT:          0  dtMISS:          0
cpu0_L1D RFO          ACCESS:          0  HIT:          0  MISS:          0  iACCESS:          0  iHIT:          0  iMISS:          0  dACCESS:          0  dHIT:          0  dMISS:          0  itACCESS:          0  itHIT:          0  itMISS:          0  dtACCESS:          0  dtHIT:          0  dtMISS:          0
cpu0_L1D PREFETCH     ACCESS:   13893584  HIT:   11547639  MISS:    2345945  iACCESS:          0  iHIT:          0  iMISS:          0  dACCESS:   13893584  dHIT:   11547639  dMISS:    2345945  itACCESS:          0  itHIT:          0  itMISS:          0  dtACCESS:          0  dtHIT:          0  dtMISS:          0
cpu0_L1D WRITE        ACCESS:   10144921  HIT:    9574128  MISS:     570793  iACCESS:          0  iHIT:          0  iMISS:          0  dACCESS:   10144921  dHIT:    9574128  dMISS:     570793  itACCESS:          0  itHIT:          0  itMISS:          0  dtACCESS:          0  dtHIT:          0  dtMISS:          0
cpu0_L1D TRANSLATION  ACCESS:     555425  HIT:      33589  MISS:     521836  iACCESS:          0  iHIT:          0  iMISS:          0  dACCESS:          0  dHIT:          0  dMISS:          0  itACCESS:     130098  itHIT:      14488  itMISS:     115610  dtACCESS:     425327  dtHIT:      19101  dtMISS:     406226
cpu0_L1D PREFETCH  REQUESTED:   20224423  ISSUED:   18373838  CROSSED:          0  USEFUL:     360404  USELESS:     930084
cpu0_L1D AVERAGE iMISS LATENCY: 0 cycles
cpu0_L1D AVERAGE dMISS LATENCY: 49.6457 cycles
cpu0_L1D AVERAGE itMISS LATENCY: 3.15519 cycles
cpu0_L1D AVERAGE dtMISS LATENCY: 11.9569 cycles
cpu0_L1D PAGE CROSSINGS (TLB HIT):         0 
cpu0_L1D PAGE CROSSINGS (TLB MISS):         0 
cpu0_L1D AVERAGE MISS LATENCY: 64.7577 cycles
cpu0_L2C TOTAL       ACCESS:    8563696  HIT:    4200939  MISS:    4362757  iACCESS:    3727672  iHIT:    2294191  iMISS:    1433481  dACCESS:    4345571  dHIT:    1845443  dMISS:    2500128  itACCESS:     114801  itHIT:      21771  itMISS:      93030  dtACCESS:     375652  dtHIT:      39534  dtMISS:     336118
cpu0_L2C LOAD         ACCESS:    2039369  HIT:    1005498  MISS:    1033871  iACCESS:     836601  iHIT:     537590  iMISS:     299011  dACCESS:    1202768  dHIT:     467908  dMISS:     734860  itACCESS:          0  itHIT:          0  itMISS:          0  dtACCESS:          0  dtHIT:          0  dtMISS:          0
cpu0_L2C RFO          ACCESS:     218859  HIT:      84457  MISS:     134402  iACCESS:          0  iHIT:          0  iMISS:          0  dACCESS:     218859  dHIT:      84457  dMISS:     134402  itACCESS:          0  itHIT:          0  itMISS:          0  dtACCESS:          0  dtHIT:          0  dtMISS:          0
cpu0_L2C PREFETCH     ACCESS:    5467276  HIT:    2705311  MISS:    2761965  iACCESS:    2891071  iHIT:    1756601  iMISS:    1134470  dACCESS:    2576205  dHIT:     948710  dMISS:    1627495  itACCESS:          0  itHIT:          0  itMISS:          0  dtACCESS:          0  dtHIT:          0  dtMISS:          0
cpu0_L2C WRITE        ACCESS:     347739  HIT:     344368  MISS:       3371  iACCESS:          0  iHIT:          0  iMISS:          0  dACCESS:     347739  dHIT:     344368  dMISS:       3371  itACCESS:          0  itHIT:          0  itMISS:          0  dtACCESS:          0  dtHIT:          0  dtMISS:          0
cpu0_L2C TRANSLATION  ACCESS:     490453  HIT:      61305  MISS:     429148  iACCESS:          0  iHIT:          0  iMISS:          0  dACCESS:          0  dHIT:          0  dMISS:          0  itACCESS:     114801  itHIT:      21771  itMISS:      93030  dtACCESS:     375652  dtHIT:      39534  dtMISS:     336118
cpu0_L2C PREFETCH  REQUESTED:    1522843  ISSUED:    1522841  CROSSED:          0  USEFUL:     352314  USELESS:     315190
cpu0_L2C AVERAGE iMISS LATENCY: 41.5175 cycles
cpu0_L2C AVERAGE dMISS LATENCY: 82.5148 cycles
cpu0_L2C AVERAGE itMISS LATENCY: 3.94896 cycles
cpu0_L2C AVERAGE dtMISS LATENCY: 15.0892 cycles
cpu0_L2C PAGE CROSSINGS (TLB HIT):         0 
cpu0_L2C PAGE CROSSINGS (TLB MISS):         0 
cpu0_L2C AVERAGE MISS LATENCY: 143.071 cycles
LLC TOTAL       ACCESS:    4350482  HIT:    1202171  MISS:    3148311  iACCESS:    1342341  iHIT:     365563  iMISS:     976778  dACCESS:    2578993  dHIT:     797054  dMISS:    1781939  itACCESS:      93030  itHIT:       7039  itMISS:      85991  dtACCESS:     336118  dtHIT:      32515  dtMISS:     303603
LLC LOAD         ACCESS:    1027191  HIT:     302313  MISS:     724878  iACCESS:     297860  iHIT:      88528  iMISS:     209332  dACCESS:     729331  dHIT:     213785  dMISS:     515546  itACCESS:          0  itHIT:          0  itMISS:          0  dtACCESS:          0  dtHIT:          0  dtMISS:          0
LLC RFO          ACCESS:     134401  HIT:      40223  MISS:      94178  iACCESS:          0  iHIT:          0  iMISS:          0  dACCESS:     134401  dHIT:      40223  dMISS:      94178  itACCESS:          0  itHIT:          0  itMISS:          0  dtACCESS:          0  dtHIT:          0  dtMISS:          0
LLC PREFETCH     ACCESS:    2548475  HIT:     619134  MISS:    1929341  iACCESS:    1044481  iHIT:     277035  iMISS:     767446  dACCESS:    1503994  dHIT:     342099  dMISS:    1161895  itACCESS:          0  itHIT:          0  itMISS:          0  dtACCESS:          0  dtHIT:          0  dtMISS:          0
LLC WRITE        ACCESS:     211267  HIT:     200947  MISS:      10320  iACCESS:          0  iHIT:          0  iMISS:          0  dACCESS:     211267  dHIT:     200947  dMISS:      10320  itACCESS:          0  itHIT:          0  itMISS:          0  dtACCESS:          0  dtHIT:          0  dtMISS:          0
LLC TRANSLATION  ACCESS:     429148  HIT:      39554  MISS:     389594  iACCESS:          0  iHIT:          0  iMISS:          0  dACCESS:          0  dHIT:          0  dMISS:          0  itACCESS:      93030  itHIT:       7039  itMISS:      85991  dtACCESS:     336118  dtHIT:      32515  dtMISS:     303603
LLC PREFETCH  REQUESTED:          0  ISSUED:          0  CROSSED:          0  USEFUL:          0  USELESS:          0
LLC AVERAGE iMISS LATENCY: 49.1185 cycles
LLC AVERAGE dMISS LATENCY: 100.594 cycles
LLC AVERAGE itMISS LATENCY: 4.8862 cycles
LLC AVERAGE dtMISS LATENCY: 18.7988 cycles
LLC PAGE CROSSINGS (TLB HIT):         0 
LLC PAGE CROSSINGS (TLB MISS):         0 
LLC AVERAGE MISS LATENCY: 173.397 cycles

PageTableWalker TOTAL       ACCESS:     195026  
PageTableWalker AVERAGE LATENCY: 6.42252 cycles
PageTableWalker TOTAL LATENCY: 1252557 cycles

DRAM Statistics
Channel 0
 RQ ROW_BUFFER_HIT:     662007
  ROW_BUFFER_MISS:    2454645
 AVG DBUS CONGESTED CYCLE:    3.65239
 WQ ROW_BUFFER_HIT:      66267
  ROW_BUFFER_MISS:      59457  FULL:          0

