last_page:0x200000000000000
VMEM_RES_CAP:0x100000
PAGE_SIZE:4096
LOG2_PAGE_SIZE:12
LOG2_PAGE_TABLE_SIZE:9
page_table_levels:5
WARNING: physical memory size is smaller than virtual memory size
FDiP enabled with aggresivity 16

*** ChampSim Multicore Out-of-Order Simulator ***

Warmup Instructions: 50000000
Simulation Instructions: 100000000
Number of CPUs: 1
Small page size: 4096
Large page size: 2097152

CPU 0 Bimodal branch predictor
Basic BTB sets: 1024 ways: 8 indirect buffer size: 4096 RAS size: 64
Instruction page size distrubution: 0
Loading instruction page size distribution from /home/bsc/bsc018186/scratch/itp_asplos25_AE/dump/smt_srv85_ap_srv194_ap_1024i.pdst
Data page size distrubution: 0
Loading data page size distribution from /home/bsc/bsc018186/scratch/itp_asplos25_AE/dump/smt_srv85_ap_srv194_ap_1024i.pdst
cpu0_L2C IP-based stride prefetcher
cpu0_L2C is using PTP replacement policy:
	TLB_STRESS_THRESHOLD:0
	PTE_EVICTION_RATIO:0
cpu0_L1D next line prefetcher
cpu0_L1I next line prefetcher
Off-chip DRAM Size: 4 GiB Channels: 1 Width: 64-bit Data Rate: 3200 MT/s
Heartbeat CPU 0 instructions: 10000000 cycles: 2500394 heartbeat IPC: 3.99937 cumulative IPC: 3.99937 (Simulation time: 0 hr 0 min 45 sec) 
Heartbeat CPU 0 instructions: 20000001 cycles: 5000946 heartbeat IPC: 3.99912 cumulative IPC: 3.99925 (Simulation time: 0 hr 1 min 32 sec) 
Heartbeat CPU 0 instructions: 30000002 cycles: 7501529 heartbeat IPC: 3.99907 cumulative IPC: 3.99919 (Simulation time: 0 hr 2 min 19 sec) 
Heartbeat CPU 0 instructions: 40000000 cycles: 10002319 heartbeat IPC: 3.99874 cumulative IPC: 3.99908 (Simulation time: 0 hr 3 min 7 sec) 
Heartbeat CPU 0 instructions: 50000003 cycles: 12577958 heartbeat IPC: 3.88254 cumulative IPC: 3.97521 (Simulation time: 0 hr 3 min 53 sec) 
Warmup finished CPU 0 instructions: 50000003 cycles: 12577959 cumulative IPC: 3.97521 (Simulation time: 0 hr 3 min 53 sec) 

Warmup complete CPU 0 instructions: 50000003 cycles: 12577959 (Simulation time: 0 hr 3 min 53 sec) 

Heartbeat CPU 0 instructions: 60000004 cycles: 28927972 heartbeat IPC: 0.611621 cumulative IPC: 0.611621 (Simulation time: 0 hr 5 min 13 sec) 
Heartbeat CPU 0 instructions: 70000002 cycles: 50788130 heartbeat IPC: 0.457454 cumulative IPC: 0.523421 (Simulation time: 0 hr 6 min 40 sec) 
Heartbeat CPU 0 instructions: 80000002 cycles: 82945129 heartbeat IPC: 0.310975 cumulative IPC: 0.426336 (Simulation time: 0 hr 8 min 21 sec) 
Heartbeat CPU 0 instructions: 90000002 cycles: 114814411 heartbeat IPC: 0.313782 cumulative IPC: 0.39125 (Simulation time: 0 hr 10 min 0 sec) 
Heartbeat CPU 0 instructions: 100000000 cycles: 147108428 heartbeat IPC: 0.309655 cumulative IPC: 0.371663 (Simulation time: 0 hr 11 min 42 sec) 
Heartbeat CPU 0 instructions: 110000000 cycles: 178445875 heartbeat IPC: 0.319108 cumulative IPC: 0.361734 (Simulation time: 0 hr 13 min 22 sec) 
Heartbeat CPU 0 instructions: 120000003 cycles: 211391639 heartbeat IPC: 0.30353 cumulative IPC: 0.352089 (Simulation time: 0 hr 15 min 5 sec) 
Heartbeat CPU 0 instructions: 130000000 cycles: 244411152 heartbeat IPC: 0.302852 cumulative IPC: 0.345076 (Simulation time: 0 hr 16 min 48 sec) 
Heartbeat CPU 0 instructions: 140000002 cycles: 276871010 heartbeat IPC: 0.308073 cumulative IPC: 0.340532 (Simulation time: 0 hr 18 min 32 sec) 
Heartbeat CPU 0 instructions: 150000000 cycles: 310237242 heartbeat IPC: 0.299705 cumulative IPC: 0.335955 (Simulation time: 0 hr 20 min 16 sec) 
Simulation finished CPU 0 instructions: 100000002 cycles: 297659285 cumulative IPC: 0.335955 (Simulation time: 0 hr 20 min 16 sec) 

Simulation complete CPU 0 instructions: 100000002 cycles: 297659285 (Simulation time: 0 hr 20 min 16 sec) 


ChampSim completed all CPUs

Saving instructions large page distribution to /home/bsc/bsc018186/scratch/itp_asplos25_AE/dump/smt_srv85_ap_srv194_ap_1024i.pdst...
Saving data large page distribution to /home/bsc/bsc018186/scratch/itp_asplos25_AE/dump/smt_srv85_ap_srv194_ap_1024i.pdst...
=== Simulation ===
CPU 0 runs /gpfs/projects/bsc18/MN4/bsc18/romol/ChampSim/traces/qualcomm_srv/smt_srv85_ap_srv194_ap_1024i.champsimtrace.xz

Region of Interest Statistics

CPU 0 cumulative IPC: 0.335955 instructions: 100000002 cycles: 297659285
CPU 0 Branch Prediction Accuracy: 76.7098% MPKI: 44.3237 Average ROB Occupancy at Mispredict: 10.6776
Branch type MPKI
BRANCH_DIRECT_JUMP: 1.39153
BRANCH_INDIRECT: 23.3942
BRANCH_CONDITIONAL: 12.3325
BRANCH_DIRECT_CALL: 2.62712
BRANCH_INDIRECT_CALL: 1.11229
BRANCH_RETURN: 3.46614

Instructions large pages: 0
Instructions small pages: 11317
Large page distribution for instructions: 0%

Data large pages: 0
Data small pages: 9525
Large page distribution for data: 0%

cpu0_L1I TOTAL       ACCESS:   39850761  HIT:   31548959  MISS:    8301802  iACCESS:   39850761  iHIT:   31548959  iMISS:    8301802  dACCESS:          0  dHIT:          0  dMISS:          0  itACCESS:          0  itHIT:          0  itMISS:          0  dtACCESS:          0  dtHIT:          0  dtMISS:          0
cpu0_L1I LOAD         ACCESS:   11471432  HIT:    9201714  MISS:    2269718  iACCESS:   11471432  iHIT:    9201714  iMISS:    2269718  dACCESS:          0  dHIT:          0  dMISS:          0  itACCESS:          0  itHIT:          0  itMISS:          0  dtACCESS:          0  dtHIT:          0  dtMISS:          0
cpu0_L1I RFO          ACCESS:          0  HIT:          0  MISS:          0  iACCESS:          0  iHIT:          0  iMISS:          0  dACCESS:          0  dHIT:          0  dMISS:          0  itACCESS:          0  itHIT:          0  itMISS:          0  dtACCESS:          0  dtHIT:          0  dtMISS:          0
cpu0_L1I PREFETCH     ACCESS:   28379329  HIT:   22347245  MISS:    6032084  iACCESS:   28379329  iHIT:   22347245  iMISS:    6032084  dACCESS:          0  dHIT:          0  dMISS:          0  itACCESS:          0  itHIT:          0  itMISS:          0  dtACCESS:          0  dtHIT:          0  dtMISS:          0
cpu0_L1I WRITE        ACCESS:          0  HIT:          0  MISS:          0  iACCESS:          0  iHIT:          0  iMISS:          0  dACCESS:          0  dHIT:          0  dMISS:          0  itACCESS:          0  itHIT:          0  itMISS:          0  dtACCESS:          0  dtHIT:          0  dtMISS:          0
cpu0_L1I TRANSLATION  ACCESS:          0  HIT:          0  MISS:          0  iACCESS:          0  iHIT:          0  iMISS:          0  dACCESS:          0  dHIT:          0  dMISS:          0  itACCESS:          0  itHIT:          0  itMISS:          0  dtACCESS:          0  dtHIT:          0  dtMISS:          0
cpu0_L1I PREFETCH  REQUESTED:   31027606  ISSUED:   31027535  CROSSED:          0  USEFUL:    2092026  USELESS:     752609
cpu0_L1I AVERAGE iMISS LATENCY: 25.0416 cycles
cpu0_L1I AVERAGE dMISS LATENCY: 0 cycles
cpu0_L1I AVERAGE itMISS LATENCY: 0 cycles
cpu0_L1I AVERAGE dtMISS LATENCY: 0 cycles
cpu0_L1I PAGE CROSSINGS (TLB HIT):         0 
cpu0_L1I PAGE CROSSINGS (TLB MISS):         0 
cpu0_L1I AVERAGE MISS LATENCY: 25.0416 cycles
cpu0_ITLB TOTAL       ACCESS:   33716444  HIT:   31542141  MISS:    2174303  iACCESS:   33716444  iHIT:   31542141  iMISS:    2174303  dACCESS:          0  dHIT:          0  dMISS:          0  itACCESS:          0  itHIT:          0  itMISS:          0  dtACCESS:          0  dtHIT:          0  dtMISS:          0
cpu0_ITLB LOAD         ACCESS:   33716444  HIT:   31542141  MISS:    2174303  iACCESS:   33716444  iHIT:   31542141  iMISS:    2174303  dACCESS:          0  dHIT:          0  dMISS:          0  itACCESS:          0  itHIT:          0  itMISS:          0  dtACCESS:          0  dtHIT:          0  dtMISS:          0
cpu0_ITLB RFO          ACCESS:          0  HIT:          0  MISS:          0  iACCESS:          0  iHIT:          0  iMISS:          0  dACCESS:          0  dHIT:          0  dMISS:          0  itACCESS:          0  itHIT:          0  itMISS:          0  dtACCESS:          0  dtHIT:          0  dtMISS:          0
cpu0_ITLB PREFETCH     ACCESS:          0  HIT:          0  MISS:          0  iACCESS:          0  iHIT:          0  iMISS:          0  dACCESS:          0  dHIT:          0  dMISS:          0  itACCESS:          0  itHIT:          0  itMISS:          0  dtACCESS:          0  dtHIT:          0  dtMISS:          0
cpu0_ITLB WRITE        ACCESS:          0  HIT:          0  MISS:          0  iACCESS:          0  iHIT:          0  iMISS:          0  dACCESS:          0  dHIT:          0  dMISS:          0  itACCESS:          0  itHIT:          0  itMISS:          0  dtACCESS:          0  dtHIT:          0  dtMISS:          0
cpu0_ITLB TRANSLATION  ACCESS:          0  HIT:          0  MISS:          0  iACCESS:          0  iHIT:          0  iMISS:          0  dACCESS:          0  dHIT:          0  dMISS:          0  itACCESS:          0  itHIT:          0  itMISS:          0  dtACCESS:          0  dtHIT:          0  dtMISS:          0
cpu0_ITLB PREFETCH  REQUESTED:          0  ISSUED:          0  CROSSED:          0  USEFUL:     380670  USELESS:      82527
cpu0_ITLB AVERAGE iMISS LATENCY: 10.916 cycles
cpu0_ITLB AVERAGE dMISS LATENCY: 0 cycles
cpu0_ITLB AVERAGE itMISS LATENCY: 0 cycles
cpu0_ITLB AVERAGE dtMISS LATENCY: 0 cycles
cpu0_ITLB PAGE CROSSINGS (TLB HIT):         0 
cpu0_ITLB PAGE CROSSINGS (TLB MISS):         0 
cpu0_ITLB AVERAGE MISS LATENCY: 10.916 cycles
cpu0_DTLB TOTAL       ACCESS:   30338849  HIT:   25081501  MISS:    5257348  iACCESS:          0  iHIT:          0  iMISS:          0  dACCESS:   30338849  dHIT:   25081501  dMISS:    5257348  itACCESS:          0  itHIT:          0  itMISS:          0  dtACCESS:          0  dtHIT:          0  dtMISS:          0
cpu0_DTLB LOAD         ACCESS:   30338849  HIT:   25081501  MISS:    5257348  iACCESS:          0  iHIT:          0  iMISS:          0  dACCESS:   30338849  dHIT:   25081501  dMISS:    5257348  itACCESS:          0  itHIT:          0  itMISS:          0  dtACCESS:          0  dtHIT:          0  dtMISS:          0
cpu0_DTLB RFO          ACCESS:          0  HIT:          0  MISS:          0  iACCESS:          0  iHIT:          0  iMISS:          0  dACCESS:          0  dHIT:          0  dMISS:          0  itACCESS:          0  itHIT:          0  itMISS:          0  dtACCESS:          0  dtHIT:          0  dtMISS:          0
cpu0_DTLB PREFETCH     ACCESS:          0  HIT:          0  MISS:          0  iACCESS:          0  iHIT:          0  iMISS:          0  dACCESS:          0  dHIT:          0  dMISS:          0  itACCESS:          0  itHIT:          0  itMISS:          0  dtACCESS:          0  dtHIT:          0  dtMISS:          0
cpu0_DTLB WRITE        ACCESS:          0  HIT:          0  MISS:          0  iACCESS:          0  iHIT:          0  iMISS:          0  dACCESS:          0  dHIT:          0  dMISS:          0  itACCESS:          0  itHIT:          0  itMISS:          0  dtACCESS:          0  dtHIT:          0  dtMISS:          0
cpu0_DTLB TRANSLATION  ACCESS:          0  HIT:          0  MISS:          0  iACCESS:          0  iHIT:          0  iMISS:          0  dACCESS:          0  dHIT:          0  dMISS:          0  itACCESS:          0  itHIT:          0  itMISS:          0  dtACCESS:          0  dtHIT:          0  dtMISS:          0
cpu0_DTLB PREFETCH  REQUESTED:          0  ISSUED:          0  CROSSED:          0  USEFUL:          0  USELESS:          0
cpu0_DTLB AVERAGE iMISS LATENCY: 0 cycles
cpu0_DTLB AVERAGE dMISS LATENCY: 17.772 cycles
cpu0_DTLB AVERAGE itMISS LATENCY: 0 cycles
cpu0_DTLB AVERAGE dtMISS LATENCY: 0 cycles
cpu0_DTLB PAGE CROSSINGS (TLB HIT):         0 
cpu0_DTLB PAGE CROSSINGS (TLB MISS):         0 
cpu0_DTLB AVERAGE MISS LATENCY: 17.772 cycles
cpu0_STLB TOTAL       ACCESS:    3332963  HIT:    2964123  MISS:     368840  iACCESS:     463197  iHIT:     347288  iMISS:     115909  dACCESS:    2869766  dHIT:    2616835  dMISS:     252931  itACCESS:          0  itHIT:          0  itMISS:          0  dtACCESS:          0  dtHIT:          0  dtMISS:          0
cpu0_STLB LOAD         ACCESS:    3332963  HIT:    2964123  MISS:     368840  iACCESS:     463197  iHIT:     347288  iMISS:     115909  dACCESS:    2869766  dHIT:    2616835  dMISS:     252931  itACCESS:          0  itHIT:          0  itMISS:          0  dtACCESS:          0  dtHIT:          0  dtMISS:          0
cpu0_STLB RFO          ACCESS:          0  HIT:          0  MISS:          0  iACCESS:          0  iHIT:          0  iMISS:          0  dACCESS:          0  dHIT:          0  dMISS:          0  itACCESS:          0  itHIT:          0  itMISS:          0  dtACCESS:          0  dtHIT:          0  dtMISS:          0
cpu0_STLB PREFETCH     ACCESS:          0  HIT:          0  MISS:          0  iACCESS:          0  iHIT:          0  iMISS:          0  dACCESS:          0  dHIT:          0  dMISS:          0  itACCESS:          0  itHIT:          0  itMISS:          0  dtACCESS:          0  dtHIT:          0  dtMISS:          0
cpu0_STLB WRITE        ACCESS:          0  HIT:          0  MISS:          0  iACCESS:          0  iHIT:          0  iMISS:          0  dACCESS:          0  dHIT:          0  dMISS:          0  itACCESS:          0  itHIT:          0  itMISS:          0  dtACCESS:          0  dtHIT:          0  dtMISS:          0
cpu0_STLB TRANSLATION  ACCESS:          0  HIT:          0  MISS:          0  iACCESS:          0  iHIT:          0  iMISS:          0  dACCESS:          0  dHIT:          0  dMISS:          0  itACCESS:          0  itHIT:          0  itMISS:          0  dtACCESS:          0  dtHIT:          0  dtMISS:          0
cpu0_STLB PREFETCH  REQUESTED:          0  ISSUED:          0  CROSSED:          0  USEFUL:          0  USELESS:          0
cpu0_STLB AVERAGE iMISS LATENCY: 54.294 cycles
cpu0_STLB AVERAGE dMISS LATENCY: 190.367 cycles
cpu0_STLB AVERAGE itMISS LATENCY: 0 cycles
cpu0_STLB AVERAGE dtMISS LATENCY: 0 cycles
cpu0_STLB PAGE CROSSINGS (TLB HIT):         0 
cpu0_STLB PAGE CROSSINGS (TLB MISS):         0 
cpu0_STLB AVERAGE MISS LATENCY: 244.661 cycles
cpu0_L1D TOTAL       ACCESS:   47336296  HIT:   39776795  MISS:    7559501  iACCESS:          0  iHIT:          0  iMISS:          0  dACCESS:   46798780  dHIT:   39746418  dMISS:    7052362  itACCESS:     130205  itHIT:      13384  itMISS:     116821  dtACCESS:     407311  dtHIT:      16993  dtMISS:     390318
cpu0_L1D LOAD         ACCESS:   22018570  HIT:   18267930  MISS:    3750640  iACCESS:          0  iHIT:          0  iMISS:          0  dACCESS:   22018570  dHIT:   18267930  dMISS:    3750640  itACCESS:          0  itHIT:          0  itMISS:          0  dtACCESS:          0  dtHIT:          0  dtMISS:          0
cpu0_L1D RFO          ACCESS:          0  HIT:          0  MISS:          0  iACCESS:          0  iHIT:          0  iMISS:          0  dACCESS:          0  dHIT:          0  dMISS:          0  itACCESS:          0  itHIT:          0  itMISS:          0  dtACCESS:          0  dtHIT:          0  dtMISS:          0
cpu0_L1D PREFETCH     ACCESS:   14721725  HIT:   12036889  MISS:    2684836  iACCESS:          0  iHIT:          0  iMISS:          0  dACCESS:   14721725  dHIT:   12036889  dMISS:    2684836  itACCESS:          0  itHIT:          0  itMISS:          0  dtACCESS:          0  dtHIT:          0  dtMISS:          0
cpu0_L1D WRITE        ACCESS:   10058485  HIT:    9441599  MISS:     616886  iACCESS:          0  iHIT:          0  iMISS:          0  dACCESS:   10058485  dHIT:    9441599  dMISS:     616886  itACCESS:          0  itHIT:          0  itMISS:          0  dtACCESS:          0  dtHIT:          0  dtMISS:          0
cpu0_L1D TRANSLATION  ACCESS:     537516  HIT:      30377  MISS:     507139  iACCESS:          0  iHIT:          0  iMISS:          0  dACCESS:          0  dHIT:          0  dMISS:          0  itACCESS:     130205  itHIT:      13384  itMISS:     116821  dtACCESS:     407311  dtHIT:      16993  dtMISS:     390318
cpu0_L1D PREFETCH  REQUESTED:   22018570  ISSUED:   18868986  CROSSED:          0  USEFUL:     332422  USELESS:    1049591
cpu0_L1D AVERAGE iMISS LATENCY: 0 cycles
cpu0_L1D AVERAGE dMISS LATENCY: 38.9823 cycles
cpu0_L1D AVERAGE itMISS LATENCY: 2.50422 cycles
cpu0_L1D AVERAGE dtMISS LATENCY: 8.71324 cycles
cpu0_L1D PAGE CROSSINGS (TLB HIT):         0 
cpu0_L1D PAGE CROSSINGS (TLB MISS):         0 
cpu0_L1D AVERAGE MISS LATENCY: 50.1998 cycles
cpu0_L2C TOTAL       ACCESS:    9608449  HIT:    5250965  MISS:    4357484  iACCESS:    3631914  iHIT:    2150796  iMISS:    1481118  dACCESS:    5500764  dHIT:    3040002  dMISS:    2460762  itACCESS:     116370  itHIT:      19794  itMISS:      96576  dtACCESS:     359401  dtHIT:      40373  dtMISS:     319028
cpu0_L2C LOAD         ACCESS:    3167381  HIT:    2087694  MISS:    1079687  iACCESS:     819573  iHIT:     507974  iMISS:     311599  dACCESS:    2347808  dHIT:    1579720  dMISS:     768088  itACCESS:          0  itHIT:          0  itMISS:          0  dtACCESS:          0  dtHIT:          0  dtMISS:          0
cpu0_L2C RFO          ACCESS:     239980  HIT:     109905  MISS:     130075  iACCESS:          0  iHIT:          0  iMISS:          0  dACCESS:     239980  dHIT:     109905  dMISS:     130075  itACCESS:          0  itHIT:          0  itMISS:          0  dtACCESS:          0  dtHIT:          0  dtMISS:          0
cpu0_L2C PREFETCH     ACCESS:    5389190  HIT:    2667853  MISS:    2721337  iACCESS:    2812341  iHIT:    1642822  iMISS:    1169519  dACCESS:    2576849  dHIT:    1025031  dMISS:    1551818  itACCESS:          0  itHIT:          0  itMISS:          0  dtACCESS:          0  dtHIT:          0  dtMISS:          0
cpu0_L2C WRITE        ACCESS:     336127  HIT:     325346  MISS:      10781  iACCESS:          0  iHIT:          0  iMISS:          0  dACCESS:     336127  dHIT:     325346  dMISS:      10781  itACCESS:          0  itHIT:          0  itMISS:          0  dtACCESS:          0  dtHIT:          0  dtMISS:          0
cpu0_L2C TRANSLATION  ACCESS:     475771  HIT:      60167  MISS:     415604  iACCESS:          0  iHIT:          0  iMISS:          0  dACCESS:          0  dHIT:          0  dMISS:          0  itACCESS:     116370  itHIT:      19794  itMISS:      96576  dtACCESS:     359401  dtHIT:      40373  dtMISS:     319028
cpu0_L2C PREFETCH  REQUESTED:    1413746  ISSUED:    1413737  CROSSED:          0  USEFUL:     327340  USELESS:     310943
cpu0_L2C AVERAGE iMISS LATENCY: 40.8234 cycles
cpu0_L2C AVERAGE dMISS LATENCY: 78.4305 cycles
cpu0_L2C AVERAGE itMISS LATENCY: 4.08109 cycles
cpu0_L2C AVERAGE dtMISS LATENCY: 14.2958 cycles
cpu0_L2C PAGE CROSSINGS (TLB HIT):         0 
cpu0_L2C PAGE CROSSINGS (TLB MISS):         0 
cpu0_L2C AVERAGE MISS LATENCY: 137.631 cycles
LLC TOTAL       ACCESS:    4347776  HIT:    1344885  MISS:    3002891  iACCESS:    1400085  iHIT:     453703  iMISS:     946382  dACCESS:    2532087  dHIT:     852123  dMISS:    1679964  itACCESS:      96576  itHIT:       8046  itMISS:      88530  dtACCESS:     319028  dtHIT:      31013  dtMISS:     288015
LLC LOAD         ACCESS:    1072288  HIT:     372248  MISS:     700040  iACCESS:     310537  iHIT:     108678  iMISS:     201859  dACCESS:     761751  dHIT:     263570  dMISS:     498181  itACCESS:          0  itHIT:          0  itMISS:          0  dtACCESS:          0  dtHIT:          0  dtMISS:          0
LLC RFO          ACCESS:     130065  HIT:      37885  MISS:      92180  iACCESS:          0  iHIT:          0  iMISS:          0  dACCESS:     130065  dHIT:      37885  dMISS:      92180  itACCESS:          0  itHIT:          0  itMISS:          0  dtACCESS:          0  dtHIT:          0  dtMISS:          0
LLC PREFETCH     ACCESS:    2531013  HIT:     706598  MISS:    1824415  iACCESS:    1089548  iHIT:     345025  iMISS:     744523  dACCESS:    1441465  dHIT:     361573  dMISS:    1079892  itACCESS:          0  itHIT:          0  itMISS:          0  dtACCESS:          0  dtHIT:          0  dtMISS:          0
LLC WRITE        ACCESS:     198806  HIT:     189095  MISS:       9711  iACCESS:          0  iHIT:          0  iMISS:          0  dACCESS:     198806  dHIT:     189095  dMISS:       9711  itACCESS:          0  itHIT:          0  itMISS:          0  dtACCESS:          0  dtHIT:          0  dtMISS:          0
LLC TRANSLATION  ACCESS:     415604  HIT:      39059  MISS:     376545  iACCESS:          0  iHIT:          0  iMISS:          0  dACCESS:          0  dHIT:          0  dMISS:          0  itACCESS:      96576  itHIT:       8046  itMISS:      88530  dtACCESS:     319028  dtHIT:      31013  dtMISS:     288015
LLC PREFETCH  REQUESTED:          0  ISSUED:          0  CROSSED:          0  USEFUL:          0  USELESS:          0
LLC AVERAGE iMISS LATENCY: 50.0589 cycles
LLC AVERAGE dMISS LATENCY: 99.3883 cycles
LLC AVERAGE itMISS LATENCY: 5.2844 cycles
LLC AVERAGE dtMISS LATENCY: 18.6438 cycles
LLC PAGE CROSSINGS (TLB HIT):         0 
LLC PAGE CROSSINGS (TLB MISS):         0 
LLC AVERAGE MISS LATENCY: 173.376 cycles

PageTableWalker TOTAL       ACCESS:     182469  
PageTableWalker AVERAGE LATENCY: 6.42202 cycles
PageTableWalker TOTAL LATENCY: 1171818 cycles

DRAM Statistics
Channel 0
 RQ ROW_BUFFER_HIT:     616339
  ROW_BUFFER_MISS:    2358955
 AVG DBUS CONGESTED CYCLE:     3.6497
 WQ ROW_BUFFER_HIT:      63869
  ROW_BUFFER_MISS:      56197  FULL:          0

