last_page:0x200000000000000
VMEM_RES_CAP:0x100000
PAGE_SIZE:4096
LOG2_PAGE_SIZE:12
LOG2_PAGE_TABLE_SIZE:9
page_table_levels:5
WARNING: physical memory size is smaller than virtual memory size
FDiP enabled with aggresivity 16

*** ChampSim Multicore Out-of-Order Simulator ***

Warmup Instructions: 50000000
Simulation Instructions: 100000000
Number of CPUs: 1
Small page size: 4096
Large page size: 2097152

CPU 0 Bimodal branch predictor
Basic BTB sets: 1024 ways: 8 indirect buffer size: 4096 RAS size: 64
Instruction page size distrubution: 0
Loading instruction page size distribution from /home/bsc/bsc018186/scratch/itp_asplos25_AE/dump/smt_srv85_ap_srv697_ap_1024i.pdst
Data page size distrubution: 0
Loading data page size distribution from /home/bsc/bsc018186/scratch/itp_asplos25_AE/dump/smt_srv85_ap_srv697_ap_1024i.pdst
cpu0_L2C IP-based stride prefetcher
cpu0_L1D next line prefetcher
cpu0_STLB using iTP with max lru@8
cpu0_STLB using iTP with instr@0 and data@2
Init sat counter with 3 bits (max:50).
cpu0_L1I next line prefetcher
Off-chip DRAM Size: 4 GiB Channels: 1 Width: 64-bit Data Rate: 3200 MT/s
Heartbeat CPU 0 instructions: 10000002 cycles: 2500241 heartbeat IPC: 3.99962 cumulative IPC: 3.99962 (Simulation time: 0 hr 0 min 42 sec) 
Heartbeat CPU 0 instructions: 20000002 cycles: 5000467 heartbeat IPC: 3.99964 cumulative IPC: 3.99963 (Simulation time: 0 hr 1 min 25 sec) 
Heartbeat CPU 0 instructions: 30000001 cycles: 7500656 heartbeat IPC: 3.9997 cumulative IPC: 3.99966 (Simulation time: 0 hr 2 min 8 sec) 
Heartbeat CPU 0 instructions: 40000002 cycles: 10000778 heartbeat IPC: 3.99981 cumulative IPC: 3.99969 (Simulation time: 0 hr 2 min 50 sec) 
Heartbeat CPU 0 instructions: 50000003 cycles: 12500929 heartbeat IPC: 3.99976 cumulative IPC: 3.99971 (Simulation time: 0 hr 3 min 31 sec) 
Warmup finished CPU 0 instructions: 50000003 cycles: 12500930 cumulative IPC: 3.99971 (Simulation time: 0 hr 3 min 31 sec) 

Warmup complete CPU 0 instructions: 50000003 cycles: 12500930 (Simulation time: 0 hr 3 min 31 sec) 

Heartbeat CPU 0 instructions: 60000003 cycles: 39461899 heartbeat IPC: 0.370907 cumulative IPC: 0.370907 (Simulation time: 0 hr 4 min 57 sec) 
Heartbeat CPU 0 instructions: 70000002 cycles: 65543703 heartbeat IPC: 0.38341 cumulative IPC: 0.377055 (Simulation time: 0 hr 6 min 23 sec) 
Heartbeat CPU 0 instructions: 80000002 cycles: 92263905 heartbeat IPC: 0.374249 cumulative IPC: 0.376115 (Simulation time: 0 hr 7 min 50 sec) 
Heartbeat CPU 0 instructions: 90000002 cycles: 119649181 heartbeat IPC: 0.36516 cumulative IPC: 0.373315 (Simulation time: 0 hr 9 min 18 sec) 
Heartbeat CPU 0 instructions: 100000000 cycles: 146364421 heartbeat IPC: 0.374319 cumulative IPC: 0.373515 (Simulation time: 0 hr 10 min 42 sec) 
Heartbeat CPU 0 instructions: 110000002 cycles: 172819676 heartbeat IPC: 0.377997 cumulative IPC: 0.374255 (Simulation time: 0 hr 12 min 4 sec) 
Heartbeat CPU 0 instructions: 120000001 cycles: 199722563 heartbeat IPC: 0.371708 cumulative IPC: 0.373889 (Simulation time: 0 hr 13 min 36 sec) 
Heartbeat CPU 0 instructions: 130000004 cycles: 226668577 heartbeat IPC: 0.371113 cumulative IPC: 0.37354 (Simulation time: 0 hr 15 min 9 sec) 
Heartbeat CPU 0 instructions: 140000004 cycles: 252837830 heartbeat IPC: 0.382128 cumulative IPC: 0.374475 (Simulation time: 0 hr 16 min 44 sec) 
Heartbeat CPU 0 instructions: 150000002 cycles: 279942403 heartbeat IPC: 0.368942 cumulative IPC: 0.373914 (Simulation time: 0 hr 18 min 19 sec) 
Simulation finished CPU 0 instructions: 100000004 cycles: 267441475 cumulative IPC: 0.373914 (Simulation time: 0 hr 18 min 19 sec) 

Simulation complete CPU 0 instructions: 100000004 cycles: 267441475 (Simulation time: 0 hr 18 min 19 sec) 


ChampSim completed all CPUs

Saving instructions large page distribution to /home/bsc/bsc018186/scratch/itp_asplos25_AE/dump/smt_srv85_ap_srv697_ap_1024i.pdst...
Saving data large page distribution to /home/bsc/bsc018186/scratch/itp_asplos25_AE/dump/smt_srv85_ap_srv697_ap_1024i.pdst...
=== Simulation ===
CPU 0 runs /gpfs/projects/bsc18/MN4/bsc18/romol/ChampSim/traces/qualcomm_srv/smt_srv85_ap_srv697_ap_1024i.champsimtrace.xz

Region of Interest Statistics

CPU 0 cumulative IPC: 0.373914 instructions: 100000004 cycles: 267441475
CPU 0 Branch Prediction Accuracy: 75.8097% MPKI: 43.476 Average ROB Occupancy at Mispredict: 11.1165
Branch type MPKI
BRANCH_DIRECT_JUMP: 1.31006
BRANCH_INDIRECT: 22.7115
BRANCH_CONDITIONAL: 12.6022
BRANCH_DIRECT_CALL: 2.48505
BRANCH_INDIRECT_CALL: 0.92767
BRANCH_RETURN: 3.43951

Instructions large pages: 0
Instructions small pages: 13219
Large page distribution for instructions: 0%

Data large pages: 0
Data small pages: 11961
Large page distribution for data: 0%

cpu0_L1I TOTAL       ACCESS:   39454793  HIT:   30256538  MISS:    9198255  iACCESS:   39454793  iHIT:   30256538  iMISS:    9198255  dACCESS:          0  dHIT:          0  dMISS:          0  itACCESS:          0  itHIT:          0  itMISS:          0  dtACCESS:          0  dtHIT:          0  dtMISS:          0
cpu0_L1I LOAD         ACCESS:   11840890  HIT:    9339960  MISS:    2500930  iACCESS:   11840890  iHIT:    9339960  iMISS:    2500930  dACCESS:          0  dHIT:          0  dMISS:          0  itACCESS:          0  itHIT:          0  itMISS:          0  dtACCESS:          0  dtHIT:          0  dtMISS:          0
cpu0_L1I RFO          ACCESS:          0  HIT:          0  MISS:          0  iACCESS:          0  iHIT:          0  iMISS:          0  dACCESS:          0  dHIT:          0  dMISS:          0  itACCESS:          0  itHIT:          0  itMISS:          0  dtACCESS:          0  dtHIT:          0  dtMISS:          0
cpu0_L1I PREFETCH     ACCESS:   27613903  HIT:   20916578  MISS:    6697325  iACCESS:   27613903  iHIT:   20916578  iMISS:    6697325  dACCESS:          0  dHIT:          0  dMISS:          0  itACCESS:          0  itHIT:          0  itMISS:          0  dtACCESS:          0  dtHIT:          0  dtMISS:          0
cpu0_L1I WRITE        ACCESS:          0  HIT:          0  MISS:          0  iACCESS:          0  iHIT:          0  iMISS:          0  dACCESS:          0  dHIT:          0  dMISS:          0  itACCESS:          0  itHIT:          0  itMISS:          0  dtACCESS:          0  dtHIT:          0  dtMISS:          0
cpu0_L1I TRANSLATION  ACCESS:          0  HIT:          0  MISS:          0  iACCESS:          0  iHIT:          0  iMISS:          0  dACCESS:          0  dHIT:          0  dMISS:          0  itACCESS:          0  itHIT:          0  itMISS:          0  dtACCESS:          0  dtHIT:          0  dtMISS:          0
cpu0_L1I PREFETCH  REQUESTED:   30272034  ISSUED:   30270612  CROSSED:          0  USEFUL:    2203963  USELESS:     752473
cpu0_L1I AVERAGE iMISS LATENCY: 23.2372 cycles
cpu0_L1I AVERAGE dMISS LATENCY: 0 cycles
cpu0_L1I AVERAGE itMISS LATENCY: 0 cycles
cpu0_L1I AVERAGE dtMISS LATENCY: 0 cycles
cpu0_L1I PAGE CROSSINGS (TLB HIT):         0 
cpu0_L1I PAGE CROSSINGS (TLB MISS):         0 
cpu0_L1I AVERAGE MISS LATENCY: 23.2372 cycles
cpu0_ITLB TOTAL       ACCESS:   33080218  HIT:   30889010  MISS:    2191208  iACCESS:   33080218  iHIT:   30889010  iMISS:    2191208  dACCESS:          0  dHIT:          0  dMISS:          0  itACCESS:          0  itHIT:          0  itMISS:          0  dtACCESS:          0  dtHIT:          0  dtMISS:          0
cpu0_ITLB LOAD         ACCESS:   33080218  HIT:   30889010  MISS:    2191208  iACCESS:   33080218  iHIT:   30889010  iMISS:    2191208  dACCESS:          0  dHIT:          0  dMISS:          0  itACCESS:          0  itHIT:          0  itMISS:          0  dtACCESS:          0  dtHIT:          0  dtMISS:          0
cpu0_ITLB RFO          ACCESS:          0  HIT:          0  MISS:          0  iACCESS:          0  iHIT:          0  iMISS:          0  dACCESS:          0  dHIT:          0  dMISS:          0  itACCESS:          0  itHIT:          0  itMISS:          0  dtACCESS:          0  dtHIT:          0  dtMISS:          0
cpu0_ITLB PREFETCH     ACCESS:          0  HIT:          0  MISS:          0  iACCESS:          0  iHIT:          0  iMISS:          0  dACCESS:          0  dHIT:          0  dMISS:          0  itACCESS:          0  itHIT:          0  itMISS:          0  dtACCESS:          0  dtHIT:          0  dtMISS:          0
cpu0_ITLB WRITE        ACCESS:          0  HIT:          0  MISS:          0  iACCESS:          0  iHIT:          0  iMISS:          0  dACCESS:          0  dHIT:          0  dMISS:          0  itACCESS:          0  itHIT:          0  itMISS:          0  dtACCESS:          0  dtHIT:          0  dtMISS:          0
cpu0_ITLB TRANSLATION  ACCESS:          0  HIT:          0  MISS:          0  iACCESS:          0  iHIT:          0  iMISS:          0  dACCESS:          0  dHIT:          0  dMISS:          0  itACCESS:          0  itHIT:          0  itMISS:          0  dtACCESS:          0  dtHIT:          0  dtMISS:          0
cpu0_ITLB PREFETCH  REQUESTED:          0  ISSUED:          0  CROSSED:          0  USEFUL:     383723  USELESS:      77546
cpu0_ITLB AVERAGE iMISS LATENCY: 5.09812 cycles
cpu0_ITLB AVERAGE dMISS LATENCY: 0 cycles
cpu0_ITLB AVERAGE itMISS LATENCY: 0 cycles
cpu0_ITLB AVERAGE dtMISS LATENCY: 0 cycles
cpu0_ITLB PAGE CROSSINGS (TLB HIT):         0 
cpu0_ITLB PAGE CROSSINGS (TLB MISS):         0 
cpu0_ITLB AVERAGE MISS LATENCY: 5.09812 cycles
cpu0_DTLB TOTAL       ACCESS:   28797581  HIT:   25076339  MISS:    3721242  iACCESS:          0  iHIT:          0  iMISS:          0  dACCESS:   28797581  dHIT:   25076339  dMISS:    3721242  itACCESS:          0  itHIT:          0  itMISS:          0  dtACCESS:          0  dtHIT:          0  dtMISS:          0
cpu0_DTLB LOAD         ACCESS:   28797581  HIT:   25076339  MISS:    3721242  iACCESS:          0  iHIT:          0  iMISS:          0  dACCESS:   28797581  dHIT:   25076339  dMISS:    3721242  itACCESS:          0  itHIT:          0  itMISS:          0  dtACCESS:          0  dtHIT:          0  dtMISS:          0
cpu0_DTLB RFO          ACCESS:          0  HIT:          0  MISS:          0  iACCESS:          0  iHIT:          0  iMISS:          0  dACCESS:          0  dHIT:          0  dMISS:          0  itACCESS:          0  itHIT:          0  itMISS:          0  dtACCESS:          0  dtHIT:          0  dtMISS:          0
cpu0_DTLB PREFETCH     ACCESS:          0  HIT:          0  MISS:          0  iACCESS:          0  iHIT:          0  iMISS:          0  dACCESS:          0  dHIT:          0  dMISS:          0  itACCESS:          0  itHIT:          0  itMISS:          0  dtACCESS:          0  dtHIT:          0  dtMISS:          0
cpu0_DTLB WRITE        ACCESS:          0  HIT:          0  MISS:          0  iACCESS:          0  iHIT:          0  iMISS:          0  dACCESS:          0  dHIT:          0  dMISS:          0  itACCESS:          0  itHIT:          0  itMISS:          0  dtACCESS:          0  dtHIT:          0  dtMISS:          0
cpu0_DTLB TRANSLATION  ACCESS:          0  HIT:          0  MISS:          0  iACCESS:          0  iHIT:          0  iMISS:          0  dACCESS:          0  dHIT:          0  dMISS:          0  itACCESS:          0  itHIT:          0  itMISS:          0  dtACCESS:          0  dtHIT:          0  dtMISS:          0
cpu0_DTLB PREFETCH  REQUESTED:          0  ISSUED:          0  CROSSED:          0  USEFUL:          0  USELESS:          0
cpu0_DTLB AVERAGE iMISS LATENCY: 0 cycles
cpu0_DTLB AVERAGE dMISS LATENCY: 18.0511 cycles
cpu0_DTLB AVERAGE itMISS LATENCY: 0 cycles
cpu0_DTLB AVERAGE dtMISS LATENCY: 0 cycles
cpu0_DTLB PAGE CROSSINGS (TLB HIT):         0 
cpu0_DTLB PAGE CROSSINGS (TLB MISS):         0 
cpu0_DTLB AVERAGE MISS LATENCY: 18.0511 cycles
cpu0_STLB TOTAL       ACCESS:    2619958  HIT:    2255893  MISS:     364065  iACCESS:     461277  iHIT:     411140  iMISS:      50137  dACCESS:    2158681  dHIT:    1844753  dMISS:     313928  itACCESS:          0  itHIT:          0  itMISS:          0  dtACCESS:          0  dtHIT:          0  dtMISS:          0
cpu0_STLB LOAD         ACCESS:    2619958  HIT:    2255893  MISS:     364065  iACCESS:     461277  iHIT:     411140  iMISS:      50137  dACCESS:    2158681  dHIT:    1844753  dMISS:     313928  itACCESS:          0  itHIT:          0  itMISS:          0  dtACCESS:          0  dtHIT:          0  dtMISS:          0
cpu0_STLB RFO          ACCESS:          0  HIT:          0  MISS:          0  iACCESS:          0  iHIT:          0  iMISS:          0  dACCESS:          0  dHIT:          0  dMISS:          0  itACCESS:          0  itHIT:          0  itMISS:          0  dtACCESS:          0  dtHIT:          0  dtMISS:          0
cpu0_STLB PREFETCH     ACCESS:          0  HIT:          0  MISS:          0  iACCESS:          0  iHIT:          0  iMISS:          0  dACCESS:          0  dHIT:          0  dMISS:          0  itACCESS:          0  itHIT:          0  itMISS:          0  dtACCESS:          0  dtHIT:          0  dtMISS:          0
cpu0_STLB WRITE        ACCESS:          0  HIT:          0  MISS:          0  iACCESS:          0  iHIT:          0  iMISS:          0  dACCESS:          0  dHIT:          0  dMISS:          0  itACCESS:          0  itHIT:          0  itMISS:          0  dtACCESS:          0  dtHIT:          0  dtMISS:          0
cpu0_STLB TRANSLATION  ACCESS:          0  HIT:          0  MISS:          0  iACCESS:          0  iHIT:          0  iMISS:          0  dACCESS:          0  dHIT:          0  dMISS:          0  itACCESS:          0  itHIT:          0  itMISS:          0  dtACCESS:          0  dtHIT:          0  dtMISS:          0
cpu0_STLB PREFETCH  REQUESTED:          0  ISSUED:          0  CROSSED:          0  USEFUL:          0  USELESS:          0
cpu0_STLB AVERAGE iMISS LATENCY: 20.749 cycles
cpu0_STLB AVERAGE dMISS LATENCY: 136.735 cycles
cpu0_STLB AVERAGE itMISS LATENCY: 0 cycles
cpu0_STLB AVERAGE dtMISS LATENCY: 0 cycles
cpu0_STLB PAGE CROSSINGS (TLB HIT):         0 
cpu0_STLB PAGE CROSSINGS (TLB MISS):         0 
cpu0_STLB AVERAGE MISS LATENCY: 157.484 cycles
cpu0_L1D TOTAL       ACCESS:   44424193  HIT:   39100846  MISS:    5323347  iACCESS:          0  iHIT:          0  iMISS:          0  dACCESS:   43859522  dHIT:   39071439  dMISS:    4788083  itACCESS:      61463  itHIT:       5038  itMISS:      56425  dtACCESS:     503208  dtHIT:      24369  dtMISS:     478839
cpu0_L1D LOAD         ACCESS:   20000710  HIT:   17856935  MISS:    2143775  iACCESS:          0  iHIT:          0  iMISS:          0  dACCESS:   20000710  dHIT:   17856935  dMISS:    2143775  itACCESS:          0  itHIT:          0  itMISS:          0  dtACCESS:          0  dtHIT:          0  dtMISS:          0
cpu0_L1D RFO          ACCESS:          0  HIT:          0  MISS:          0  iACCESS:          0  iHIT:          0  iMISS:          0  dACCESS:          0  dHIT:          0  dMISS:          0  itACCESS:          0  itHIT:          0  itMISS:          0  dtACCESS:          0  dtHIT:          0  dtMISS:          0
cpu0_L1D PREFETCH     ACCESS:   13718256  HIT:   11635376  MISS:    2082880  iACCESS:          0  iHIT:          0  iMISS:          0  dACCESS:   13718256  dHIT:   11635376  dMISS:    2082880  itACCESS:          0  itHIT:          0  itMISS:          0  dtACCESS:          0  dtHIT:          0  dtMISS:          0
cpu0_L1D WRITE        ACCESS:   10140556  HIT:    9579128  MISS:     561428  iACCESS:          0  iHIT:          0  iMISS:          0  dACCESS:   10140556  dHIT:    9579128  dMISS:     561428  itACCESS:          0  itHIT:          0  itMISS:          0  dtACCESS:          0  dtHIT:          0  dtMISS:          0
cpu0_L1D TRANSLATION  ACCESS:     564671  HIT:      29407  MISS:     535264  iACCESS:          0  iHIT:          0  iMISS:          0  dACCESS:          0  dHIT:          0  dMISS:          0  itACCESS:      61463  itHIT:       5038  itMISS:      56425  dtACCESS:     503208  dtHIT:      24369  dtMISS:     478839
cpu0_L1D PREFETCH  REQUESTED:   20000710  ISSUED:   18367983  CROSSED:          0  USEFUL:     358334  USELESS:     933220
cpu0_L1D AVERAGE iMISS LATENCY: 0 cycles
cpu0_L1D AVERAGE dMISS LATENCY: 51.7621 cycles
cpu0_L1D AVERAGE itMISS LATENCY: 1.32133 cycles
cpu0_L1D AVERAGE dtMISS LATENCY: 8.2411 cycles
cpu0_L1D PAGE CROSSINGS (TLB HIT):         0 
cpu0_L1D PAGE CROSSINGS (TLB MISS):         0 
cpu0_L1D AVERAGE MISS LATENCY: 61.3245 cycles
cpu0_L2C TOTAL       ACCESS:    8583104  HIT:    1538331  MISS:    7044773  iACCESS:    3755340  iHIT:     784015  iMISS:    2971325  dACCESS:    4322421  dHIT:     541956  dMISS:    3780465  itACCESS:      54711  itHIT:      14964  itMISS:      39747  dtACCESS:     450632  dtHIT:     197396  dtMISS:     253236
cpu0_L2C LOAD         ACCESS:    2044646  HIT:     201495  MISS:    1843151  iACCESS:     836362  iHIT:     104507  iMISS:     731855  dACCESS:    1208284  dHIT:      96988  dMISS:    1111296  itACCESS:          0  itHIT:          0  itMISS:          0  dtACCESS:          0  dtHIT:          0  dtMISS:          0
cpu0_L2C RFO          ACCESS:     210236  HIT:      29733  MISS:     180503  iACCESS:          0  iHIT:          0  iMISS:          0  dACCESS:     210236  dHIT:      29733  dMISS:     180503  itACCESS:          0  itHIT:          0  itMISS:          0  dtACCESS:          0  dtHIT:          0  dtMISS:          0
cpu0_L2C PREFETCH     ACCESS:    5476814  HIT:     989309  MISS:    4487505  iACCESS:    2918978  iHIT:     679508  iMISS:    2239470  dACCESS:    2557836  dHIT:     309801  dMISS:    2248035  itACCESS:          0  itHIT:          0  itMISS:          0  dtACCESS:          0  dtHIT:          0  dtMISS:          0
cpu0_L2C WRITE        ACCESS:     346065  HIT:     105434  MISS:     240631  iACCESS:          0  iHIT:          0  iMISS:          0  dACCESS:     346065  dHIT:     105434  dMISS:     240631  itACCESS:          0  itHIT:          0  itMISS:          0  dtACCESS:          0  dtHIT:          0  dtMISS:          0
cpu0_L2C TRANSLATION  ACCESS:     505343  HIT:     212360  MISS:     292983  iACCESS:          0  iHIT:          0  iMISS:          0  dACCESS:          0  dHIT:          0  dMISS:          0  itACCESS:      54711  itHIT:      14964  itMISS:      39747  dtACCESS:     450632  dtHIT:     197396  dtMISS:     253236
cpu0_L2C PREFETCH  REQUESTED:    1511363  ISSUED:    1511360  CROSSED:          0  USEFUL:     419431  USELESS:     483412
cpu0_L2C AVERAGE iMISS LATENCY: 25.7554 cycles
cpu0_L2C AVERAGE dMISS LATENCY: 48.0384 cycles
cpu0_L2C AVERAGE itMISS LATENCY: 0.922721 cycles
cpu0_L2C AVERAGE dtMISS LATENCY: 5.61274 cycles
cpu0_L2C PAGE CROSSINGS (TLB HIT):         0 
cpu0_L2C PAGE CROSSINGS (TLB MISS):         0 
cpu0_L2C AVERAGE MISS LATENCY: 80.3292 cycles
LLC TOTAL       ACCESS:    6864998  HIT:    4299368  MISS:    2565630  iACCESS:    2880580  iHIT:    2084783  iMISS:     795797  dACCESS:    3691435  dHIT:    2137692  dMISS:    1553743  itACCESS:      39747  itHIT:       7769  itMISS:      31978  dtACCESS:     253236  dtHIT:      69124  dtMISS:     184112
LLC LOAD         ACCESS:    1837029  HIT:    1221100  MISS:     615929  iACCESS:     730483  iHIT:     566550  iMISS:     163933  dACCESS:    1106546  dHIT:     654550  dMISS:     451996  itACCESS:          0  itHIT:          0  itMISS:          0  dtACCESS:          0  dtHIT:          0  dtMISS:          0
LLC RFO          ACCESS:     180487  HIT:      95287  MISS:      85200  iACCESS:          0  iHIT:          0  iMISS:          0  dACCESS:     180487  dHIT:      95287  dMISS:      85200  itACCESS:          0  itHIT:          0  itMISS:          0  dtACCESS:          0  dtHIT:          0  dtMISS:          0
LLC PREFETCH     ACCESS:    4282187  HIT:    2641325  MISS:    1640862  iACCESS:    2150097  iHIT:    1518233  iMISS:     631864  dACCESS:    2132090  dHIT:    1123092  dMISS:    1008998  itACCESS:          0  itHIT:          0  itMISS:          0  dtACCESS:          0  dtHIT:          0  dtMISS:          0
LLC WRITE        ACCESS:     272312  HIT:     264763  MISS:       7549  iACCESS:          0  iHIT:          0  iMISS:          0  dACCESS:     272312  dHIT:     264763  dMISS:       7549  itACCESS:          0  itHIT:          0  itMISS:          0  dtACCESS:          0  dtHIT:          0  dtMISS:          0
LLC TRANSLATION  ACCESS:     292983  HIT:      76893  MISS:     216090  iACCESS:          0  iHIT:          0  iMISS:          0  dACCESS:          0  dHIT:          0  dMISS:          0  itACCESS:      39747  itHIT:       7769  itMISS:      31978  dtACCESS:     253236  dtHIT:      69124  dtMISS:     184112
LLC PREFETCH  REQUESTED:          0  ISSUED:          0  CROSSED:          0  USEFUL:          0  USELESS:          0
LLC AVERAGE iMISS LATENCY: 48.9362 cycles
LLC AVERAGE dMISS LATENCY: 106.583 cycles
LLC AVERAGE itMISS LATENCY: 2.22803 cycles
LLC AVERAGE dtMISS LATENCY: 13.4699 cycles
LLC PAGE CROSSINGS (TLB HIT):         0 
LLC PAGE CROSSINGS (TLB MISS):         0 
LLC AVERAGE MISS LATENCY: 171.217 cycles

PageTableWalker TOTAL       ACCESS:     179043  
PageTableWalker AVERAGE LATENCY: 6.18989 cycles
PageTableWalker TOTAL LATENCY: 1108256 cycles

DRAM Statistics
Channel 0
 RQ ROW_BUFFER_HIT:     574055
  ROW_BUFFER_MISS:    1974763
 AVG DBUS CONGESTED CYCLE:    3.65023
 WQ ROW_BUFFER_HIT:      63997
  ROW_BUFFER_MISS:      61978  FULL:          0

