last_page:0x200000000000000
VMEM_RES_CAP:0x100000
PAGE_SIZE:4096
LOG2_PAGE_SIZE:12
LOG2_PAGE_TABLE_SIZE:9
page_table_levels:5
WARNING: physical memory size is smaller than virtual memory size
FDiP enabled with aggresivity 16

*** ChampSim Multicore Out-of-Order Simulator ***

Warmup Instructions: 50000000
Simulation Instructions: 100000000
Number of CPUs: 1
Small page size: 4096
Large page size: 2097152

CPU 0 Bimodal branch predictor
Basic BTB sets: 1024 ways: 8 indirect buffer size: 4096 RAS size: 64
Instruction page size distrubution: 0
Loading instruction page size distribution from /home/bsc/bsc018186/scratch/itp_asplos25_AE/dump/smt_srv537_ap_srv551_ap_1024i.pdst
Data page size distrubution: 0
Loading data page size distribution from /home/bsc/bsc018186/scratch/itp_asplos25_AE/dump/smt_srv537_ap_srv551_ap_1024i.pdst
cpu0_L2C IP-based stride prefetcher
cpu0_L2C is using PTP replacement policy:
	TLB_STRESS_THRESHOLD:0
	PTE_EVICTION_RATIO:0
cpu0_L1D next line prefetcher
CHiRPing...
cpu0_L1I next line prefetcher
Off-chip DRAM Size: 4 GiB Channels: 1 Width: 64-bit Data Rate: 3200 MT/s
Heartbeat CPU 0 instructions: 10000001 cycles: 2500712 heartbeat IPC: 3.99887 cumulative IPC: 3.99887 (Simulation time: 0 hr 0 min 36 sec) 
Heartbeat CPU 0 instructions: 20000001 cycles: 5001085 heartbeat IPC: 3.99941 cumulative IPC: 3.99914 (Simulation time: 0 hr 1 min 14 sec) 
Heartbeat CPU 0 instructions: 30000002 cycles: 7501382 heartbeat IPC: 3.99953 cumulative IPC: 3.99927 (Simulation time: 0 hr 1 min 53 sec) 
Heartbeat CPU 0 instructions: 40000003 cycles: 10001681 heartbeat IPC: 3.99953 cumulative IPC: 3.99933 (Simulation time: 0 hr 2 min 31 sec) 
Heartbeat CPU 0 instructions: 50000001 cycles: 12502113 heartbeat IPC: 3.99931 cumulative IPC: 3.99933 (Simulation time: 0 hr 3 min 10 sec) 
Warmup finished CPU 0 instructions: 50000001 cycles: 12502114 cumulative IPC: 3.99933 (Simulation time: 0 hr 3 min 10 sec) 

Warmup complete CPU 0 instructions: 50000001 cycles: 12502114 (Simulation time: 0 hr 3 min 10 sec) 

Heartbeat CPU 0 instructions: 60000000 cycles: 42665027 heartbeat IPC: 0.331533 cumulative IPC: 0.331533 (Simulation time: 0 hr 4 min 32 sec) 
Heartbeat CPU 0 instructions: 70000000 cycles: 74176500 heartbeat IPC: 0.317345 cumulative IPC: 0.324284 (Simulation time: 0 hr 5 min 56 sec) 
Heartbeat CPU 0 instructions: 80000000 cycles: 104521947 heartbeat IPC: 0.329539 cumulative IPC: 0.326017 (Simulation time: 0 hr 7 min 19 sec) 
Heartbeat CPU 0 instructions: 90000000 cycles: 134501627 heartbeat IPC: 0.33356 cumulative IPC: 0.327871 (Simulation time: 0 hr 8 min 47 sec) 
Heartbeat CPU 0 instructions: 100000003 cycles: 164668031 heartbeat IPC: 0.331495 cumulative IPC: 0.328589 (Simulation time: 0 hr 10 min 9 sec) 
Heartbeat CPU 0 instructions: 110000000 cycles: 194654887 heartbeat IPC: 0.33348 cumulative IPC: 0.329394 (Simulation time: 0 hr 11 min 31 sec) 
Heartbeat CPU 0 instructions: 120000001 cycles: 219898401 heartbeat IPC: 0.396142 cumulative IPC: 0.337519 (Simulation time: 0 hr 12 min 48 sec) 
Heartbeat CPU 0 instructions: 130000000 cycles: 235720990 heartbeat IPC: 0.632008 cumulative IPC: 0.358393 (Simulation time: 0 hr 13 min 54 sec) 
Heartbeat CPU 0 instructions: 140000000 cycles: 253154281 heartbeat IPC: 0.573616 cumulative IPC: 0.373984 (Simulation time: 0 hr 15 min 1 sec) 
Heartbeat CPU 0 instructions: 150000002 cycles: 284227484 heartbeat IPC: 0.321821 cumulative IPC: 0.368019 (Simulation time: 0 hr 16 min 25 sec) 
Simulation finished CPU 0 instructions: 100000001 cycles: 271725371 cumulative IPC: 0.368019 (Simulation time: 0 hr 16 min 25 sec) 

Simulation complete CPU 0 instructions: 100000001 cycles: 271725371 (Simulation time: 0 hr 16 min 25 sec) 


ChampSim completed all CPUs

Saving instructions large page distribution to /home/bsc/bsc018186/scratch/itp_asplos25_AE/dump/smt_srv537_ap_srv551_ap_1024i.pdst...
Saving data large page distribution to /home/bsc/bsc018186/scratch/itp_asplos25_AE/dump/smt_srv537_ap_srv551_ap_1024i.pdst...
=== Simulation ===
CPU 0 runs /gpfs/projects/bsc18/MN4/bsc18/romol/ChampSim/traces/qualcomm_srv/smt_srv537_ap_srv551_ap_1024i.champsimtrace.xz

Region of Interest Statistics

CPU 0 cumulative IPC: 0.368019 instructions: 100000001 cycles: 271725371
CPU 0 Branch Prediction Accuracy: 77.9643% MPKI: 42.5818 Average ROB Occupancy at Mispredict: 11.047
Branch type MPKI
BRANCH_DIRECT_JUMP: 1.24462
BRANCH_INDIRECT: 22.852
BRANCH_CONDITIONAL: 11.7124
BRANCH_DIRECT_CALL: 2.38076
BRANCH_INDIRECT_CALL: 1.08293
BRANCH_RETURN: 3.30916

Instructions large pages: 0
Instructions small pages: 10737
Large page distribution for instructions: 0%

Data large pages: 0
Data small pages: 9299
Large page distribution for data: 0%

cpu0_L1I TOTAL       ACCESS:   39984349  HIT:   32224571  MISS:    7759778  iACCESS:   39984349  iHIT:   32224571  iMISS:    7759778  dACCESS:          0  dHIT:          0  dMISS:          0  itACCESS:          0  itHIT:          0  itMISS:          0  dtACCESS:          0  dtHIT:          0  dtMISS:          0
cpu0_L1I LOAD         ACCESS:   11456355  HIT:    9343147  MISS:    2113208  iACCESS:   11456355  iHIT:    9343147  iMISS:    2113208  dACCESS:          0  dHIT:          0  dMISS:          0  itACCESS:          0  itHIT:          0  itMISS:          0  dtACCESS:          0  dtHIT:          0  dtMISS:          0
cpu0_L1I RFO          ACCESS:          0  HIT:          0  MISS:          0  iACCESS:          0  iHIT:          0  iMISS:          0  dACCESS:          0  dHIT:          0  dMISS:          0  itACCESS:          0  itHIT:          0  itMISS:          0  dtACCESS:          0  dtHIT:          0  dtMISS:          0
cpu0_L1I PREFETCH     ACCESS:   28527994  HIT:   22881424  MISS:    5646570  iACCESS:   28527994  iHIT:   22881424  iMISS:    5646570  dACCESS:          0  dHIT:          0  dMISS:          0  itACCESS:          0  itHIT:          0  itMISS:          0  dtACCESS:          0  dtHIT:          0  dtMISS:          0
cpu0_L1I WRITE        ACCESS:          0  HIT:          0  MISS:          0  iACCESS:          0  iHIT:          0  iMISS:          0  dACCESS:          0  dHIT:          0  dMISS:          0  itACCESS:          0  itHIT:          0  itMISS:          0  dtACCESS:          0  dtHIT:          0  dtMISS:          0
cpu0_L1I TRANSLATION  ACCESS:          0  HIT:          0  MISS:          0  iACCESS:          0  iHIT:          0  iMISS:          0  dACCESS:          0  dHIT:          0  dMISS:          0  itACCESS:          0  itHIT:          0  itMISS:          0  dtACCESS:          0  dtHIT:          0  dtMISS:          0
cpu0_L1I PREFETCH  REQUESTED:   31260282  ISSUED:   31260108  CROSSED:          0  USEFUL:    1979196  USELESS:     685983
cpu0_L1I AVERAGE iMISS LATENCY: 23.9564 cycles
cpu0_L1I AVERAGE dMISS LATENCY: 0 cycles
cpu0_L1I AVERAGE itMISS LATENCY: 0 cycles
cpu0_L1I AVERAGE dtMISS LATENCY: 0 cycles
cpu0_L1I PAGE CROSSINGS (TLB HIT):         0 
cpu0_L1I PAGE CROSSINGS (TLB MISS):         0 
cpu0_L1I AVERAGE MISS LATENCY: 23.9564 cycles
cpu0_ITLB TOTAL       ACCESS:   33619572  HIT:   31625172  MISS:    1994400  iACCESS:   33619572  iHIT:   31625172  iMISS:    1994400  dACCESS:          0  dHIT:          0  dMISS:          0  itACCESS:          0  itHIT:          0  itMISS:          0  dtACCESS:          0  dtHIT:          0  dtMISS:          0
cpu0_ITLB LOAD         ACCESS:   33619572  HIT:   31625172  MISS:    1994400  iACCESS:   33619572  iHIT:   31625172  iMISS:    1994400  dACCESS:          0  dHIT:          0  dMISS:          0  itACCESS:          0  itHIT:          0  itMISS:          0  dtACCESS:          0  dtHIT:          0  dtMISS:          0
cpu0_ITLB RFO          ACCESS:          0  HIT:          0  MISS:          0  iACCESS:          0  iHIT:          0  iMISS:          0  dACCESS:          0  dHIT:          0  dMISS:          0  itACCESS:          0  itHIT:          0  itMISS:          0  dtACCESS:          0  dtHIT:          0  dtMISS:          0
cpu0_ITLB PREFETCH     ACCESS:          0  HIT:          0  MISS:          0  iACCESS:          0  iHIT:          0  iMISS:          0  dACCESS:          0  dHIT:          0  dMISS:          0  itACCESS:          0  itHIT:          0  itMISS:          0  dtACCESS:          0  dtHIT:          0  dtMISS:          0
cpu0_ITLB WRITE        ACCESS:          0  HIT:          0  MISS:          0  iACCESS:          0  iHIT:          0  iMISS:          0  dACCESS:          0  dHIT:          0  dMISS:          0  itACCESS:          0  itHIT:          0  itMISS:          0  dtACCESS:          0  dtHIT:          0  dtMISS:          0
cpu0_ITLB TRANSLATION  ACCESS:          0  HIT:          0  MISS:          0  iACCESS:          0  iHIT:          0  iMISS:          0  dACCESS:          0  dHIT:          0  dMISS:          0  itACCESS:          0  itHIT:          0  itMISS:          0  dtACCESS:          0  dtHIT:          0  dtMISS:          0
cpu0_ITLB PREFETCH  REQUESTED:          0  ISSUED:          0  CROSSED:          0  USEFUL:     349146  USELESS:      71153
cpu0_ITLB AVERAGE iMISS LATENCY: 10.1034 cycles
cpu0_ITLB AVERAGE dMISS LATENCY: 0 cycles
cpu0_ITLB AVERAGE itMISS LATENCY: 0 cycles
cpu0_ITLB AVERAGE dtMISS LATENCY: 0 cycles
cpu0_ITLB PAGE CROSSINGS (TLB HIT):         0 
cpu0_ITLB PAGE CROSSINGS (TLB MISS):         0 
cpu0_ITLB AVERAGE MISS LATENCY: 10.1034 cycles
cpu0_DTLB TOTAL       ACCESS:   30750226  HIT:   24776132  MISS:    5974094  iACCESS:          0  iHIT:          0  iMISS:          0  dACCESS:   30750226  dHIT:   24776132  dMISS:    5974094  itACCESS:          0  itHIT:          0  itMISS:          0  dtACCESS:          0  dtHIT:          0  dtMISS:          0
cpu0_DTLB LOAD         ACCESS:   30750226  HIT:   24776132  MISS:    5974094  iACCESS:          0  iHIT:          0  iMISS:          0  dACCESS:   30750226  dHIT:   24776132  dMISS:    5974094  itACCESS:          0  itHIT:          0  itMISS:          0  dtACCESS:          0  dtHIT:          0  dtMISS:          0
cpu0_DTLB RFO          ACCESS:          0  HIT:          0  MISS:          0  iACCESS:          0  iHIT:          0  iMISS:          0  dACCESS:          0  dHIT:          0  dMISS:          0  itACCESS:          0  itHIT:          0  itMISS:          0  dtACCESS:          0  dtHIT:          0  dtMISS:          0
cpu0_DTLB PREFETCH     ACCESS:          0  HIT:          0  MISS:          0  iACCESS:          0  iHIT:          0  iMISS:          0  dACCESS:          0  dHIT:          0  dMISS:          0  itACCESS:          0  itHIT:          0  itMISS:          0  dtACCESS:          0  dtHIT:          0  dtMISS:          0
cpu0_DTLB WRITE        ACCESS:          0  HIT:          0  MISS:          0  iACCESS:          0  iHIT:          0  iMISS:          0  dACCESS:          0  dHIT:          0  dMISS:          0  itACCESS:          0  itHIT:          0  itMISS:          0  dtACCESS:          0  dtHIT:          0  dtMISS:          0
cpu0_DTLB TRANSLATION  ACCESS:          0  HIT:          0  MISS:          0  iACCESS:          0  iHIT:          0  iMISS:          0  dACCESS:          0  dHIT:          0  dMISS:          0  itACCESS:          0  itHIT:          0  itMISS:          0  dtACCESS:          0  dtHIT:          0  dtMISS:          0
cpu0_DTLB PREFETCH  REQUESTED:          0  ISSUED:          0  CROSSED:          0  USEFUL:          0  USELESS:          0
cpu0_DTLB AVERAGE iMISS LATENCY: 0 cycles
cpu0_DTLB AVERAGE dMISS LATENCY: 14.3611 cycles
cpu0_DTLB AVERAGE itMISS LATENCY: 0 cycles
cpu0_DTLB AVERAGE dtMISS LATENCY: 0 cycles
cpu0_DTLB PAGE CROSSINGS (TLB HIT):         0 
cpu0_DTLB PAGE CROSSINGS (TLB MISS):         0 
cpu0_DTLB AVERAGE MISS LATENCY: 14.3611 cycles
cpu0_STLB TOTAL       ACCESS:    3539202  HIT:    3221467  MISS:     317735  iACCESS:     420304  iHIT:     316929  iMISS:     103375  dACCESS:    3118898  dHIT:    2904538  dMISS:     214360  itACCESS:          0  itHIT:          0  itMISS:          0  dtACCESS:          0  dtHIT:          0  dtMISS:          0
cpu0_STLB LOAD         ACCESS:    3539202  HIT:    3221467  MISS:     317735  iACCESS:     420304  iHIT:     316929  iMISS:     103375  dACCESS:    3118898  dHIT:    2904538  dMISS:     214360  itACCESS:          0  itHIT:          0  itMISS:          0  dtACCESS:          0  dtHIT:          0  dtMISS:          0
cpu0_STLB RFO          ACCESS:          0  HIT:          0  MISS:          0  iACCESS:          0  iHIT:          0  iMISS:          0  dACCESS:          0  dHIT:          0  dMISS:          0  itACCESS:          0  itHIT:          0  itMISS:          0  dtACCESS:          0  dtHIT:          0  dtMISS:          0
cpu0_STLB PREFETCH     ACCESS:          0  HIT:          0  MISS:          0  iACCESS:          0  iHIT:          0  iMISS:          0  dACCESS:          0  dHIT:          0  dMISS:          0  itACCESS:          0  itHIT:          0  itMISS:          0  dtACCESS:          0  dtHIT:          0  dtMISS:          0
cpu0_STLB WRITE        ACCESS:          0  HIT:          0  MISS:          0  iACCESS:          0  iHIT:          0  iMISS:          0  dACCESS:          0  dHIT:          0  dMISS:          0  itACCESS:          0  itHIT:          0  itMISS:          0  dtACCESS:          0  dtHIT:          0  dtMISS:          0
cpu0_STLB TRANSLATION  ACCESS:          0  HIT:          0  MISS:          0  iACCESS:          0  iHIT:          0  iMISS:          0  dACCESS:          0  dHIT:          0  dMISS:          0  itACCESS:          0  itHIT:          0  itMISS:          0  dtACCESS:          0  dtHIT:          0  dtMISS:          0
cpu0_STLB PREFETCH  REQUESTED:          0  ISSUED:          0  CROSSED:          0  USEFUL:          0  USELESS:          0
cpu0_STLB AVERAGE iMISS LATENCY: 52.8286 cycles
cpu0_STLB AVERAGE dMISS LATENCY: 190.61 cycles
cpu0_STLB AVERAGE itMISS LATENCY: 0 cycles
cpu0_STLB AVERAGE dtMISS LATENCY: 0 cycles
cpu0_STLB PAGE CROSSINGS (TLB HIT):         0 
cpu0_STLB PAGE CROSSINGS (TLB MISS):         0 
cpu0_STLB AVERAGE MISS LATENCY: 243.439 cycles
cpu0_L1D TOTAL       ACCESS:   47817935  HIT:   39648497  MISS:    8169438  iACCESS:          0  iHIT:          0  iMISS:          0  dACCESS:   47350979  dHIT:   39620752  dMISS:    7730227  itACCESS:     114557  itHIT:      13589  itMISS:     100968  dtACCESS:     352399  dtHIT:      14156  dtMISS:     338243
cpu0_L1D LOAD         ACCESS:   22720775  HIT:   18349597  MISS:    4371178  iACCESS:          0  iHIT:          0  iMISS:          0  dACCESS:   22720775  dHIT:   18349597  dMISS:    4371178  itACCESS:          0  itHIT:          0  itMISS:          0  dtACCESS:          0  dtHIT:          0  dtMISS:          0
cpu0_L1D RFO          ACCESS:          0  HIT:          0  MISS:          0  iACCESS:          0  iHIT:          0  iMISS:          0  dACCESS:          0  dHIT:          0  dMISS:          0  itACCESS:          0  itHIT:          0  itMISS:          0  dtACCESS:          0  dtHIT:          0  dtMISS:          0
cpu0_L1D PREFETCH     ACCESS:   14822731  HIT:   12020151  MISS:    2802580  iACCESS:          0  iHIT:          0  iMISS:          0  dACCESS:   14822731  dHIT:   12020151  dMISS:    2802580  itACCESS:          0  itHIT:          0  itMISS:          0  dtACCESS:          0  dtHIT:          0  dtMISS:          0
cpu0_L1D WRITE        ACCESS:    9807473  HIT:    9251004  MISS:     556469  iACCESS:          0  iHIT:          0  iMISS:          0  dACCESS:    9807473  dHIT:    9251004  dMISS:     556469  itACCESS:          0  itHIT:          0  itMISS:          0  dtACCESS:          0  dtHIT:          0  dtMISS:          0
cpu0_L1D TRANSLATION  ACCESS:     466956  HIT:      27745  MISS:     439211  iACCESS:          0  iHIT:          0  iMISS:          0  dACCESS:          0  dHIT:          0  dMISS:          0  itACCESS:     114557  itHIT:      13589  itMISS:     100968  dtACCESS:     352399  dtHIT:      14156  dtMISS:     338243
cpu0_L1D PREFETCH  REQUESTED:   22720775  ISSUED:   18849584  CROSSED:          0  USEFUL:     339721  USELESS:    1126186
cpu0_L1D AVERAGE iMISS LATENCY: 0 cycles
cpu0_L1D AVERAGE dMISS LATENCY: 33.235 cycles
cpu0_L1D AVERAGE itMISS LATENCY: 1.93336 cycles
cpu0_L1D AVERAGE dtMISS LATENCY: 6.90375 cycles
cpu0_L1D PAGE CROSSINGS (TLB HIT):         0 
cpu0_L1D PAGE CROSSINGS (TLB MISS):         0 
cpu0_L1D AVERAGE MISS LATENCY: 42.0721 cycles
cpu0_L2C TOTAL       ACCESS:    9916894  HIT:    5983862  MISS:    3933032  iACCESS:    3382860  iHIT:    2044606  iMISS:    1338254  dACCESS:    6126834  dHIT:    3887984  dMISS:    2238850  itACCESS:     100868  itHIT:      18818  itMISS:      82050  dtACCESS:     306332  dtHIT:      32454  dtMISS:     273878
cpu0_L2C LOAD         ACCESS:    3675962  HIT:    2737608  MISS:     938354  iACCESS:     750743  iHIT:     474512  iMISS:     276231  dACCESS:    2925219  dHIT:    2263096  dMISS:     662123  itACCESS:          0  itHIT:          0  itMISS:          0  dtACCESS:          0  dtHIT:          0  dtMISS:          0
cpu0_L2C RFO          ACCESS:     226906  HIT:     110966  MISS:     115940  iACCESS:          0  iHIT:          0  iMISS:          0  dACCESS:     226906  dHIT:     110966  dMISS:     115940  itACCESS:          0  itHIT:          0  itMISS:          0  dtACCESS:          0  dtHIT:          0  dtMISS:          0
cpu0_L2C PREFETCH     ACCESS:    5279059  HIT:    2764229  MISS:    2514830  iACCESS:    2632117  iHIT:    1570094  iMISS:    1062023  dACCESS:    2646942  dHIT:    1194135  dMISS:    1452807  itACCESS:          0  itHIT:          0  itMISS:          0  dtACCESS:          0  dtHIT:          0  dtMISS:          0
cpu0_L2C WRITE        ACCESS:     327767  HIT:     319787  MISS:       7980  iACCESS:          0  iHIT:          0  iMISS:          0  dACCESS:     327767  dHIT:     319787  dMISS:       7980  itACCESS:          0  itHIT:          0  itMISS:          0  dtACCESS:          0  dtHIT:          0  dtMISS:          0
cpu0_L2C TRANSLATION  ACCESS:     407200  HIT:      51272  MISS:     355928  iACCESS:          0  iHIT:          0  iMISS:          0  dACCESS:          0  dHIT:          0  dMISS:          0  itACCESS:     100868  itHIT:      18818  itMISS:      82050  dtACCESS:     306332  dtHIT:      32454  dtMISS:     273878
cpu0_L2C PREFETCH  REQUESTED:    1396751  ISSUED:    1396630  CROSSED:          0  USEFUL:     320326  USELESS:     291208
cpu0_L2C AVERAGE iMISS LATENCY: 40.0726 cycles
cpu0_L2C AVERAGE dMISS LATENCY: 77.2974 cycles
cpu0_L2C AVERAGE itMISS LATENCY: 3.76341 cycles
cpu0_L2C AVERAGE dtMISS LATENCY: 13.5652 cycles
cpu0_L2C PAGE CROSSINGS (TLB HIT):         0 
cpu0_L2C PAGE CROSSINGS (TLB MISS):         0 
cpu0_L2C AVERAGE MISS LATENCY: 134.699 cycles
LLC TOTAL       ACCESS:    3916098  HIT:    1230447  MISS:    2685651  iACCESS:    1258144  iHIT:     409224  iMISS:     848920  dACCESS:    2302026  dHIT:     786610  dMISS:    1515416  itACCESS:      82050  itHIT:       7834  itMISS:      74216  dtACCESS:     273878  dtHIT:      26779  dtMISS:     247099
LLC LOAD         ACCESS:     931480  HIT:     316713  MISS:     614767  iACCESS:     275171  iHIT:      95887  iMISS:     179284  dACCESS:     656309  dHIT:     220826  dMISS:     435483  itACCESS:          0  itHIT:          0  itMISS:          0  dtACCESS:          0  dtHIT:          0  dtMISS:          0
LLC RFO          ACCESS:     115937  HIT:      36025  MISS:      79912  iACCESS:          0  iHIT:          0  iMISS:          0  dACCESS:     115937  dHIT:      36025  dMISS:      79912  itACCESS:          0  itHIT:          0  itMISS:          0  dtACCESS:          0  dtHIT:          0  dtMISS:          0
LLC PREFETCH     ACCESS:    2326857  HIT:     666314  MISS:    1660543  iACCESS:     982973  iHIT:     313337  iMISS:     669636  dACCESS:    1343884  dHIT:     352977  dMISS:     990907  itACCESS:          0  itHIT:          0  itMISS:          0  dtACCESS:          0  dtHIT:          0  dtMISS:          0
LLC WRITE        ACCESS:     185896  HIT:     176782  MISS:       9114  iACCESS:          0  iHIT:          0  iMISS:          0  dACCESS:     185896  dHIT:     176782  dMISS:       9114  itACCESS:          0  itHIT:          0  itMISS:          0  dtACCESS:          0  dtHIT:          0  dtMISS:          0
LLC TRANSLATION  ACCESS:     355928  HIT:      34613  MISS:     321315  iACCESS:          0  iHIT:          0  iMISS:          0  dACCESS:          0  dHIT:          0  dMISS:          0  itACCESS:      82050  itHIT:       7834  itMISS:      74216  dtACCESS:     273878  dtHIT:      26779  dtMISS:     247099
LLC PREFETCH  REQUESTED:          0  ISSUED:          0  CROSSED:          0  USEFUL:          0  USELESS:          0
LLC AVERAGE iMISS LATENCY: 49.4623 cycles
LLC AVERAGE dMISS LATENCY: 98.5389 cycles
LLC AVERAGE itMISS LATENCY: 4.90585 cycles
LLC AVERAGE dtMISS LATENCY: 17.8492 cycles
LLC PAGE CROSSINGS (TLB HIT):         0 
LLC PAGE CROSSINGS (TLB MISS):         0 
LLC AVERAGE MISS LATENCY: 170.757 cycles

PageTableWalker TOTAL       ACCESS:     183752  
PageTableWalker AVERAGE LATENCY: 6.35322 cycles
PageTableWalker TOTAL LATENCY: 1167416 cycles

DRAM Statistics
Channel 0
 RQ ROW_BUFFER_HIT:     589002
  ROW_BUFFER_MISS:    2071250
 AVG DBUS CONGESTED CYCLE:    3.64925
 WQ ROW_BUFFER_HIT:      56547
  ROW_BUFFER_MISS:      48398  FULL:          0

