last_page:0x200000000000000
VMEM_RES_CAP:0x100000
PAGE_SIZE:4096
LOG2_PAGE_SIZE:12
LOG2_PAGE_TABLE_SIZE:9
page_table_levels:5
WARNING: physical memory size is smaller than virtual memory size
FDiP enabled with aggresivity 16

*** ChampSim Multicore Out-of-Order Simulator ***

Warmup Instructions: 50000000
Simulation Instructions: 100000000
Number of CPUs: 1
Small page size: 4096
Large page size: 2097152

CPU 0 Bimodal branch predictor
Basic BTB sets: 1024 ways: 8 indirect buffer size: 4096 RAS size: 64
Instruction page size distrubution: 0
Loading instruction page size distribution from /home/bsc/bsc018186/scratch/itp_asplos25_AE/dump/smt_srv12_ap_srv224_ap_1024i.pdst
Data page size distrubution: 0
Loading data page size distribution from /home/bsc/bsc018186/scratch/itp_asplos25_AE/dump/smt_srv12_ap_srv224_ap_1024i.pdst
cpu0_L2C IP-based stride prefetcher
cpu0_L1D next line prefetcher
cpu0_L1I next line prefetcher
Off-chip DRAM Size: 4 GiB Channels: 1 Width: 64-bit Data Rate: 3200 MT/s
Heartbeat CPU 0 instructions: 10000003 cycles: 2500795 heartbeat IPC: 3.99873 cumulative IPC: 3.99873 (Simulation time: 0 hr 0 min 43 sec) 
Heartbeat CPU 0 instructions: 20000001 cycles: 5001114 heartbeat IPC: 3.99949 cumulative IPC: 3.99911 (Simulation time: 0 hr 1 min 28 sec) 
Heartbeat CPU 0 instructions: 30000001 cycles: 7501813 heartbeat IPC: 3.99889 cumulative IPC: 3.99904 (Simulation time: 0 hr 2 min 12 sec) 
Heartbeat CPU 0 instructions: 40000003 cycles: 10049175 heartbeat IPC: 3.92564 cumulative IPC: 3.98043 (Simulation time: 0 hr 2 min 55 sec) 
Heartbeat CPU 0 instructions: 50000003 cycles: 12614005 heartbeat IPC: 3.8989 cumulative IPC: 3.96385 (Simulation time: 0 hr 3 min 43 sec) 
Warmup finished CPU 0 instructions: 50000003 cycles: 12614006 cumulative IPC: 3.96385 (Simulation time: 0 hr 3 min 43 sec) 

Warmup complete CPU 0 instructions: 50000003 cycles: 12614006 (Simulation time: 0 hr 3 min 43 sec) 

Heartbeat CPU 0 instructions: 60000002 cycles: 30342661 heartbeat IPC: 0.564059 cumulative IPC: 0.564059 (Simulation time: 0 hr 5 min 2 sec) 
Heartbeat CPU 0 instructions: 70000003 cycles: 60313724 heartbeat IPC: 0.333656 cumulative IPC: 0.41929 (Simulation time: 0 hr 6 min 34 sec) 
Heartbeat CPU 0 instructions: 80000001 cycles: 90287801 heartbeat IPC: 0.333622 cumulative IPC: 0.386231 (Simulation time: 0 hr 8 min 9 sec) 
Heartbeat CPU 0 instructions: 90000000 cycles: 117365477 heartbeat IPC: 0.369308 cumulative IPC: 0.381857 (Simulation time: 0 hr 9 min 36 sec) 
Heartbeat CPU 0 instructions: 100000000 cycles: 146762305 heartbeat IPC: 0.340173 cumulative IPC: 0.372722 (Simulation time: 0 hr 11 min 7 sec) 
Heartbeat CPU 0 instructions: 110000002 cycles: 176319718 heartbeat IPC: 0.338325 cumulative IPC: 0.366512 (Simulation time: 0 hr 12 min 33 sec) 
Heartbeat CPU 0 instructions: 120000000 cycles: 205727156 heartbeat IPC: 0.34005 cumulative IPC: 0.362482 (Simulation time: 0 hr 14 min 1 sec) 
Heartbeat CPU 0 instructions: 130000000 cycles: 235973822 heartbeat IPC: 0.330615 cumulative IPC: 0.358167 (Simulation time: 0 hr 15 min 28 sec) 
Heartbeat CPU 0 instructions: 140000000 cycles: 266347086 heartbeat IPC: 0.329237 cumulative IPC: 0.354704 (Simulation time: 0 hr 16 min 56 sec) 
Heartbeat CPU 0 instructions: 150000002 cycles: 296493047 heartbeat IPC: 0.33172 cumulative IPC: 0.352263 (Simulation time: 0 hr 18 min 24 sec) 
Simulation finished CPU 0 instructions: 100000004 cycles: 283879043 cumulative IPC: 0.352263 (Simulation time: 0 hr 18 min 24 sec) 

Simulation complete CPU 0 instructions: 100000004 cycles: 283879043 (Simulation time: 0 hr 18 min 24 sec) 


ChampSim completed all CPUs

Saving instructions large page distribution to /home/bsc/bsc018186/scratch/itp_asplos25_AE/dump/smt_srv12_ap_srv224_ap_1024i.pdst...
Saving data large page distribution to /home/bsc/bsc018186/scratch/itp_asplos25_AE/dump/smt_srv12_ap_srv224_ap_1024i.pdst...
=== Simulation ===
CPU 0 runs /gpfs/projects/bsc18/MN4/bsc18/romol/ChampSim/traces/qualcomm_srv/smt_srv12_ap_srv224_ap_1024i.champsimtrace.xz

Region of Interest Statistics

CPU 0 cumulative IPC: 0.352263 instructions: 100000004 cycles: 283879043
CPU 0 Branch Prediction Accuracy: 76.3527% MPKI: 44.0973 Average ROB Occupancy at Mispredict: 11.1688
Branch type MPKI
BRANCH_DIRECT_JUMP: 1.33596
BRANCH_INDIRECT: 22.914
BRANCH_CONDITIONAL: 12.8311
BRANCH_DIRECT_CALL: 2.51381
BRANCH_INDIRECT_CALL: 1.13488
BRANCH_RETURN: 3.36757

Instructions large pages: 0
Instructions small pages: 14953
Large page distribution for instructions: 0%

Data large pages: 0
Data small pages: 13161
Large page distribution for data: 0%

cpu0_L1I TOTAL       ACCESS:   39768713  HIT:   31633596  MISS:    8135117  iACCESS:   39768713  iHIT:   31633596  iMISS:    8135117  dACCESS:          0  dHIT:          0  dMISS:          0  itACCESS:          0  itHIT:          0  itMISS:          0  dtACCESS:          0  dtHIT:          0  dtMISS:          0
cpu0_L1I LOAD         ACCESS:   11694636  HIT:    9483910  MISS:    2210726  iACCESS:   11694636  iHIT:    9483910  iMISS:    2210726  dACCESS:          0  dHIT:          0  dMISS:          0  itACCESS:          0  itHIT:          0  itMISS:          0  dtACCESS:          0  dtHIT:          0  dtMISS:          0
cpu0_L1I RFO          ACCESS:          0  HIT:          0  MISS:          0  iACCESS:          0  iHIT:          0  iMISS:          0  dACCESS:          0  dHIT:          0  dMISS:          0  itACCESS:          0  itHIT:          0  itMISS:          0  dtACCESS:          0  dtHIT:          0  dtMISS:          0
cpu0_L1I PREFETCH     ACCESS:   28074077  HIT:   22149686  MISS:    5924391  iACCESS:   28074077  iHIT:   22149686  iMISS:    5924391  dACCESS:          0  dHIT:          0  dMISS:          0  itACCESS:          0  itHIT:          0  itMISS:          0  dtACCESS:          0  dtHIT:          0  dtMISS:          0
cpu0_L1I WRITE        ACCESS:          0  HIT:          0  MISS:          0  iACCESS:          0  iHIT:          0  iMISS:          0  dACCESS:          0  dHIT:          0  dMISS:          0  itACCESS:          0  itHIT:          0  itMISS:          0  dtACCESS:          0  dtHIT:          0  dtMISS:          0
cpu0_L1I TRANSLATION  ACCESS:          0  HIT:          0  MISS:          0  iACCESS:          0  iHIT:          0  iMISS:          0  dACCESS:          0  dHIT:          0  dMISS:          0  itACCESS:          0  itHIT:          0  itMISS:          0  dtACCESS:          0  dtHIT:          0  dtMISS:          0
cpu0_L1I PREFETCH  REQUESTED:   30880988  ISSUED:   30880947  CROSSED:          0  USEFUL:    2080007  USELESS:     716544
cpu0_L1I AVERAGE iMISS LATENCY: 24.0968 cycles
cpu0_L1I AVERAGE dMISS LATENCY: 0 cycles
cpu0_L1I AVERAGE itMISS LATENCY: 0 cycles
cpu0_L1I AVERAGE dtMISS LATENCY: 0 cycles
cpu0_L1I PAGE CROSSINGS (TLB HIT):         0 
cpu0_L1I PAGE CROSSINGS (TLB MISS):         0 
cpu0_L1I AVERAGE MISS LATENCY: 24.0968 cycles
cpu0_ITLB TOTAL       ACCESS:   33529672  HIT:   31448586  MISS:    2081086  iACCESS:   33529672  iHIT:   31448586  iMISS:    2081086  dACCESS:          0  dHIT:          0  dMISS:          0  itACCESS:          0  itHIT:          0  itMISS:          0  dtACCESS:          0  dtHIT:          0  dtMISS:          0
cpu0_ITLB LOAD         ACCESS:   33529672  HIT:   31448586  MISS:    2081086  iACCESS:   33529672  iHIT:   31448586  iMISS:    2081086  dACCESS:          0  dHIT:          0  dMISS:          0  itACCESS:          0  itHIT:          0  itMISS:          0  dtACCESS:          0  dtHIT:          0  dtMISS:          0
cpu0_ITLB RFO          ACCESS:          0  HIT:          0  MISS:          0  iACCESS:          0  iHIT:          0  iMISS:          0  dACCESS:          0  dHIT:          0  dMISS:          0  itACCESS:          0  itHIT:          0  itMISS:          0  dtACCESS:          0  dtHIT:          0  dtMISS:          0
cpu0_ITLB PREFETCH     ACCESS:          0  HIT:          0  MISS:          0  iACCESS:          0  iHIT:          0  iMISS:          0  dACCESS:          0  dHIT:          0  dMISS:          0  itACCESS:          0  itHIT:          0  itMISS:          0  dtACCESS:          0  dtHIT:          0  dtMISS:          0
cpu0_ITLB WRITE        ACCESS:          0  HIT:          0  MISS:          0  iACCESS:          0  iHIT:          0  iMISS:          0  dACCESS:          0  dHIT:          0  dMISS:          0  itACCESS:          0  itHIT:          0  itMISS:          0  dtACCESS:          0  dtHIT:          0  dtMISS:          0
cpu0_ITLB TRANSLATION  ACCESS:          0  HIT:          0  MISS:          0  iACCESS:          0  iHIT:          0  iMISS:          0  dACCESS:          0  dHIT:          0  dMISS:          0  itACCESS:          0  itHIT:          0  itMISS:          0  dtACCESS:          0  dtHIT:          0  dtMISS:          0
cpu0_ITLB PREFETCH  REQUESTED:          0  ISSUED:          0  CROSSED:          0  USEFUL:     366172  USELESS:      75506
cpu0_ITLB AVERAGE iMISS LATENCY: 10.4898 cycles
cpu0_ITLB AVERAGE dMISS LATENCY: 0 cycles
cpu0_ITLB AVERAGE itMISS LATENCY: 0 cycles
cpu0_ITLB AVERAGE dtMISS LATENCY: 0 cycles
cpu0_ITLB PAGE CROSSINGS (TLB HIT):         0 
cpu0_ITLB PAGE CROSSINGS (TLB MISS):         0 
cpu0_ITLB AVERAGE MISS LATENCY: 10.4898 cycles
cpu0_DTLB TOTAL       ACCESS:   29773584  HIT:   25132358  MISS:    4641226  iACCESS:          0  iHIT:          0  iMISS:          0  dACCESS:   29773584  dHIT:   25132358  dMISS:    4641226  itACCESS:          0  itHIT:          0  itMISS:          0  dtACCESS:          0  dtHIT:          0  dtMISS:          0
cpu0_DTLB LOAD         ACCESS:   29773584  HIT:   25132358  MISS:    4641226  iACCESS:          0  iHIT:          0  iMISS:          0  dACCESS:   29773584  dHIT:   25132358  dMISS:    4641226  itACCESS:          0  itHIT:          0  itMISS:          0  dtACCESS:          0  dtHIT:          0  dtMISS:          0
cpu0_DTLB RFO          ACCESS:          0  HIT:          0  MISS:          0  iACCESS:          0  iHIT:          0  iMISS:          0  dACCESS:          0  dHIT:          0  dMISS:          0  itACCESS:          0  itHIT:          0  itMISS:          0  dtACCESS:          0  dtHIT:          0  dtMISS:          0
cpu0_DTLB PREFETCH     ACCESS:          0  HIT:          0  MISS:          0  iACCESS:          0  iHIT:          0  iMISS:          0  dACCESS:          0  dHIT:          0  dMISS:          0  itACCESS:          0  itHIT:          0  itMISS:          0  dtACCESS:          0  dtHIT:          0  dtMISS:          0
cpu0_DTLB WRITE        ACCESS:          0  HIT:          0  MISS:          0  iACCESS:          0  iHIT:          0  iMISS:          0  dACCESS:          0  dHIT:          0  dMISS:          0  itACCESS:          0  itHIT:          0  itMISS:          0  dtACCESS:          0  dtHIT:          0  dtMISS:          0
cpu0_DTLB TRANSLATION  ACCESS:          0  HIT:          0  MISS:          0  iACCESS:          0  iHIT:          0  iMISS:          0  dACCESS:          0  dHIT:          0  dMISS:          0  itACCESS:          0  itHIT:          0  itMISS:          0  dtACCESS:          0  dtHIT:          0  dtMISS:          0
cpu0_DTLB PREFETCH  REQUESTED:          0  ISSUED:          0  CROSSED:          0  USEFUL:          0  USELESS:          0
cpu0_DTLB AVERAGE iMISS LATENCY: 0 cycles
cpu0_DTLB AVERAGE dMISS LATENCY: 18.7325 cycles
cpu0_DTLB AVERAGE itMISS LATENCY: 0 cycles
cpu0_DTLB AVERAGE dtMISS LATENCY: 0 cycles
cpu0_DTLB PAGE CROSSINGS (TLB HIT):         0 
cpu0_DTLB PAGE CROSSINGS (TLB MISS):         0 
cpu0_DTLB AVERAGE MISS LATENCY: 18.7325 cycles
cpu0_STLB TOTAL       ACCESS:    3004273  HIT:    2661999  MISS:     342274  iACCESS:     441684  iHIT:     334640  iMISS:     107044  dACCESS:    2562589  dHIT:    2327359  dMISS:     235230  itACCESS:          0  itHIT:          0  itMISS:          0  dtACCESS:          0  dtHIT:          0  dtMISS:          0
cpu0_STLB LOAD         ACCESS:    3004273  HIT:    2661999  MISS:     342274  iACCESS:     441684  iHIT:     334640  iMISS:     107044  dACCESS:    2562589  dHIT:    2327359  dMISS:     235230  itACCESS:          0  itHIT:          0  itMISS:          0  dtACCESS:          0  dtHIT:          0  dtMISS:          0
cpu0_STLB RFO          ACCESS:          0  HIT:          0  MISS:          0  iACCESS:          0  iHIT:          0  iMISS:          0  dACCESS:          0  dHIT:          0  dMISS:          0  itACCESS:          0  itHIT:          0  itMISS:          0  dtACCESS:          0  dtHIT:          0  dtMISS:          0
cpu0_STLB PREFETCH     ACCESS:          0  HIT:          0  MISS:          0  iACCESS:          0  iHIT:          0  iMISS:          0  dACCESS:          0  dHIT:          0  dMISS:          0  itACCESS:          0  itHIT:          0  itMISS:          0  dtACCESS:          0  dtHIT:          0  dtMISS:          0
cpu0_STLB WRITE        ACCESS:          0  HIT:          0  MISS:          0  iACCESS:          0  iHIT:          0  iMISS:          0  dACCESS:          0  dHIT:          0  dMISS:          0  itACCESS:          0  itHIT:          0  itMISS:          0  dtACCESS:          0  dtHIT:          0  dtMISS:          0
cpu0_STLB TRANSLATION  ACCESS:          0  HIT:          0  MISS:          0  iACCESS:          0  iHIT:          0  iMISS:          0  dACCESS:          0  dHIT:          0  dMISS:          0  itACCESS:          0  itHIT:          0  itMISS:          0  dtACCESS:          0  dtHIT:          0  dtMISS:          0
cpu0_STLB PREFETCH  REQUESTED:          0  ISSUED:          0  CROSSED:          0  USEFUL:          0  USELESS:          0
cpu0_STLB AVERAGE iMISS LATENCY: 53.459 cycles
cpu0_STLB AVERAGE dMISS LATENCY: 193.601 cycles
cpu0_STLB AVERAGE itMISS LATENCY: 0 cycles
cpu0_STLB AVERAGE dtMISS LATENCY: 0 cycles
cpu0_STLB PAGE CROSSINGS (TLB HIT):         0 
cpu0_STLB PAGE CROSSINGS (TLB MISS):         0 
cpu0_STLB AVERAGE MISS LATENCY: 247.06 cycles
cpu0_L1D TOTAL       ACCESS:   45861691  HIT:   39584358  MISS:    6277333  iACCESS:          0  iHIT:          0  iMISS:          0  dACCESS:   45356405  dHIT:   39554049  dMISS:    5802356  itACCESS:     120118  itHIT:      13111  itMISS:     107007  dtACCESS:     385168  dtHIT:      17198  dtMISS:     367970
cpu0_L1D LOAD         ACCESS:   21220970  HIT:   18270668  MISS:    2950302  iACCESS:          0  iHIT:          0  iMISS:          0  dACCESS:   21220970  dHIT:   18270668  dMISS:    2950302  itACCESS:          0  itHIT:          0  itMISS:          0  dtACCESS:          0  dtHIT:          0  dtMISS:          0
cpu0_L1D RFO          ACCESS:          0  HIT:          0  MISS:          0  iACCESS:          0  iHIT:          0  iMISS:          0  dACCESS:          0  dHIT:          0  dMISS:          0  itACCESS:          0  itHIT:          0  itMISS:          0  dtACCESS:          0  dtHIT:          0  dtMISS:          0
cpu0_L1D PREFETCH     ACCESS:   14086553  HIT:   11783136  MISS:    2303417  iACCESS:          0  iHIT:          0  iMISS:          0  dACCESS:   14086553  dHIT:   11783136  dMISS:    2303417  itACCESS:          0  itHIT:          0  itMISS:          0  dtACCESS:          0  dtHIT:          0  dtMISS:          0
cpu0_L1D WRITE        ACCESS:   10048882  HIT:    9500245  MISS:     548637  iACCESS:          0  iHIT:          0  iMISS:          0  dACCESS:   10048882  dHIT:    9500245  dMISS:     548637  itACCESS:          0  itHIT:          0  itMISS:          0  dtACCESS:          0  dtHIT:          0  dtMISS:          0
cpu0_L1D TRANSLATION  ACCESS:     505286  HIT:      30309  MISS:     474977  iACCESS:          0  iHIT:          0  iMISS:          0  dACCESS:          0  dHIT:          0  dMISS:          0  itACCESS:     120118  itHIT:      13111  itMISS:     107007  dtACCESS:     385168  dtHIT:      17198  dtMISS:     367970
cpu0_L1D PREFETCH  REQUESTED:   21220970  ISSUED:   18719536  CROSSED:          0  USEFUL:     343484  USELESS:    1021238
cpu0_L1D AVERAGE iMISS LATENCY: 0 cycles
cpu0_L1D AVERAGE dMISS LATENCY: 42.2053 cycles
cpu0_L1D AVERAGE itMISS LATENCY: 2.7417 cycles
cpu0_L1D AVERAGE dtMISS LATENCY: 9.73377 cycles
cpu0_L1D PAGE CROSSINGS (TLB HIT):         0 
cpu0_L1D PAGE CROSSINGS (TLB MISS):         0 
cpu0_L1D AVERAGE MISS LATENCY: 54.6808 cycles
cpu0_L2C TOTAL       ACCESS:    9033120  HIT:    4909202  MISS:    4123918  iACCESS:    3547508  iHIT:    2140898  iMISS:    1406610  dACCESS:    5040454  dHIT:    2713209  dMISS:    2327245  itACCESS:     106585  itHIT:      18683  itMISS:      87902  dtACCESS:     338573  dtHIT:      36412  dtMISS:     302161
cpu0_L2C LOAD         ACCESS:    2684551  HIT:    1719799  MISS:     964752  iACCESS:     787499  iHIT:     497219  iMISS:     290280  dACCESS:    1897052  dHIT:    1222580  dMISS:     674472  itACCESS:          0  itHIT:          0  itMISS:          0  dtACCESS:          0  dtHIT:          0  dtMISS:          0
cpu0_L2C RFO          ACCESS:     216605  HIT:      96128  MISS:     120477  iACCESS:          0  iHIT:          0  iMISS:          0  dACCESS:     216605  dHIT:      96128  dMISS:     120477  itACCESS:          0  itHIT:          0  itMISS:          0  dtACCESS:          0  dtHIT:          0  dtMISS:          0
cpu0_L2C PREFETCH     ACCESS:    5357399  HIT:    2712810  MISS:    2644589  iACCESS:    2760009  iHIT:    1643679  iMISS:    1116330  dACCESS:    2597390  dHIT:    1069131  dMISS:    1528259  itACCESS:          0  itHIT:          0  itMISS:          0  dtACCESS:          0  dtHIT:          0  dtMISS:          0
cpu0_L2C WRITE        ACCESS:     329407  HIT:     325370  MISS:       4037  iACCESS:          0  iHIT:          0  iMISS:          0  dACCESS:     329407  dHIT:     325370  dMISS:       4037  itACCESS:          0  itHIT:          0  itMISS:          0  dtACCESS:          0  dtHIT:          0  dtMISS:          0
cpu0_L2C TRANSLATION  ACCESS:     445158  HIT:      55095  MISS:     390063  iACCESS:          0  iHIT:          0  iMISS:          0  dACCESS:          0  dHIT:          0  dMISS:          0  itACCESS:     106585  itHIT:      18683  itMISS:      87902  dtACCESS:     338573  dtHIT:      36412  dtMISS:     302161
cpu0_L2C PREFETCH  REQUESTED:    1451609  ISSUED:    1451571  CROSSED:          0  USEFUL:     343544  USELESS:     307121
cpu0_L2C AVERAGE iMISS LATENCY: 40.2724 cycles
cpu0_L2C AVERAGE dMISS LATENCY: 76.819 cycles
cpu0_L2C AVERAGE itMISS LATENCY: 3.91872 cycles
cpu0_L2C AVERAGE dtMISS LATENCY: 13.9998 cycles
cpu0_L2C PAGE CROSSINGS (TLB HIT):         0 
cpu0_L2C PAGE CROSSINGS (TLB MISS):         0 
cpu0_L2C AVERAGE MISS LATENCY: 135.01 cycles
LLC TOTAL       ACCESS:    4116992  HIT:    1281626  MISS:    2835366  iACCESS:    1320884  iHIT:     423590  iMISS:     897294  dACCESS:    2406045  dHIT:     819310  dMISS:    1586735  itACCESS:      87902  itHIT:       6312  itMISS:      81590  dtACCESS:     302161  dtHIT:      32414  dtMISS:     269747
LLC LOAD         ACCESS:     959894  HIT:     318200  MISS:     641694  iACCESS:     289021  iHIT:      99561  iMISS:     189460  dACCESS:     670873  dHIT:     218639  dMISS:     452234  itACCESS:          0  itHIT:          0  itMISS:          0  dtACCESS:          0  dtHIT:          0  dtMISS:          0
LLC RFO          ACCESS:     120464  HIT:      38011  MISS:      82453  iACCESS:          0  iHIT:          0  iMISS:          0  dACCESS:     120464  dHIT:      38011  dMISS:      82453  itACCESS:          0  itHIT:          0  itMISS:          0  dtACCESS:          0  dtHIT:          0  dtMISS:          0
LLC PREFETCH     ACCESS:    2449902  HIT:     699871  MISS:    1750031  iACCESS:    1031863  iHIT:     324029  iMISS:     707834  dACCESS:    1418039  dHIT:     375842  dMISS:    1042197  itACCESS:          0  itHIT:          0  itMISS:          0  dtACCESS:          0  dtHIT:          0  dtMISS:          0
LLC WRITE        ACCESS:     196669  HIT:     186818  MISS:       9851  iACCESS:          0  iHIT:          0  iMISS:          0  dACCESS:     196669  dHIT:     186818  dMISS:       9851  itACCESS:          0  itHIT:          0  itMISS:          0  dtACCESS:          0  dtHIT:          0  dtMISS:          0
LLC TRANSLATION  ACCESS:     390063  HIT:      38726  MISS:     351337  iACCESS:          0  iHIT:          0  iMISS:          0  dACCESS:          0  dHIT:          0  dMISS:          0  itACCESS:      87902  itHIT:       6312  itMISS:      81590  dtACCESS:     302161  dtHIT:      32414  dtMISS:     269747
LLC PREFETCH  REQUESTED:          0  ISSUED:          0  CROSSED:          0  USEFUL:          0  USELESS:          0
LLC AVERAGE iMISS LATENCY: 49.394 cycles
LLC AVERAGE dMISS LATENCY: 97.0094 cycles
LLC AVERAGE itMISS LATENCY: 5.08454 cycles
LLC AVERAGE dtMISS LATENCY: 18.2559 cycles
LLC PAGE CROSSINGS (TLB HIT):         0 
LLC PAGE CROSSINGS (TLB MISS):         0 
LLC AVERAGE MISS LATENCY: 169.744 cycles

PageTableWalker TOTAL       ACCESS:     156037  
PageTableWalker AVERAGE LATENCY: 6.58271 cycles
PageTableWalker TOTAL LATENCY: 1027145 cycles

DRAM Statistics
Channel 0
 RQ ROW_BUFFER_HIT:     635887
  ROW_BUFFER_MISS:    2179958
 AVG DBUS CONGESTED CYCLE:    3.64739
 WQ ROW_BUFFER_HIT:      59179
  ROW_BUFFER_MISS:      49652  FULL:          0

