last_page:0x200000000000000
VMEM_RES_CAP:0x100000
PAGE_SIZE:4096
LOG2_PAGE_SIZE:12
LOG2_PAGE_TABLE_SIZE:9
page_table_levels:5
WARNING: physical memory size is smaller than virtual memory size
FDiP enabled with aggresivity 16

*** ChampSim Multicore Out-of-Order Simulator ***

Warmup Instructions: 50000000
Simulation Instructions: 100000000
Number of CPUs: 1
Small page size: 4096
Large page size: 2097152

CPU 0 Bimodal branch predictor
Basic BTB sets: 1024 ways: 8 indirect buffer size: 4096 RAS size: 64
Instruction page size distrubution: 0
Loading instruction page size distribution from /home/bsc/bsc018186/scratch/itp_asplos25_AE/dump/smt_srv85_ap_srv727_ap_1024i.pdst
Data page size distrubution: 0
Loading data page size distribution from /home/bsc/bsc018186/scratch/itp_asplos25_AE/dump/smt_srv85_ap_srv727_ap_1024i.pdst
cpu0_L2C IP-based stride prefetcher
cpu0_L2C is using xPTP/LRU
	TLB_LOWER_STRESS_THRESHOLD:1
	TLB_UPPER_STRESS_THRESHOLD:4
	MIN_EVICTION_POSITION:4
cpu0_L1D next line prefetcher
cpu0_STLB using iTP with max lru@8
cpu0_STLB using iTP with instr@0 and data@2
Init sat counter with 3 bits (max:50).
cpu0_L1I next line prefetcher
Off-chip DRAM Size: 4 GiB Channels: 1 Width: 64-bit Data Rate: 3200 MT/s
Heartbeat CPU 0 instructions: 10000002 cycles: 2500375 heartbeat IPC: 3.99941 cumulative IPC: 3.99941 (Simulation time: 0 hr 0 min 37 sec) 
Heartbeat CPU 0 instructions: 20000000 cycles: 5000523 heartbeat IPC: 3.99977 cumulative IPC: 3.99959 (Simulation time: 0 hr 1 min 16 sec) 
Heartbeat CPU 0 instructions: 30000001 cycles: 7500786 heartbeat IPC: 3.99958 cumulative IPC: 3.99959 (Simulation time: 0 hr 1 min 55 sec) 
Heartbeat CPU 0 instructions: 40000000 cycles: 10001028 heartbeat IPC: 3.99962 cumulative IPC: 3.99959 (Simulation time: 0 hr 2 min 34 sec) 
Heartbeat CPU 0 instructions: 50000001 cycles: 12501102 heartbeat IPC: 3.99989 cumulative IPC: 3.99965 (Simulation time: 0 hr 3 min 14 sec) 
Warmup finished CPU 0 instructions: 50000001 cycles: 12501103 cumulative IPC: 3.99965 (Simulation time: 0 hr 3 min 14 sec) 

Warmup complete CPU 0 instructions: 50000001 cycles: 12501103 (Simulation time: 0 hr 3 min 14 sec) 

Heartbeat CPU 0 instructions: 60000004 cycles: 39326876 heartbeat IPC: 0.372776 cumulative IPC: 0.372776 (Simulation time: 0 hr 4 min 32 sec) 
Heartbeat CPU 0 instructions: 70000001 cycles: 66752472 heartbeat IPC: 0.364623 cumulative IPC: 0.368655 (Simulation time: 0 hr 5 min 52 sec) 
Heartbeat CPU 0 instructions: 80000003 cycles: 94529630 heartbeat IPC: 0.360009 cumulative IPC: 0.365727 (Simulation time: 0 hr 7 min 12 sec) 
Heartbeat CPU 0 instructions: 90000002 cycles: 122047444 heartbeat IPC: 0.363401 cumulative IPC: 0.365143 (Simulation time: 0 hr 8 min 32 sec) 
Heartbeat CPU 0 instructions: 100000000 cycles: 149981991 heartbeat IPC: 0.35798 cumulative IPC: 0.363687 (Simulation time: 0 hr 9 min 52 sec) 
Heartbeat CPU 0 instructions: 110000000 cycles: 178176781 heartbeat IPC: 0.354676 cumulative IPC: 0.362154 (Simulation time: 0 hr 11 min 14 sec) 
Heartbeat CPU 0 instructions: 120000001 cycles: 205583388 heartbeat IPC: 0.364876 cumulative IPC: 0.36254 (Simulation time: 0 hr 12 min 36 sec) 
Heartbeat CPU 0 instructions: 130000000 cycles: 233449483 heartbeat IPC: 0.35886 cumulative IPC: 0.362076 (Simulation time: 0 hr 13 min 57 sec) 
Heartbeat CPU 0 instructions: 140000000 cycles: 261272110 heartbeat IPC: 0.35942 cumulative IPC: 0.361779 (Simulation time: 0 hr 15 min 18 sec) 
Heartbeat CPU 0 instructions: 150000002 cycles: 289100464 heartbeat IPC: 0.359346 cumulative IPC: 0.361534 (Simulation time: 0 hr 16 min 39 sec) 
Simulation finished CPU 0 instructions: 100000001 cycles: 276599362 cumulative IPC: 0.361534 (Simulation time: 0 hr 16 min 39 sec) 

Simulation complete CPU 0 instructions: 100000001 cycles: 276599362 (Simulation time: 0 hr 16 min 39 sec) 


ChampSim completed all CPUs

Saving instructions large page distribution to /home/bsc/bsc018186/scratch/itp_asplos25_AE/dump/smt_srv85_ap_srv727_ap_1024i.pdst...
Saving data large page distribution to /home/bsc/bsc018186/scratch/itp_asplos25_AE/dump/smt_srv85_ap_srv727_ap_1024i.pdst...
=== Simulation ===
CPU 0 runs /gpfs/projects/bsc18/MN4/bsc18/romol/ChampSim/traces/qualcomm_srv/smt_srv85_ap_srv727_ap_1024i.champsimtrace.xz

Region of Interest Statistics

CPU 0 cumulative IPC: 0.361534 instructions: 100000001 cycles: 276599362
CPU 0 Branch Prediction Accuracy: 74.8933% MPKI: 45.2026 Average ROB Occupancy at Mispredict: 10.6034
Branch type MPKI
BRANCH_DIRECT_JUMP: 1.40749
BRANCH_INDIRECT: 23.4058
BRANCH_CONDITIONAL: 13.133
BRANCH_DIRECT_CALL: 2.6974
BRANCH_INDIRECT_CALL: 1.0062
BRANCH_RETURN: 3.55269

Instructions large pages: 0
Instructions small pages: 9809
Large page distribution for instructions: 0%

Data large pages: 0
Data small pages: 8446
Large page distribution for data: 0%

cpu0_L1I TOTAL       ACCESS:   39363619  HIT:   30398595  MISS:    8965024  iACCESS:   39363619  iHIT:   30398595  iMISS:    8965024  dACCESS:          0  dHIT:          0  dMISS:          0  itACCESS:          0  itHIT:          0  itMISS:          0  dtACCESS:          0  dtHIT:          0  dtMISS:          0
cpu0_L1I LOAD         ACCESS:   11759195  HIT:    9324442  MISS:    2434753  iACCESS:   11759195  iHIT:    9324442  iMISS:    2434753  dACCESS:          0  dHIT:          0  dMISS:          0  itACCESS:          0  itHIT:          0  itMISS:          0  dtACCESS:          0  dtHIT:          0  dtMISS:          0
cpu0_L1I RFO          ACCESS:          0  HIT:          0  MISS:          0  iACCESS:          0  iHIT:          0  iMISS:          0  dACCESS:          0  dHIT:          0  dMISS:          0  itACCESS:          0  itHIT:          0  itMISS:          0  dtACCESS:          0  dtHIT:          0  dtMISS:          0
cpu0_L1I PREFETCH     ACCESS:   27604424  HIT:   21074153  MISS:    6530271  iACCESS:   27604424  iHIT:   21074153  iMISS:    6530271  dACCESS:          0  dHIT:          0  dMISS:          0  itACCESS:          0  itHIT:          0  itMISS:          0  dtACCESS:          0  dtHIT:          0  dtMISS:          0
cpu0_L1I WRITE        ACCESS:          0  HIT:          0  MISS:          0  iACCESS:          0  iHIT:          0  iMISS:          0  dACCESS:          0  dHIT:          0  dMISS:          0  itACCESS:          0  itHIT:          0  itMISS:          0  dtACCESS:          0  dtHIT:          0  dtMISS:          0
cpu0_L1I TRANSLATION  ACCESS:          0  HIT:          0  MISS:          0  iACCESS:          0  iHIT:          0  iMISS:          0  dACCESS:          0  dHIT:          0  dMISS:          0  itACCESS:          0  itHIT:          0  itMISS:          0  dtACCESS:          0  dtHIT:          0  dtMISS:          0
cpu0_L1I PREFETCH  REQUESTED:   30315207  ISSUED:   30314937  CROSSED:          0  USEFUL:    2218743  USELESS:     767643
cpu0_L1I AVERAGE iMISS LATENCY: 23.2513 cycles
cpu0_L1I AVERAGE dMISS LATENCY: 0 cycles
cpu0_L1I AVERAGE itMISS LATENCY: 0 cycles
cpu0_L1I AVERAGE dtMISS LATENCY: 0 cycles
cpu0_L1I PAGE CROSSINGS (TLB HIT):         0 
cpu0_L1I PAGE CROSSINGS (TLB MISS):         0 
cpu0_L1I AVERAGE MISS LATENCY: 23.2513 cycles
cpu0_ITLB TOTAL       ACCESS:   33277871  HIT:   31040796  MISS:    2237075  iACCESS:   33277871  iHIT:   31040796  iMISS:    2237075  dACCESS:          0  dHIT:          0  dMISS:          0  itACCESS:          0  itHIT:          0  itMISS:          0  dtACCESS:          0  dtHIT:          0  dtMISS:          0
cpu0_ITLB LOAD         ACCESS:   33277871  HIT:   31040796  MISS:    2237075  iACCESS:   33277871  iHIT:   31040796  iMISS:    2237075  dACCESS:          0  dHIT:          0  dMISS:          0  itACCESS:          0  itHIT:          0  itMISS:          0  dtACCESS:          0  dtHIT:          0  dtMISS:          0
cpu0_ITLB RFO          ACCESS:          0  HIT:          0  MISS:          0  iACCESS:          0  iHIT:          0  iMISS:          0  dACCESS:          0  dHIT:          0  dMISS:          0  itACCESS:          0  itHIT:          0  itMISS:          0  dtACCESS:          0  dtHIT:          0  dtMISS:          0
cpu0_ITLB PREFETCH     ACCESS:          0  HIT:          0  MISS:          0  iACCESS:          0  iHIT:          0  iMISS:          0  dACCESS:          0  dHIT:          0  dMISS:          0  itACCESS:          0  itHIT:          0  itMISS:          0  dtACCESS:          0  dtHIT:          0  dtMISS:          0
cpu0_ITLB WRITE        ACCESS:          0  HIT:          0  MISS:          0  iACCESS:          0  iHIT:          0  iMISS:          0  dACCESS:          0  dHIT:          0  dMISS:          0  itACCESS:          0  itHIT:          0  itMISS:          0  dtACCESS:          0  dtHIT:          0  dtMISS:          0
cpu0_ITLB TRANSLATION  ACCESS:          0  HIT:          0  MISS:          0  iACCESS:          0  iHIT:          0  iMISS:          0  dACCESS:          0  dHIT:          0  dMISS:          0  itACCESS:          0  itHIT:          0  itMISS:          0  dtACCESS:          0  dtHIT:          0  dtMISS:          0
cpu0_ITLB PREFETCH  REQUESTED:          0  ISSUED:          0  CROSSED:          0  USEFUL:     391505  USELESS:      80260
cpu0_ITLB AVERAGE iMISS LATENCY: 6.01234 cycles
cpu0_ITLB AVERAGE dMISS LATENCY: 0 cycles
cpu0_ITLB AVERAGE itMISS LATENCY: 0 cycles
cpu0_ITLB AVERAGE dtMISS LATENCY: 0 cycles
cpu0_ITLB PAGE CROSSINGS (TLB HIT):         0 
cpu0_ITLB PAGE CROSSINGS (TLB MISS):         0 
cpu0_ITLB AVERAGE MISS LATENCY: 6.01234 cycles
cpu0_DTLB TOTAL       ACCESS:   28902361  HIT:   25298143  MISS:    3604218  iACCESS:          0  iHIT:          0  iMISS:          0  dACCESS:   28902361  dHIT:   25298143  dMISS:    3604218  itACCESS:          0  itHIT:          0  itMISS:          0  dtACCESS:          0  dtHIT:          0  dtMISS:          0
cpu0_DTLB LOAD         ACCESS:   28902361  HIT:   25298143  MISS:    3604218  iACCESS:          0  iHIT:          0  iMISS:          0  dACCESS:   28902361  dHIT:   25298143  dMISS:    3604218  itACCESS:          0  itHIT:          0  itMISS:          0  dtACCESS:          0  dtHIT:          0  dtMISS:          0
cpu0_DTLB RFO          ACCESS:          0  HIT:          0  MISS:          0  iACCESS:          0  iHIT:          0  iMISS:          0  dACCESS:          0  dHIT:          0  dMISS:          0  itACCESS:          0  itHIT:          0  itMISS:          0  dtACCESS:          0  dtHIT:          0  dtMISS:          0
cpu0_DTLB PREFETCH     ACCESS:          0  HIT:          0  MISS:          0  iACCESS:          0  iHIT:          0  iMISS:          0  dACCESS:          0  dHIT:          0  dMISS:          0  itACCESS:          0  itHIT:          0  itMISS:          0  dtACCESS:          0  dtHIT:          0  dtMISS:          0
cpu0_DTLB WRITE        ACCESS:          0  HIT:          0  MISS:          0  iACCESS:          0  iHIT:          0  iMISS:          0  dACCESS:          0  dHIT:          0  dMISS:          0  itACCESS:          0  itHIT:          0  itMISS:          0  dtACCESS:          0  dtHIT:          0  dtMISS:          0
cpu0_DTLB TRANSLATION  ACCESS:          0  HIT:          0  MISS:          0  iACCESS:          0  iHIT:          0  iMISS:          0  dACCESS:          0  dHIT:          0  dMISS:          0  itACCESS:          0  itHIT:          0  itMISS:          0  dtACCESS:          0  dtHIT:          0  dtMISS:          0
cpu0_DTLB PREFETCH  REQUESTED:          0  ISSUED:          0  CROSSED:          0  USEFUL:          0  USELESS:          0
cpu0_DTLB AVERAGE iMISS LATENCY: 0 cycles
cpu0_DTLB AVERAGE dMISS LATENCY: 19.4619 cycles
cpu0_DTLB AVERAGE itMISS LATENCY: 0 cycles
cpu0_DTLB AVERAGE dtMISS LATENCY: 0 cycles
cpu0_DTLB PAGE CROSSINGS (TLB HIT):         0 
cpu0_DTLB PAGE CROSSINGS (TLB MISS):         0 
cpu0_DTLB AVERAGE MISS LATENCY: 19.4619 cycles
cpu0_STLB TOTAL       ACCESS:    2595856  HIT:    2208886  MISS:     386970  iACCESS:     471771  iHIT:     411250  iMISS:      60521  dACCESS:    2124085  dHIT:    1797636  dMISS:     326449  itACCESS:          0  itHIT:          0  itMISS:          0  dtACCESS:          0  dtHIT:          0  dtMISS:          0
cpu0_STLB LOAD         ACCESS:    2595856  HIT:    2208886  MISS:     386970  iACCESS:     471771  iHIT:     411250  iMISS:      60521  dACCESS:    2124085  dHIT:    1797636  dMISS:     326449  itACCESS:          0  itHIT:          0  itMISS:          0  dtACCESS:          0  dtHIT:          0  dtMISS:          0
cpu0_STLB RFO          ACCESS:          0  HIT:          0  MISS:          0  iACCESS:          0  iHIT:          0  iMISS:          0  dACCESS:          0  dHIT:          0  dMISS:          0  itACCESS:          0  itHIT:          0  itMISS:          0  dtACCESS:          0  dtHIT:          0  dtMISS:          0
cpu0_STLB PREFETCH     ACCESS:          0  HIT:          0  MISS:          0  iACCESS:          0  iHIT:          0  iMISS:          0  dACCESS:          0  dHIT:          0  dMISS:          0  itACCESS:          0  itHIT:          0  itMISS:          0  dtACCESS:          0  dtHIT:          0  dtMISS:          0
cpu0_STLB WRITE        ACCESS:          0  HIT:          0  MISS:          0  iACCESS:          0  iHIT:          0  iMISS:          0  dACCESS:          0  dHIT:          0  dMISS:          0  itACCESS:          0  itHIT:          0  itMISS:          0  dtACCESS:          0  dtHIT:          0  dtMISS:          0
cpu0_STLB TRANSLATION  ACCESS:          0  HIT:          0  MISS:          0  iACCESS:          0  iHIT:          0  iMISS:          0  dACCESS:          0  dHIT:          0  dMISS:          0  itACCESS:          0  itHIT:          0  itMISS:          0  dtACCESS:          0  dtHIT:          0  dtMISS:          0
cpu0_STLB PREFETCH  REQUESTED:          0  ISSUED:          0  CROSSED:          0  USEFUL:          0  USELESS:          0
cpu0_STLB AVERAGE iMISS LATENCY: 25.1666 cycles
cpu0_STLB AVERAGE dMISS LATENCY: 136.982 cycles
cpu0_STLB AVERAGE itMISS LATENCY: 0 cycles
cpu0_STLB AVERAGE dtMISS LATENCY: 0 cycles
cpu0_STLB PAGE CROSSINGS (TLB HIT):         0 
cpu0_STLB PAGE CROSSINGS (TLB MISS):         0 
cpu0_STLB AVERAGE MISS LATENCY: 162.149 cycles
cpu0_L1D TOTAL       ACCESS:   45242123  HIT:   39239772  MISS:    6002351  iACCESS:          0  iHIT:          0  iMISS:          0  dACCESS:   44646762  dHIT:   39210672  dMISS:    5436090  itACCESS:      71680  itHIT:       5232  itMISS:      66448  dtACCESS:     523681  dtHIT:      23868  dtMISS:     499813
cpu0_L1D LOAD         ACCESS:   20382127  HIT:   17937907  MISS:    2444220  iACCESS:          0  iHIT:          0  iMISS:          0  dACCESS:   20382127  dHIT:   17937907  dMISS:    2444220  itACCESS:          0  itHIT:          0  itMISS:          0  dtACCESS:          0  dtHIT:          0  dtMISS:          0
cpu0_L1D RFO          ACCESS:          0  HIT:          0  MISS:          0  iACCESS:          0  iHIT:          0  iMISS:          0  dACCESS:          0  dHIT:          0  dMISS:          0  itACCESS:          0  itHIT:          0  itMISS:          0  dtACCESS:          0  dtHIT:          0  dtMISS:          0
cpu0_L1D PREFETCH     ACCESS:   14110297  HIT:   11718295  MISS:    2392002  iACCESS:          0  iHIT:          0  iMISS:          0  dACCESS:   14110297  dHIT:   11718295  dMISS:    2392002  itACCESS:          0  itHIT:          0  itMISS:          0  dtACCESS:          0  dtHIT:          0  dtMISS:          0
cpu0_L1D WRITE        ACCESS:   10154338  HIT:    9554470  MISS:     599868  iACCESS:          0  iHIT:          0  iMISS:          0  dACCESS:   10154338  dHIT:    9554470  dMISS:     599868  itACCESS:          0  itHIT:          0  itMISS:          0  dtACCESS:          0  dtHIT:          0  dtMISS:          0
cpu0_L1D TRANSLATION  ACCESS:     595361  HIT:      29100  MISS:     566261  iACCESS:          0  iHIT:          0  iMISS:          0  dACCESS:          0  dHIT:          0  dMISS:          0  itACCESS:      71680  itHIT:       5232  itMISS:      66448  dtACCESS:     523681  dtHIT:      23868  dtMISS:     499813
cpu0_L1D PREFETCH  REQUESTED:   20382127  ISSUED:   18543555  CROSSED:          0  USEFUL:     362446  USELESS:     943177
cpu0_L1D AVERAGE iMISS LATENCY: 0 cycles
cpu0_L1D AVERAGE dMISS LATENCY: 47.3763 cycles
cpu0_L1D AVERAGE itMISS LATENCY: 1.52029 cycles
cpu0_L1D AVERAGE dtMISS LATENCY: 7.99538 cycles
cpu0_L1D PAGE CROSSINGS (TLB HIT):         0 
cpu0_L1D PAGE CROSSINGS (TLB MISS):         0 
cpu0_L1D AVERAGE MISS LATENCY: 56.8919 cycles
cpu0_L2C TOTAL       ACCESS:    8725228  HIT:    2514496  MISS:    6210732  iACCESS:    3790756  iHIT:    1417320  iMISS:    2373436  dACCESS:    4401709  dHIT:     858009  dMISS:    3543700  itACCESS:      65736  itHIT:      15546  itMISS:      50190  dtACCESS:     467027  dtHIT:     223621  dtMISS:     243406
cpu0_L2C LOAD         ACCESS:    2068863  HIT:     476943  MISS:    1591920  iACCESS:     840461  iHIT:     280033  iMISS:     560428  dACCESS:    1228402  dHIT:     196910  dMISS:    1031492  itACCESS:          0  itHIT:          0  itMISS:          0  dtACCESS:          0  dtHIT:          0  dtMISS:          0
cpu0_L2C RFO          ACCESS:     217358  HIT:      29571  MISS:     187787  iACCESS:          0  iHIT:          0  iMISS:          0  dACCESS:     217358  dHIT:      29571  dMISS:     187787  itACCESS:          0  itHIT:          0  itMISS:          0  dtACCESS:          0  dtHIT:          0  dtMISS:          0
cpu0_L2C PREFETCH     ACCESS:    5559556  HIT:    1643682  MISS:    3915874  iACCESS:    2950295  iHIT:    1137287  iMISS:    1813008  dACCESS:    2609261  dHIT:     506395  dMISS:    2102866  itACCESS:          0  itHIT:          0  itMISS:          0  dtACCESS:          0  dtHIT:          0  dtMISS:          0
cpu0_L2C WRITE        ACCESS:     346688  HIT:     125133  MISS:     221555  iACCESS:          0  iHIT:          0  iMISS:          0  dACCESS:     346688  dHIT:     125133  dMISS:     221555  itACCESS:          0  itHIT:          0  itMISS:          0  dtACCESS:          0  dtHIT:          0  dtMISS:          0
cpu0_L2C TRANSLATION  ACCESS:     532763  HIT:     239167  MISS:     293596  iACCESS:          0  iHIT:          0  iMISS:          0  dACCESS:          0  dHIT:          0  dMISS:          0  itACCESS:      65736  itHIT:      15546  itMISS:      50190  dtACCESS:     467027  dtHIT:     223621  dtMISS:     243406
cpu0_L2C PREFETCH  REQUESTED:    1547748  ISSUED:    1547747  CROSSED:          0  USEFUL:     384681  USELESS:     447406
cpu0_L2C AVERAGE iMISS LATENCY: 28.4082 cycles
cpu0_L2C AVERAGE dMISS LATENCY: 56.3276 cycles
cpu0_L2C AVERAGE itMISS LATENCY: 1.36562 cycles
cpu0_L2C AVERAGE dtMISS LATENCY: 7.00773 cycles
cpu0_L2C PAGE CROSSINGS (TLB HIT):         0 
cpu0_L2C PAGE CROSSINGS (TLB MISS):         0 
cpu0_L2C AVERAGE MISS LATENCY: 93.1091 cycles
LLC TOTAL       ACCESS:    6048432  HIT:    3343483  MISS:    2704949  iACCESS:    2281762  iHIT:    1450828  iMISS:     830934  dACCESS:    3473074  dHIT:    1844312  dMISS:    1628762  itACCESS:      50190  itHIT:       8245  itMISS:      41945  dtACCESS:     243406  dtHIT:      40098  dtMISS:     203308
LLC LOAD         ACCESS:    1583943  HIT:     936545  MISS:     647398  iACCESS:     559072  iHIT:     384990  iMISS:     174082  dACCESS:    1024871  dHIT:     551555  dMISS:     473316  itACCESS:          0  itHIT:          0  itMISS:          0  dtACCESS:          0  dtHIT:          0  dtMISS:          0
LLC RFO          ACCESS:     187715  HIT:      93466  MISS:      94249  iACCESS:          0  iHIT:          0  iMISS:          0  dACCESS:     187715  dHIT:      93466  dMISS:      94249  itACCESS:          0  itHIT:          0  itMISS:          0  dtACCESS:          0  dtHIT:          0  dtMISS:          0
LLC PREFETCH     ACCESS:    3702037  HIT:    1988904  MISS:    1713133  iACCESS:    1722690  iHIT:    1065838  iMISS:     656852  dACCESS:    1979347  dHIT:     923066  dMISS:    1056281  itACCESS:          0  itHIT:          0  itMISS:          0  dtACCESS:          0  dtHIT:          0  dtMISS:          0
LLC WRITE        ACCESS:     281141  HIT:     276225  MISS:       4916  iACCESS:          0  iHIT:          0  iMISS:          0  dACCESS:     281141  dHIT:     276225  dMISS:       4916  itACCESS:          0  itHIT:          0  itMISS:          0  dtACCESS:          0  dtHIT:          0  dtMISS:          0
LLC TRANSLATION  ACCESS:     293596  HIT:      48343  MISS:     245253  iACCESS:          0  iHIT:          0  iMISS:          0  dACCESS:          0  dHIT:          0  dMISS:          0  itACCESS:      50190  itHIT:       8245  itMISS:      41945  dtACCESS:     243406  dtHIT:      40098  dtMISS:     203308
LLC PREFETCH  REQUESTED:          0  ISSUED:          0  CROSSED:          0  USEFUL:          0  USELESS:          0
LLC AVERAGE iMISS LATENCY: 48.8071 cycles
LLC AVERAGE dMISS LATENCY: 107.363 cycles
LLC AVERAGE itMISS LATENCY: 2.76889 cycles
LLC AVERAGE dtMISS LATENCY: 14.3127 cycles
LLC PAGE CROSSINGS (TLB HIT):         0 
LLC PAGE CROSSINGS (TLB MISS):         0 
LLC AVERAGE MISS LATENCY: 173.251 cycles

PageTableWalker TOTAL       ACCESS:     192464  
PageTableWalker AVERAGE LATENCY: 6.1281 cycles
PageTableWalker TOTAL LATENCY: 1179438 cycles

DRAM Statistics
Channel 0
 RQ ROW_BUFFER_HIT:     577280
  ROW_BUFFER_MISS:    2103207
 AVG DBUS CONGESTED CYCLE:    3.65885
 WQ ROW_BUFFER_HIT:      68537
  ROW_BUFFER_MISS:      68320  FULL:          0

