last_page:0x200000000000000
VMEM_RES_CAP:0x100000
PAGE_SIZE:4096
LOG2_PAGE_SIZE:12
LOG2_PAGE_TABLE_SIZE:9
page_table_levels:5
WARNING: physical memory size is smaller than virtual memory size
FDiP enabled with aggresivity 16

*** ChampSim Multicore Out-of-Order Simulator ***

Warmup Instructions: 50000000
Simulation Instructions: 100000000
Number of CPUs: 1
Small page size: 4096
Large page size: 2097152

CPU 0 Bimodal branch predictor
Basic BTB sets: 1024 ways: 8 indirect buffer size: 4096 RAS size: 64
Instruction page size distrubution: 0
Loading instruction page size distribution from /home/bsc/bsc018186/scratch/itp_asplos25_AE/dump/smt_srv85_ap_srv259_ap_1024i.pdst
Data page size distrubution: 0
Loading data page size distribution from /home/bsc/bsc018186/scratch/itp_asplos25_AE/dump/smt_srv85_ap_srv259_ap_1024i.pdst
cpu0_L2C IP-based stride prefetcher
cpu0_L1D next line prefetcher
cpu0_L1I next line prefetcher
Off-chip DRAM Size: 4 GiB Channels: 1 Width: 64-bit Data Rate: 3200 MT/s
Heartbeat CPU 0 instructions: 10000000 cycles: 2500432 heartbeat IPC: 3.99931 cumulative IPC: 3.99931 (Simulation time: 0 hr 0 min 46 sec) 
Heartbeat CPU 0 instructions: 20000002 cycles: 5000819 heartbeat IPC: 3.99939 cumulative IPC: 3.99935 (Simulation time: 0 hr 1 min 34 sec) 
Heartbeat CPU 0 instructions: 30000000 cycles: 7501095 heartbeat IPC: 3.99956 cumulative IPC: 3.99942 (Simulation time: 0 hr 2 min 20 sec) 
Heartbeat CPU 0 instructions: 40000002 cycles: 10001504 heartbeat IPC: 3.99935 cumulative IPC: 3.9994 (Simulation time: 0 hr 3 min 9 sec) 
Heartbeat CPU 0 instructions: 50000001 cycles: 12501845 heartbeat IPC: 3.99946 cumulative IPC: 3.99941 (Simulation time: 0 hr 3 min 58 sec) 
Warmup finished CPU 0 instructions: 50000001 cycles: 12501846 cumulative IPC: 3.99941 (Simulation time: 0 hr 3 min 58 sec) 

Warmup complete CPU 0 instructions: 50000001 cycles: 12501846 (Simulation time: 0 hr 3 min 58 sec) 

Heartbeat CPU 0 instructions: 60000000 cycles: 38288938 heartbeat IPC: 0.387791 cumulative IPC: 0.387791 (Simulation time: 0 hr 5 min 34 sec) 
Heartbeat CPU 0 instructions: 70000002 cycles: 65531652 heartbeat IPC: 0.367071 cumulative IPC: 0.377147 (Simulation time: 0 hr 7 min 10 sec) 
Heartbeat CPU 0 instructions: 80000002 cycles: 92410764 heartbeat IPC: 0.372037 cumulative IPC: 0.375428 (Simulation time: 0 hr 8 min 48 sec) 
Heartbeat CPU 0 instructions: 90000002 cycles: 118493067 heartbeat IPC: 0.383402 cumulative IPC: 0.37739 (Simulation time: 0 hr 10 min 22 sec) 
Heartbeat CPU 0 instructions: 100000000 cycles: 145429223 heartbeat IPC: 0.371249 cumulative IPC: 0.376146 (Simulation time: 0 hr 11 min 47 sec) 
Heartbeat CPU 0 instructions: 110000000 cycles: 172212099 heartbeat IPC: 0.373373 cumulative IPC: 0.375681 (Simulation time: 0 hr 13 min 12 sec) 
Heartbeat CPU 0 instructions: 120000004 cycles: 198223269 heartbeat IPC: 0.384451 cumulative IPC: 0.376909 (Simulation time: 0 hr 14 min 35 sec) 
Heartbeat CPU 0 instructions: 130000002 cycles: 226156701 heartbeat IPC: 0.357994 cumulative IPC: 0.374436 (Simulation time: 0 hr 16 min 2 sec) 
Heartbeat CPU 0 instructions: 140000004 cycles: 251653792 heartbeat IPC: 0.392202 cumulative IPC: 0.37633 (Simulation time: 0 hr 17 min 25 sec) 
Heartbeat CPU 0 instructions: 150000000 cycles: 278968535 heartbeat IPC: 0.366103 cumulative IPC: 0.375282 (Simulation time: 0 hr 18 min 49 sec) 
Simulation finished CPU 0 instructions: 100000004 cycles: 266466691 cumulative IPC: 0.375282 (Simulation time: 0 hr 18 min 49 sec) 

Simulation complete CPU 0 instructions: 100000004 cycles: 266466691 (Simulation time: 0 hr 18 min 49 sec) 


ChampSim completed all CPUs

Saving instructions large page distribution to /home/bsc/bsc018186/scratch/itp_asplos25_AE/dump/smt_srv85_ap_srv259_ap_1024i.pdst...
Saving data large page distribution to /home/bsc/bsc018186/scratch/itp_asplos25_AE/dump/smt_srv85_ap_srv259_ap_1024i.pdst...
=== Simulation ===
CPU 0 runs /gpfs/projects/bsc18/MN4/bsc18/romol/ChampSim/traces/qualcomm_srv/smt_srv85_ap_srv259_ap_1024i.champsimtrace.xz

Region of Interest Statistics

CPU 0 cumulative IPC: 0.375282 instructions: 100000004 cycles: 266466691
CPU 0 Branch Prediction Accuracy: 76.3208% MPKI: 42.6441 Average ROB Occupancy at Mispredict: 11.0733
Branch type MPKI
BRANCH_DIRECT_JUMP: 1.33389
BRANCH_INDIRECT: 22.7744
BRANCH_CONDITIONAL: 11.6746
BRANCH_DIRECT_CALL: 2.44995
BRANCH_INDIRECT_CALL: 0.99181
BRANCH_RETURN: 3.41944

Instructions large pages: 0
Instructions small pages: 9620
Large page distribution for instructions: 0%

Data large pages: 0
Data small pages: 8501
Large page distribution for data: 0%

cpu0_L1I TOTAL       ACCESS:   39267734  HIT:   29990780  MISS:    9276954  iACCESS:   39267734  iHIT:   29990780  iMISS:    9276954  dACCESS:          0  dHIT:          0  dMISS:          0  itACCESS:          0  itHIT:          0  itMISS:          0  dtACCESS:          0  dtHIT:          0  dtMISS:          0
cpu0_L1I LOAD         ACCESS:   11782431  HIT:    9235557  MISS:    2546874  iACCESS:   11782431  iHIT:    9235557  iMISS:    2546874  dACCESS:          0  dHIT:          0  dMISS:          0  itACCESS:          0  itHIT:          0  itMISS:          0  dtACCESS:          0  dtHIT:          0  dtMISS:          0
cpu0_L1I RFO          ACCESS:          0  HIT:          0  MISS:          0  iACCESS:          0  iHIT:          0  iMISS:          0  dACCESS:          0  dHIT:          0  dMISS:          0  itACCESS:          0  itHIT:          0  itMISS:          0  dtACCESS:          0  dtHIT:          0  dtMISS:          0
cpu0_L1I PREFETCH     ACCESS:   27485303  HIT:   20755223  MISS:    6730080  iACCESS:   27485303  iHIT:   20755223  iMISS:    6730080  dACCESS:          0  dHIT:          0  dMISS:          0  itACCESS:          0  itHIT:          0  itMISS:          0  dtACCESS:          0  dtHIT:          0  dtMISS:          0
cpu0_L1I WRITE        ACCESS:          0  HIT:          0  MISS:          0  iACCESS:          0  iHIT:          0  iMISS:          0  dACCESS:          0  dHIT:          0  dMISS:          0  itACCESS:          0  itHIT:          0  itMISS:          0  dtACCESS:          0  dtHIT:          0  dtMISS:          0
cpu0_L1I TRANSLATION  ACCESS:          0  HIT:          0  MISS:          0  iACCESS:          0  iHIT:          0  iMISS:          0  dACCESS:          0  dHIT:          0  dMISS:          0  itACCESS:          0  itHIT:          0  itMISS:          0  dtACCESS:          0  dtHIT:          0  dtMISS:          0
cpu0_L1I PREFETCH  REQUESTED:   30158122  ISSUED:   30156467  CROSSED:          0  USEFUL:    2206728  USELESS:     764852
cpu0_L1I AVERAGE iMISS LATENCY: 21.637 cycles
cpu0_L1I AVERAGE dMISS LATENCY: 0 cycles
cpu0_L1I AVERAGE itMISS LATENCY: 0 cycles
cpu0_L1I AVERAGE dtMISS LATENCY: 0 cycles
cpu0_L1I PAGE CROSSINGS (TLB HIT):         0 
cpu0_L1I PAGE CROSSINGS (TLB MISS):         0 
cpu0_L1I AVERAGE MISS LATENCY: 21.637 cycles
cpu0_ITLB TOTAL       ACCESS:   32918320  HIT:   30660525  MISS:    2257795  iACCESS:   32918320  iHIT:   30660525  iMISS:    2257795  dACCESS:          0  dHIT:          0  dMISS:          0  itACCESS:          0  itHIT:          0  itMISS:          0  dtACCESS:          0  dtHIT:          0  dtMISS:          0
cpu0_ITLB LOAD         ACCESS:   32918320  HIT:   30660525  MISS:    2257795  iACCESS:   32918320  iHIT:   30660525  iMISS:    2257795  dACCESS:          0  dHIT:          0  dMISS:          0  itACCESS:          0  itHIT:          0  itMISS:          0  dtACCESS:          0  dtHIT:          0  dtMISS:          0
cpu0_ITLB RFO          ACCESS:          0  HIT:          0  MISS:          0  iACCESS:          0  iHIT:          0  iMISS:          0  dACCESS:          0  dHIT:          0  dMISS:          0  itACCESS:          0  itHIT:          0  itMISS:          0  dtACCESS:          0  dtHIT:          0  dtMISS:          0
cpu0_ITLB PREFETCH     ACCESS:          0  HIT:          0  MISS:          0  iACCESS:          0  iHIT:          0  iMISS:          0  dACCESS:          0  dHIT:          0  dMISS:          0  itACCESS:          0  itHIT:          0  itMISS:          0  dtACCESS:          0  dtHIT:          0  dtMISS:          0
cpu0_ITLB WRITE        ACCESS:          0  HIT:          0  MISS:          0  iACCESS:          0  iHIT:          0  iMISS:          0  dACCESS:          0  dHIT:          0  dMISS:          0  itACCESS:          0  itHIT:          0  itMISS:          0  dtACCESS:          0  dtHIT:          0  dtMISS:          0
cpu0_ITLB TRANSLATION  ACCESS:          0  HIT:          0  MISS:          0  iACCESS:          0  iHIT:          0  iMISS:          0  dACCESS:          0  dHIT:          0  dMISS:          0  itACCESS:          0  itHIT:          0  itMISS:          0  dtACCESS:          0  dtHIT:          0  dtMISS:          0
cpu0_ITLB PREFETCH  REQUESTED:          0  ISSUED:          0  CROSSED:          0  USEFUL:     386735  USELESS:      81698
cpu0_ITLB AVERAGE iMISS LATENCY: 7.36513 cycles
cpu0_ITLB AVERAGE dMISS LATENCY: 0 cycles
cpu0_ITLB AVERAGE itMISS LATENCY: 0 cycles
cpu0_ITLB AVERAGE dtMISS LATENCY: 0 cycles
cpu0_ITLB PAGE CROSSINGS (TLB HIT):         0 
cpu0_ITLB PAGE CROSSINGS (TLB MISS):         0 
cpu0_ITLB AVERAGE MISS LATENCY: 7.36513 cycles
cpu0_DTLB TOTAL       ACCESS:   28827601  HIT:   25171704  MISS:    3655897  iACCESS:          0  iHIT:          0  iMISS:          0  dACCESS:   28827601  dHIT:   25171704  dMISS:    3655897  itACCESS:          0  itHIT:          0  itMISS:          0  dtACCESS:          0  dtHIT:          0  dtMISS:          0
cpu0_DTLB LOAD         ACCESS:   28827601  HIT:   25171704  MISS:    3655897  iACCESS:          0  iHIT:          0  iMISS:          0  dACCESS:   28827601  dHIT:   25171704  dMISS:    3655897  itACCESS:          0  itHIT:          0  itMISS:          0  dtACCESS:          0  dtHIT:          0  dtMISS:          0
cpu0_DTLB RFO          ACCESS:          0  HIT:          0  MISS:          0  iACCESS:          0  iHIT:          0  iMISS:          0  dACCESS:          0  dHIT:          0  dMISS:          0  itACCESS:          0  itHIT:          0  itMISS:          0  dtACCESS:          0  dtHIT:          0  dtMISS:          0
cpu0_DTLB PREFETCH     ACCESS:          0  HIT:          0  MISS:          0  iACCESS:          0  iHIT:          0  iMISS:          0  dACCESS:          0  dHIT:          0  dMISS:          0  itACCESS:          0  itHIT:          0  itMISS:          0  dtACCESS:          0  dtHIT:          0  dtMISS:          0
cpu0_DTLB WRITE        ACCESS:          0  HIT:          0  MISS:          0  iACCESS:          0  iHIT:          0  iMISS:          0  dACCESS:          0  dHIT:          0  dMISS:          0  itACCESS:          0  itHIT:          0  itMISS:          0  dtACCESS:          0  dtHIT:          0  dtMISS:          0
cpu0_DTLB TRANSLATION  ACCESS:          0  HIT:          0  MISS:          0  iACCESS:          0  iHIT:          0  iMISS:          0  dACCESS:          0  dHIT:          0  dMISS:          0  itACCESS:          0  itHIT:          0  itMISS:          0  dtACCESS:          0  dtHIT:          0  dtMISS:          0
cpu0_DTLB PREFETCH  REQUESTED:          0  ISSUED:          0  CROSSED:          0  USEFUL:          0  USELESS:          0
cpu0_DTLB AVERAGE iMISS LATENCY: 0 cycles
cpu0_DTLB AVERAGE dMISS LATENCY: 17.2244 cycles
cpu0_DTLB AVERAGE itMISS LATENCY: 0 cycles
cpu0_DTLB AVERAGE dtMISS LATENCY: 0 cycles
cpu0_DTLB PAGE CROSSINGS (TLB HIT):         0 
cpu0_DTLB PAGE CROSSINGS (TLB MISS):         0 
cpu0_DTLB AVERAGE MISS LATENCY: 17.2244 cycles
cpu0_STLB TOTAL       ACCESS:    2599604  HIT:    2219770  MISS:     379834  iACCESS:     468439  iHIT:     359974  iMISS:     108465  dACCESS:    2131165  dHIT:    1859796  dMISS:     271369  itACCESS:          0  itHIT:          0  itMISS:          0  dtACCESS:          0  dtHIT:          0  dtMISS:          0
cpu0_STLB LOAD         ACCESS:    2599604  HIT:    2219770  MISS:     379834  iACCESS:     468439  iHIT:     359974  iMISS:     108465  dACCESS:    2131165  dHIT:    1859796  dMISS:     271369  itACCESS:          0  itHIT:          0  itMISS:          0  dtACCESS:          0  dtHIT:          0  dtMISS:          0
cpu0_STLB RFO          ACCESS:          0  HIT:          0  MISS:          0  iACCESS:          0  iHIT:          0  iMISS:          0  dACCESS:          0  dHIT:          0  dMISS:          0  itACCESS:          0  itHIT:          0  itMISS:          0  dtACCESS:          0  dtHIT:          0  dtMISS:          0
cpu0_STLB PREFETCH     ACCESS:          0  HIT:          0  MISS:          0  iACCESS:          0  iHIT:          0  iMISS:          0  dACCESS:          0  dHIT:          0  dMISS:          0  itACCESS:          0  itHIT:          0  itMISS:          0  dtACCESS:          0  dtHIT:          0  dtMISS:          0
cpu0_STLB WRITE        ACCESS:          0  HIT:          0  MISS:          0  iACCESS:          0  iHIT:          0  iMISS:          0  dACCESS:          0  dHIT:          0  dMISS:          0  itACCESS:          0  itHIT:          0  itMISS:          0  dtACCESS:          0  dtHIT:          0  dtMISS:          0
cpu0_STLB TRANSLATION  ACCESS:          0  HIT:          0  MISS:          0  iACCESS:          0  iHIT:          0  iMISS:          0  dACCESS:          0  dHIT:          0  dMISS:          0  itACCESS:          0  itHIT:          0  itMISS:          0  dtACCESS:          0  dtHIT:          0  dtMISS:          0
cpu0_STLB PREFETCH  REQUESTED:          0  ISSUED:          0  CROSSED:          0  USEFUL:          0  USELESS:          0
cpu0_STLB AVERAGE iMISS LATENCY: 33.9419 cycles
cpu0_STLB AVERAGE dMISS LATENCY: 120.674 cycles
cpu0_STLB AVERAGE itMISS LATENCY: 0 cycles
cpu0_STLB AVERAGE dtMISS LATENCY: 0 cycles
cpu0_STLB PAGE CROSSINGS (TLB HIT):         0 
cpu0_STLB PAGE CROSSINGS (TLB MISS):         0 
cpu0_STLB AVERAGE MISS LATENCY: 154.616 cycles
cpu0_L1D TOTAL       ACCESS:   45258307  HIT:   39092941  MISS:    6165366  iACCESS:          0  iHIT:          0  iMISS:          0  dACCESS:   44695348  dHIT:   39061644  dMISS:    5633704  itACCESS:     124278  itHIT:      12330  itMISS:     111948  dtACCESS:     438681  dtHIT:      18967  dtMISS:     419714
cpu0_L1D LOAD         ACCESS:   20435326  HIT:   17882660  MISS:    2552666  iACCESS:          0  iHIT:          0  iMISS:          0  dACCESS:   20435326  dHIT:   17882660  dMISS:    2552666  itACCESS:          0  itHIT:          0  itMISS:          0  dtACCESS:          0  dtHIT:          0  dtMISS:          0
cpu0_L1D RFO          ACCESS:          0  HIT:          0  MISS:          0  iACCESS:          0  iHIT:          0  iMISS:          0  dACCESS:          0  dHIT:          0  dMISS:          0  itACCESS:          0  itHIT:          0  itMISS:          0  dtACCESS:          0  dtHIT:          0  dtMISS:          0
cpu0_L1D PREFETCH     ACCESS:   14135992  HIT:   11638943  MISS:    2497049  iACCESS:          0  iHIT:          0  iMISS:          0  dACCESS:   14135992  dHIT:   11638943  dMISS:    2497049  itACCESS:          0  itHIT:          0  itMISS:          0  dtACCESS:          0  dtHIT:          0  dtMISS:          0
cpu0_L1D WRITE        ACCESS:   10124030  HIT:    9540041  MISS:     583989  iACCESS:          0  iHIT:          0  iMISS:          0  dACCESS:   10124030  dHIT:    9540041  dMISS:     583989  itACCESS:          0  itHIT:          0  itMISS:          0  dtACCESS:          0  dtHIT:          0  dtMISS:          0
cpu0_L1D TRANSLATION  ACCESS:     562959  HIT:      31297  MISS:     531662  iACCESS:          0  iHIT:          0  iMISS:          0  dACCESS:          0  dHIT:          0  dMISS:          0  itACCESS:     124278  itHIT:      12330  itMISS:     111948  dtACCESS:     438681  dtHIT:      18967  dtMISS:     419714
cpu0_L1D PREFETCH  REQUESTED:   20435326  ISSUED:   18510558  CROSSED:          0  USEFUL:     356557  USELESS:     932748
cpu0_L1D AVERAGE iMISS LATENCY: 0 cycles
cpu0_L1D AVERAGE dMISS LATENCY: 47.9387 cycles
cpu0_L1D AVERAGE itMISS LATENCY: 1.92604 cycles
cpu0_L1D AVERAGE dtMISS LATENCY: 6.69374 cycles
cpu0_L1D PAGE CROSSINGS (TLB HIT):         0 
cpu0_L1D PAGE CROSSINGS (TLB MISS):         0 
cpu0_L1D AVERAGE MISS LATENCY: 56.5584 cycles
cpu0_L2C TOTAL       ACCESS:    8617430  HIT:    1565297  MISS:    7052133  iACCESS:    3789092  iHIT:     834573  iMISS:    2954519  dACCESS:    4330887  dHIT:     529256  dMISS:    3801631  itACCESS:     110013  itHIT:      41793  itMISS:      68220  dtACCESS:     387438  dtHIT:     159675  dtMISS:     227763
cpu0_L2C LOAD         ACCESS:    2071663  HIT:     214928  MISS:    1856735  iACCESS:     853579  iHIT:     125292  iMISS:     728287  dACCESS:    1218084  dHIT:      89636  dMISS:    1128448  itACCESS:          0  itHIT:          0  itMISS:          0  dtACCESS:          0  dtHIT:          0  dtMISS:          0
cpu0_L2C RFO          ACCESS:     215223  HIT:      26152  MISS:     189071  iACCESS:          0  iHIT:          0  iMISS:          0  dACCESS:     215223  dHIT:      26152  dMISS:     189071  itACCESS:          0  itHIT:          0  itMISS:          0  dtACCESS:          0  dtHIT:          0  dtMISS:          0
cpu0_L2C PREFETCH     ACCESS:    5491639  HIT:    1021601  MISS:    4470038  iACCESS:    2935513  iHIT:     709281  iMISS:    2226232  dACCESS:    2556126  dHIT:     312320  dMISS:    2243806  itACCESS:          0  itHIT:          0  itMISS:          0  dtACCESS:          0  dtHIT:          0  dtMISS:          0
cpu0_L2C WRITE        ACCESS:     341454  HIT:     101148  MISS:     240306  iACCESS:          0  iHIT:          0  iMISS:          0  dACCESS:     341454  dHIT:     101148  dMISS:     240306  itACCESS:          0  itHIT:          0  itMISS:          0  dtACCESS:          0  dtHIT:          0  dtMISS:          0
cpu0_L2C TRANSLATION  ACCESS:     497451  HIT:     201468  MISS:     295983  iACCESS:          0  iHIT:          0  iMISS:          0  dACCESS:          0  dHIT:          0  dMISS:          0  itACCESS:     110013  itHIT:      41793  itMISS:      68220  dtACCESS:     387438  dtHIT:     159675  dtMISS:     227763
cpu0_L2C PREFETCH  REQUESTED:    1531082  ISSUED:    1531075  CROSSED:          0  USEFUL:     423862  USELESS:     470020
cpu0_L2C AVERAGE iMISS LATENCY: 23.7089 cycles
cpu0_L2C AVERAGE dMISS LATENCY: 49.6471 cycles
cpu0_L2C AVERAGE itMISS LATENCY: 1.53335 cycles
cpu0_L2C AVERAGE dtMISS LATENCY: 5.32274 cycles
cpu0_L2C PAGE CROSSINGS (TLB HIT):         0 
cpu0_L2C PAGE CROSSINGS (TLB MISS):         0 
cpu0_L2C AVERAGE MISS LATENCY: 80.2121 cycles
LLC TOTAL       ACCESS:    6898776  HIT:    4389087  MISS:    2509689  iACCESS:    2874828  iHIT:    2163745  iMISS:     711083  dACCESS:    3727965  dHIT:    2155879  dMISS:    1572086  itACCESS:      68220  itHIT:      14702  itMISS:      53518  dtACCESS:     227763  dtHIT:      54761  dtMISS:     173002
LLC LOAD         ACCESS:    1848240  HIT:    1214872  MISS:     633368  iACCESS:     726824  iHIT:     578222  iMISS:     148602  dACCESS:    1121416  dHIT:     636650  dMISS:     484766  itACCESS:          0  itHIT:          0  itMISS:          0  dtACCESS:          0  dtHIT:          0  dtMISS:          0
LLC RFO          ACCESS:     189054  HIT:      96414  MISS:      92640  iACCESS:          0  iHIT:          0  iMISS:          0  dACCESS:     189054  dHIT:      96414  dMISS:      92640  itACCESS:          0  itHIT:          0  itMISS:          0  dtACCESS:          0  dtHIT:          0  dtMISS:          0
LLC PREFETCH     ACCESS:    4287769  HIT:    2736342  MISS:    1551427  iACCESS:    2148004  iHIT:    1585523  iMISS:     562481  dACCESS:    2139765  dHIT:    1150819  dMISS:     988946  itACCESS:          0  itHIT:          0  itMISS:          0  dtACCESS:          0  dtHIT:          0  dtMISS:          0
LLC WRITE        ACCESS:     277730  HIT:     271996  MISS:       5734  iACCESS:          0  iHIT:          0  iMISS:          0  dACCESS:     277730  dHIT:     271996  dMISS:       5734  itACCESS:          0  itHIT:          0  itMISS:          0  dtACCESS:          0  dtHIT:          0  dtMISS:          0
LLC TRANSLATION  ACCESS:     295983  HIT:      69463  MISS:     226520  iACCESS:          0  iHIT:          0  iMISS:          0  dACCESS:          0  dHIT:          0  dMISS:          0  itACCESS:      68220  itHIT:      14702  itMISS:      53518  dtACCESS:     227763  dtHIT:      54761  dtMISS:     173002
LLC PREFETCH  REQUESTED:          0  ISSUED:          0  CROSSED:          0  USEFUL:          0  USELESS:          0
LLC AVERAGE iMISS LATENCY: 44.4174 cycles
LLC AVERAGE dMISS LATENCY: 114.115 cycles
LLC AVERAGE itMISS LATENCY: 3.77255 cycles
LLC AVERAGE dtMISS LATENCY: 13.1694 cycles
LLC PAGE CROSSINGS (TLB HIT):         0 
LLC PAGE CROSSINGS (TLB MISS):         0 
LLC AVERAGE MISS LATENCY: 175.474 cycles

PageTableWalker TOTAL       ACCESS:     189649  
PageTableWalker AVERAGE LATENCY: 5.82345 cycles
PageTableWalker TOTAL LATENCY: 1104410 cycles

DRAM Statistics
Channel 0
 RQ ROW_BUFFER_HIT:     528038
  ROW_BUFFER_MISS:    1952124
 AVG DBUS CONGESTED CYCLE:    3.65039
 WQ ROW_BUFFER_HIT:      67157
  ROW_BUFFER_MISS:      65482  FULL:          0

