last_page:0x200000000000000
VMEM_RES_CAP:0x100000
PAGE_SIZE:4096
LOG2_PAGE_SIZE:12
LOG2_PAGE_TABLE_SIZE:9
page_table_levels:5
WARNING: physical memory size is smaller than virtual memory size
FDiP enabled with aggresivity 16

*** ChampSim Multicore Out-of-Order Simulator ***

Warmup Instructions: 50000000
Simulation Instructions: 100000000
Number of CPUs: 1
Small page size: 4096
Large page size: 2097152

CPU 0 Bimodal branch predictor
Basic BTB sets: 1024 ways: 8 indirect buffer size: 4096 RAS size: 64
Instruction page size distrubution: 0
Loading instruction page size distribution from /home/bsc/bsc018186/scratch/itp_asplos25_AE/dump/smt_srv12_ap_srv582_ap_1024i.pdst
Data page size distrubution: 0
Loading data page size distribution from /home/bsc/bsc018186/scratch/itp_asplos25_AE/dump/smt_srv12_ap_srv582_ap_1024i.pdst
cpu0_L2C IP-based stride prefetcher
cpu0_L2C is using PTP replacement policy:
	TLB_STRESS_THRESHOLD:0
	PTE_EVICTION_RATIO:0
cpu0_L1D next line prefetcher
cpu0_L1I next line prefetcher
Off-chip DRAM Size: 4 GiB Channels: 1 Width: 64-bit Data Rate: 3200 MT/s
Heartbeat CPU 0 instructions: 10000001 cycles: 2500404 heartbeat IPC: 3.99936 cumulative IPC: 3.99936 (Simulation time: 0 hr 0 min 45 sec) 
Heartbeat CPU 0 instructions: 20000003 cycles: 5000754 heartbeat IPC: 3.99945 cumulative IPC: 3.9994 (Simulation time: 0 hr 1 min 32 sec) 
Heartbeat CPU 0 instructions: 30000000 cycles: 7501479 heartbeat IPC: 3.99884 cumulative IPC: 3.99922 (Simulation time: 0 hr 2 min 19 sec) 
Heartbeat CPU 0 instructions: 40000003 cycles: 10001782 heartbeat IPC: 3.99952 cumulative IPC: 3.99929 (Simulation time: 0 hr 3 min 7 sec) 
Heartbeat CPU 0 instructions: 50000003 cycles: 12502108 heartbeat IPC: 3.99948 cumulative IPC: 3.99933 (Simulation time: 0 hr 3 min 55 sec) 
Warmup finished CPU 0 instructions: 50000003 cycles: 12502109 cumulative IPC: 3.99933 (Simulation time: 0 hr 3 min 55 sec) 

Warmup complete CPU 0 instructions: 50000003 cycles: 12502109 (Simulation time: 0 hr 3 min 55 sec) 

Heartbeat CPU 0 instructions: 60000002 cycles: 44179282 heartbeat IPC: 0.315685 cumulative IPC: 0.315685 (Simulation time: 0 hr 5 min 36 sec) 
Heartbeat CPU 0 instructions: 70000000 cycles: 75700777 heartbeat IPC: 0.317244 cumulative IPC: 0.316463 (Simulation time: 0 hr 7 min 17 sec) 
Heartbeat CPU 0 instructions: 80000001 cycles: 106553585 heartbeat IPC: 0.32412 cumulative IPC: 0.318975 (Simulation time: 0 hr 8 min 58 sec) 
Heartbeat CPU 0 instructions: 90000001 cycles: 134465423 heartbeat IPC: 0.358271 cumulative IPC: 0.327968 (Simulation time: 0 hr 10 min 33 sec) 
Heartbeat CPU 0 instructions: 100000000 cycles: 165772252 heartbeat IPC: 0.31942 cumulative IPC: 0.326222 (Simulation time: 0 hr 12 min 13 sec) 
Heartbeat CPU 0 instructions: 110000004 cycles: 196138553 heartbeat IPC: 0.329313 cumulative IPC: 0.326733 (Simulation time: 0 hr 13 min 53 sec) 
Heartbeat CPU 0 instructions: 120000002 cycles: 226777259 heartbeat IPC: 0.326385 cumulative IPC: 0.326683 (Simulation time: 0 hr 15 min 30 sec) 
Heartbeat CPU 0 instructions: 130000000 cycles: 258094015 heartbeat IPC: 0.319318 cumulative IPC: 0.325744 (Simulation time: 0 hr 16 min 59 sec) 
Heartbeat CPU 0 instructions: 140000000 cycles: 289333025 heartbeat IPC: 0.320113 cumulative IPC: 0.325109 (Simulation time: 0 hr 18 min 28 sec) 
Heartbeat CPU 0 instructions: 150000002 cycles: 319878662 heartbeat IPC: 0.32738 cumulative IPC: 0.325334 (Simulation time: 0 hr 19 min 55 sec) 
Simulation finished CPU 0 instructions: 100000004 cycles: 307376555 cumulative IPC: 0.325334 (Simulation time: 0 hr 19 min 55 sec) 

Simulation complete CPU 0 instructions: 100000004 cycles: 307376555 (Simulation time: 0 hr 19 min 55 sec) 


ChampSim completed all CPUs

Saving instructions large page distribution to /home/bsc/bsc018186/scratch/itp_asplos25_AE/dump/smt_srv12_ap_srv582_ap_1024i.pdst...
Saving data large page distribution to /home/bsc/bsc018186/scratch/itp_asplos25_AE/dump/smt_srv12_ap_srv582_ap_1024i.pdst...
=== Simulation ===
CPU 0 runs /gpfs/projects/bsc18/MN4/bsc18/romol/ChampSim/traces/qualcomm_srv/smt_srv12_ap_srv582_ap_1024i.champsimtrace.xz

Region of Interest Statistics

CPU 0 cumulative IPC: 0.325334 instructions: 100000004 cycles: 307376555
CPU 0 Branch Prediction Accuracy: 74.5831% MPKI: 46.0686 Average ROB Occupancy at Mispredict: 10.4578
Branch type MPKI
BRANCH_DIRECT_JUMP: 1.46673
BRANCH_INDIRECT: 23.5042
BRANCH_CONDITIONAL: 13.5504
BRANCH_DIRECT_CALL: 2.81825
BRANCH_INDIRECT_CALL: 1.14927
BRANCH_RETURN: 3.57978

Instructions large pages: 0
Instructions small pages: 11403
Large page distribution for instructions: 0%

Data large pages: 0
Data small pages: 9565
Large page distribution for data: 0%

cpu0_L1I TOTAL       ACCESS:   39383317  HIT:   30649437  MISS:    8733880  iACCESS:   39383317  iHIT:   30649437  iMISS:    8733880  dACCESS:          0  dHIT:          0  dMISS:          0  itACCESS:          0  itHIT:          0  itMISS:          0  dtACCESS:          0  dtHIT:          0  dtMISS:          0
cpu0_L1I LOAD         ACCESS:   11730205  HIT:    9361182  MISS:    2369023  iACCESS:   11730205  iHIT:    9361182  iMISS:    2369023  dACCESS:          0  dHIT:          0  dMISS:          0  itACCESS:          0  itHIT:          0  itMISS:          0  dtACCESS:          0  dtHIT:          0  dtMISS:          0
cpu0_L1I RFO          ACCESS:          0  HIT:          0  MISS:          0  iACCESS:          0  iHIT:          0  iMISS:          0  dACCESS:          0  dHIT:          0  dMISS:          0  itACCESS:          0  itHIT:          0  itMISS:          0  dtACCESS:          0  dtHIT:          0  dtMISS:          0
cpu0_L1I PREFETCH     ACCESS:   27653112  HIT:   21288255  MISS:    6364857  iACCESS:   27653112  iHIT:   21288255  iMISS:    6364857  dACCESS:          0  dHIT:          0  dMISS:          0  itACCESS:          0  itHIT:          0  itMISS:          0  dtACCESS:          0  dtHIT:          0  dtMISS:          0
cpu0_L1I WRITE        ACCESS:          0  HIT:          0  MISS:          0  iACCESS:          0  iHIT:          0  iMISS:          0  dACCESS:          0  dHIT:          0  dMISS:          0  itACCESS:          0  itHIT:          0  itMISS:          0  dtACCESS:          0  dtHIT:          0  dtMISS:          0
cpu0_L1I TRANSLATION  ACCESS:          0  HIT:          0  MISS:          0  iACCESS:          0  iHIT:          0  iMISS:          0  dACCESS:          0  dHIT:          0  dMISS:          0  itACCESS:          0  itHIT:          0  itMISS:          0  dtACCESS:          0  dtHIT:          0  dtMISS:          0
cpu0_L1I PREFETCH  REQUESTED:   30430982  ISSUED:   30430976  CROSSED:          0  USEFUL:    2226103  USELESS:     779590
cpu0_L1I AVERAGE iMISS LATENCY: 25.0897 cycles
cpu0_L1I AVERAGE dMISS LATENCY: 0 cycles
cpu0_L1I AVERAGE itMISS LATENCY: 0 cycles
cpu0_L1I AVERAGE dtMISS LATENCY: 0 cycles
cpu0_L1I PAGE CROSSINGS (TLB HIT):         0 
cpu0_L1I PAGE CROSSINGS (TLB MISS):         0 
cpu0_L1I AVERAGE MISS LATENCY: 25.0897 cycles
cpu0_ITLB TOTAL       ACCESS:   33429507  HIT:   31172528  MISS:    2256979  iACCESS:   33429507  iHIT:   31172528  iMISS:    2256979  dACCESS:          0  dHIT:          0  dMISS:          0  itACCESS:          0  itHIT:          0  itMISS:          0  dtACCESS:          0  dtHIT:          0  dtMISS:          0
cpu0_ITLB LOAD         ACCESS:   33429507  HIT:   31172528  MISS:    2256979  iACCESS:   33429507  iHIT:   31172528  iMISS:    2256979  dACCESS:          0  dHIT:          0  dMISS:          0  itACCESS:          0  itHIT:          0  itMISS:          0  dtACCESS:          0  dtHIT:          0  dtMISS:          0
cpu0_ITLB RFO          ACCESS:          0  HIT:          0  MISS:          0  iACCESS:          0  iHIT:          0  iMISS:          0  dACCESS:          0  dHIT:          0  dMISS:          0  itACCESS:          0  itHIT:          0  itMISS:          0  dtACCESS:          0  dtHIT:          0  dtMISS:          0
cpu0_ITLB PREFETCH     ACCESS:          0  HIT:          0  MISS:          0  iACCESS:          0  iHIT:          0  iMISS:          0  dACCESS:          0  dHIT:          0  dMISS:          0  itACCESS:          0  itHIT:          0  itMISS:          0  dtACCESS:          0  dtHIT:          0  dtMISS:          0
cpu0_ITLB WRITE        ACCESS:          0  HIT:          0  MISS:          0  iACCESS:          0  iHIT:          0  iMISS:          0  dACCESS:          0  dHIT:          0  dMISS:          0  itACCESS:          0  itHIT:          0  itMISS:          0  dtACCESS:          0  dtHIT:          0  dtMISS:          0
cpu0_ITLB TRANSLATION  ACCESS:          0  HIT:          0  MISS:          0  iACCESS:          0  iHIT:          0  iMISS:          0  dACCESS:          0  dHIT:          0  dMISS:          0  itACCESS:          0  itHIT:          0  itMISS:          0  dtACCESS:          0  dtHIT:          0  dtMISS:          0
cpu0_ITLB PREFETCH  REQUESTED:          0  ISSUED:          0  CROSSED:          0  USEFUL:     398401  USELESS:      81888
cpu0_ITLB AVERAGE iMISS LATENCY: 10.7978 cycles
cpu0_ITLB AVERAGE dMISS LATENCY: 0 cycles
cpu0_ITLB AVERAGE itMISS LATENCY: 0 cycles
cpu0_ITLB AVERAGE dtMISS LATENCY: 0 cycles
cpu0_ITLB PAGE CROSSINGS (TLB HIT):         0 
cpu0_ITLB PAGE CROSSINGS (TLB MISS):         0 
cpu0_ITLB AVERAGE MISS LATENCY: 10.7978 cycles
cpu0_DTLB TOTAL       ACCESS:   28988223  HIT:   25485309  MISS:    3502914  iACCESS:          0  iHIT:          0  iMISS:          0  dACCESS:   28988223  dHIT:   25485309  dMISS:    3502914  itACCESS:          0  itHIT:          0  itMISS:          0  dtACCESS:          0  dtHIT:          0  dtMISS:          0
cpu0_DTLB LOAD         ACCESS:   28988223  HIT:   25485309  MISS:    3502914  iACCESS:          0  iHIT:          0  iMISS:          0  dACCESS:   28988223  dHIT:   25485309  dMISS:    3502914  itACCESS:          0  itHIT:          0  itMISS:          0  dtACCESS:          0  dtHIT:          0  dtMISS:          0
cpu0_DTLB RFO          ACCESS:          0  HIT:          0  MISS:          0  iACCESS:          0  iHIT:          0  iMISS:          0  dACCESS:          0  dHIT:          0  dMISS:          0  itACCESS:          0  itHIT:          0  itMISS:          0  dtACCESS:          0  dtHIT:          0  dtMISS:          0
cpu0_DTLB PREFETCH     ACCESS:          0  HIT:          0  MISS:          0  iACCESS:          0  iHIT:          0  iMISS:          0  dACCESS:          0  dHIT:          0  dMISS:          0  itACCESS:          0  itHIT:          0  itMISS:          0  dtACCESS:          0  dtHIT:          0  dtMISS:          0
cpu0_DTLB WRITE        ACCESS:          0  HIT:          0  MISS:          0  iACCESS:          0  iHIT:          0  iMISS:          0  dACCESS:          0  dHIT:          0  dMISS:          0  itACCESS:          0  itHIT:          0  itMISS:          0  dtACCESS:          0  dtHIT:          0  dtMISS:          0
cpu0_DTLB TRANSLATION  ACCESS:          0  HIT:          0  MISS:          0  iACCESS:          0  iHIT:          0  iMISS:          0  dACCESS:          0  dHIT:          0  dMISS:          0  itACCESS:          0  itHIT:          0  itMISS:          0  dtACCESS:          0  dtHIT:          0  dtMISS:          0
cpu0_DTLB PREFETCH  REQUESTED:          0  ISSUED:          0  CROSSED:          0  USEFUL:          0  USELESS:          0
cpu0_DTLB AVERAGE iMISS LATENCY: 0 cycles
cpu0_DTLB AVERAGE dMISS LATENCY: 25.5436 cycles
cpu0_DTLB AVERAGE itMISS LATENCY: 0 cycles
cpu0_DTLB AVERAGE dtMISS LATENCY: 0 cycles
cpu0_DTLB PAGE CROSSINGS (TLB HIT):         0 
cpu0_DTLB PAGE CROSSINGS (TLB MISS):         0 
cpu0_DTLB AVERAGE MISS LATENCY: 25.5436 cycles
cpu0_STLB TOTAL       ACCESS:    2542824  HIT:    2161589  MISS:     381235  iACCESS:     480296  iHIT:     359006  iMISS:     121290  dACCESS:    2062528  dHIT:    1802583  dMISS:     259945  itACCESS:          0  itHIT:          0  itMISS:          0  dtACCESS:          0  dtHIT:          0  dtMISS:          0
cpu0_STLB LOAD         ACCESS:    2542824  HIT:    2161589  MISS:     381235  iACCESS:     480296  iHIT:     359006  iMISS:     121290  dACCESS:    2062528  dHIT:    1802583  dMISS:     259945  itACCESS:          0  itHIT:          0  itMISS:          0  dtACCESS:          0  dtHIT:          0  dtMISS:          0
cpu0_STLB RFO          ACCESS:          0  HIT:          0  MISS:          0  iACCESS:          0  iHIT:          0  iMISS:          0  dACCESS:          0  dHIT:          0  dMISS:          0  itACCESS:          0  itHIT:          0  itMISS:          0  dtACCESS:          0  dtHIT:          0  dtMISS:          0
cpu0_STLB PREFETCH     ACCESS:          0  HIT:          0  MISS:          0  iACCESS:          0  iHIT:          0  iMISS:          0  dACCESS:          0  dHIT:          0  dMISS:          0  itACCESS:          0  itHIT:          0  itMISS:          0  dtACCESS:          0  dtHIT:          0  dtMISS:          0
cpu0_STLB WRITE        ACCESS:          0  HIT:          0  MISS:          0  iACCESS:          0  iHIT:          0  iMISS:          0  dACCESS:          0  dHIT:          0  dMISS:          0  itACCESS:          0  itHIT:          0  itMISS:          0  dtACCESS:          0  dtHIT:          0  dtMISS:          0
cpu0_STLB TRANSLATION  ACCESS:          0  HIT:          0  MISS:          0  iACCESS:          0  iHIT:          0  iMISS:          0  dACCESS:          0  dHIT:          0  dMISS:          0  itACCESS:          0  itHIT:          0  itMISS:          0  dtACCESS:          0  dtHIT:          0  dtMISS:          0
cpu0_STLB PREFETCH  REQUESTED:          0  ISSUED:          0  CROSSED:          0  USEFUL:          0  USELESS:          0
cpu0_STLB AVERAGE iMISS LATENCY: 53.8333 cycles
cpu0_STLB AVERAGE dMISS LATENCY: 191.142 cycles
cpu0_STLB AVERAGE itMISS LATENCY: 0 cycles
cpu0_STLB AVERAGE dtMISS LATENCY: 0 cycles
cpu0_STLB PAGE CROSSINGS (TLB HIT):         0 
cpu0_STLB PAGE CROSSINGS (TLB MISS):         0 
cpu0_STLB AVERAGE MISS LATENCY: 244.975 cycles
cpu0_L1D TOTAL       ACCESS:   45029045  HIT:   39367763  MISS:    5661282  iACCESS:          0  iHIT:          0  iMISS:          0  dACCESS:   44468409  dHIT:   39334124  dMISS:    5134285  itACCESS:     135646  itHIT:      15327  itMISS:     120319  dtACCESS:     424990  dtHIT:      18312  dtMISS:     406678
cpu0_L1D LOAD         ACCESS:   20316939  HIT:   18028523  MISS:    2288416  iACCESS:          0  iHIT:          0  iMISS:          0  dACCESS:   20316939  dHIT:   18028523  dMISS:    2288416  itACCESS:          0  itHIT:          0  itMISS:          0  dtACCESS:          0  dtHIT:          0  dtMISS:          0
cpu0_L1D RFO          ACCESS:          0  HIT:          0  MISS:          0  iACCESS:          0  iHIT:          0  iMISS:          0  dACCESS:          0  dHIT:          0  dMISS:          0  itACCESS:          0  itHIT:          0  itMISS:          0  dtACCESS:          0  dtHIT:          0  dtMISS:          0
cpu0_L1D PREFETCH     ACCESS:   13974610  HIT:   11704472  MISS:    2270138  iACCESS:          0  iHIT:          0  iMISS:          0  dACCESS:   13974610  dHIT:   11704472  dMISS:    2270138  itACCESS:          0  itHIT:          0  itMISS:          0  dtACCESS:          0  dtHIT:          0  dtMISS:          0
cpu0_L1D WRITE        ACCESS:   10176860  HIT:    9601129  MISS:     575731  iACCESS:          0  iHIT:          0  iMISS:          0  dACCESS:   10176860  dHIT:    9601129  dMISS:     575731  itACCESS:          0  itHIT:          0  itMISS:          0  dtACCESS:          0  dtHIT:          0  dtMISS:          0
cpu0_L1D TRANSLATION  ACCESS:     560636  HIT:      33639  MISS:     526997  iACCESS:          0  iHIT:          0  iMISS:          0  dACCESS:          0  dHIT:          0  dMISS:          0  itACCESS:     135646  itHIT:      15327  itMISS:     120319  dtACCESS:     424990  dtHIT:      18312  dtMISS:     406678
cpu0_L1D PREFETCH  REQUESTED:   20316939  ISSUED:   18560570  CROSSED:          0  USEFUL:     361386  USELESS:     931408
cpu0_L1D AVERAGE iMISS LATENCY: 0 cycles
cpu0_L1D AVERAGE dMISS LATENCY: 50.8526 cycles
cpu0_L1D AVERAGE itMISS LATENCY: 3.41091 cycles
cpu0_L1D AVERAGE dtMISS LATENCY: 12.0354 cycles
cpu0_L1D PAGE CROSSINGS (TLB HIT):         0 
cpu0_L1D PAGE CROSSINGS (TLB MISS):         0 
cpu0_L1D AVERAGE MISS LATENCY: 66.2988 cycles
cpu0_L2C TOTAL       ACCESS:    8671509  HIT:    4052009  MISS:    4619500  iACCESS:    3816743  iHIT:    2216508  iMISS:    1600235  dACCESS:    4364371  dHIT:    1773186  dMISS:    2591185  itACCESS:     119714  itHIT:      21273  itMISS:      98441  dtACCESS:     370681  dtHIT:      41042  dtMISS:     329639
cpu0_L2C LOAD         ACCESS:    2054006  HIT:     962365  MISS:    1091641  iACCESS:     848087  iHIT:     510252  iMISS:     337835  dACCESS:    1205919  dHIT:     452113  dMISS:     753806  itACCESS:          0  itHIT:          0  itMISS:          0  dtACCESS:          0  dtHIT:          0  dtMISS:          0
cpu0_L2C RFO          ACCESS:     215317  HIT:      77782  MISS:     137535  iACCESS:          0  iHIT:          0  iMISS:          0  dACCESS:     215317  dHIT:      77782  dMISS:     137535  itACCESS:          0  itHIT:          0  itMISS:          0  dtACCESS:          0  dtHIT:          0  dtMISS:          0
cpu0_L2C PREFETCH     ACCESS:    5572298  HIT:    2624444  MISS:    2947854  iACCESS:    2968656  iHIT:    1706256  iMISS:    1262400  dACCESS:    2603642  dHIT:     918188  dMISS:    1685454  itACCESS:          0  itHIT:          0  itMISS:          0  dtACCESS:          0  dtHIT:          0  dtMISS:          0
cpu0_L2C WRITE        ACCESS:     339493  HIT:     325103  MISS:      14390  iACCESS:          0  iHIT:          0  iMISS:          0  dACCESS:     339493  dHIT:     325103  dMISS:      14390  itACCESS:          0  itHIT:          0  itMISS:          0  dtACCESS:          0  dtHIT:          0  dtMISS:          0
cpu0_L2C TRANSLATION  ACCESS:     490395  HIT:      62315  MISS:     428080  iACCESS:          0  iHIT:          0  iMISS:          0  dACCESS:          0  dHIT:          0  dMISS:          0  itACCESS:     119714  itHIT:      21273  itMISS:      98441  dtACCESS:     370681  dtHIT:      41042  dtMISS:     329639
cpu0_L2C PREFETCH  REQUESTED:    1547952  ISSUED:    1547947  CROSSED:          0  USEFUL:     364555  USELESS:     342326
cpu0_L2C AVERAGE iMISS LATENCY: 40.5335 cycles
cpu0_L2C AVERAGE dMISS LATENCY: 77.9483 cycles
cpu0_L2C AVERAGE itMISS LATENCY: 3.92485 cycles
cpu0_L2C AVERAGE dtMISS LATENCY: 13.9516 cycles
cpu0_L2C PAGE CROSSINGS (TLB HIT):         0 
cpu0_L2C PAGE CROSSINGS (TLB MISS):         0 
cpu0_L2C AVERAGE MISS LATENCY: 136.359 cycles
LLC TOTAL       ACCESS:    4593190  HIT:    1404379  MISS:    3188811  iACCESS:    1507734  iHIT:     497650  iMISS:    1010084  dACCESS:    2657376  dHIT:     867481  dMISS:    1789895  itACCESS:      98441  itHIT:       7936  itMISS:      90505  dtACCESS:     329639  dtHIT:      31312  dtMISS:     298327
LLC LOAD         ACCESS:    1084662  HIT:     354765  MISS:     729897  iACCESS:     336622  iHIT:     121488  iMISS:     215134  dACCESS:     748040  dHIT:     233277  dMISS:     514763  itACCESS:          0  itHIT:          0  itMISS:          0  dtACCESS:          0  dtHIT:          0  dtMISS:          0
LLC RFO          ACCESS:     137527  HIT:      40596  MISS:      96931  iACCESS:          0  iHIT:          0  iMISS:          0  dACCESS:     137527  dHIT:      40596  dMISS:      96931  itACCESS:          0  itHIT:          0  itMISS:          0  dtACCESS:          0  dtHIT:          0  dtMISS:          0
LLC PREFETCH     ACCESS:    2730339  HIT:     767747  MISS:    1962592  iACCESS:    1171112  iHIT:     376162  iMISS:     794950  dACCESS:    1559227  dHIT:     391585  dMISS:    1167642  itACCESS:          0  itHIT:          0  itMISS:          0  dtACCESS:          0  dtHIT:          0  dtMISS:          0
LLC WRITE        ACCESS:     212582  HIT:     202023  MISS:      10559  iACCESS:          0  iHIT:          0  iMISS:          0  dACCESS:     212582  dHIT:     202023  dMISS:      10559  itACCESS:          0  itHIT:          0  itMISS:          0  dtACCESS:          0  dtHIT:          0  dtMISS:          0
LLC TRANSLATION  ACCESS:     428080  HIT:      39248  MISS:     388832  iACCESS:          0  iHIT:          0  iMISS:          0  dACCESS:          0  dHIT:          0  dMISS:          0  itACCESS:      98441  itHIT:       7936  itMISS:      90505  dtACCESS:     329639  dtHIT:      31312  dtMISS:     298327
LLC PREFETCH  REQUESTED:          0  ISSUED:          0  CROSSED:          0  USEFUL:          0  USELESS:          0
LLC AVERAGE iMISS LATENCY: 49.4153 cycles
LLC AVERAGE dMISS LATENCY: 98.6377 cycles
LLC AVERAGE itMISS LATENCY: 5.07363 cycles
LLC AVERAGE dtMISS LATENCY: 18.1666 cycles
LLC PAGE CROSSINGS (TLB HIT):         0 
LLC PAGE CROSSINGS (TLB MISS):         0 
LLC AVERAGE MISS LATENCY: 171.294 cycles

PageTableWalker TOTAL       ACCESS:     187581  
PageTableWalker AVERAGE LATENCY: 6.35267 cycles
PageTableWalker TOTAL LATENCY: 1191640 cycles

DRAM Statistics
Channel 0
 RQ ROW_BUFFER_HIT:     702131
  ROW_BUFFER_MISS:    2458030
 AVG DBUS CONGESTED CYCLE:    3.64983
 WQ ROW_BUFFER_HIT:      67691
  ROW_BUFFER_MISS:      56026  FULL:          0

