last_page:0x200000000000000
VMEM_RES_CAP:0x100000
PAGE_SIZE:4096
LOG2_PAGE_SIZE:12
LOG2_PAGE_TABLE_SIZE:9
page_table_levels:5
WARNING: physical memory size is smaller than virtual memory size
FDiP enabled with aggresivity 16

*** ChampSim Multicore Out-of-Order Simulator ***

Warmup Instructions: 50000000
Simulation Instructions: 100000000
Number of CPUs: 1
Small page size: 4096
Large page size: 2097152

CPU 0 Bimodal branch predictor
Basic BTB sets: 1024 ways: 8 indirect buffer size: 4096 RAS size: 64
Instruction page size distrubution: 0
Loading instruction page size distribution from /home/bsc/bsc018186/scratch/itp_asplos25_AE/dump/smt_srv207_ap_srv727_ap_1024i.pdst
Data page size distrubution: 0
Loading data page size distribution from /home/bsc/bsc018186/scratch/itp_asplos25_AE/dump/smt_srv207_ap_srv727_ap_1024i.pdst
cpu0_L2C IP-based stride prefetcher
cpu0_L2C is using xPTP/LRU
	TLB_LOWER_STRESS_THRESHOLD:1
	TLB_UPPER_STRESS_THRESHOLD:4
	MIN_EVICTION_POSITION:4
cpu0_L1D next line prefetcher
cpu0_STLB using iTP with max lru@8
cpu0_STLB using iTP with instr@0 and data@2
Init sat counter with 3 bits (max:50).
cpu0_L1I next line prefetcher
Off-chip DRAM Size: 4 GiB Channels: 1 Width: 64-bit Data Rate: 3200 MT/s
Heartbeat CPU 0 instructions: 10000002 cycles: 2500679 heartbeat IPC: 3.99892 cumulative IPC: 3.99892 (Simulation time: 0 hr 0 min 37 sec) 
Heartbeat CPU 0 instructions: 20000000 cycles: 5000860 heartbeat IPC: 3.99971 cumulative IPC: 3.99932 (Simulation time: 0 hr 1 min 16 sec) 
Heartbeat CPU 0 instructions: 30000002 cycles: 7501108 heartbeat IPC: 3.99961 cumulative IPC: 3.99941 (Simulation time: 0 hr 1 min 55 sec) 
Heartbeat CPU 0 instructions: 40000002 cycles: 10001351 heartbeat IPC: 3.99962 cumulative IPC: 3.99946 (Simulation time: 0 hr 2 min 35 sec) 
Heartbeat CPU 0 instructions: 50000000 cycles: 12501543 heartbeat IPC: 3.9997 cumulative IPC: 3.99951 (Simulation time: 0 hr 3 min 15 sec) 
Warmup finished CPU 0 instructions: 50000000 cycles: 12501544 cumulative IPC: 3.99951 (Simulation time: 0 hr 3 min 15 sec) 

Warmup complete CPU 0 instructions: 50000000 cycles: 12501544 (Simulation time: 0 hr 3 min 15 sec) 

Heartbeat CPU 0 instructions: 60000004 cycles: 39846045 heartbeat IPC: 0.365705 cumulative IPC: 0.365705 (Simulation time: 0 hr 4 min 35 sec) 
Heartbeat CPU 0 instructions: 70000004 cycles: 67721946 heartbeat IPC: 0.358733 cumulative IPC: 0.362186 (Simulation time: 0 hr 5 min 56 sec) 
Heartbeat CPU 0 instructions: 80000001 cycles: 96788051 heartbeat IPC: 0.344044 cumulative IPC: 0.355929 (Simulation time: 0 hr 7 min 18 sec) 
Heartbeat CPU 0 instructions: 90000000 cycles: 125327176 heartbeat IPC: 0.350397 cumulative IPC: 0.35453 (Simulation time: 0 hr 8 min 40 sec) 
Heartbeat CPU 0 instructions: 100000000 cycles: 153448969 heartbeat IPC: 0.355597 cumulative IPC: 0.354743 (Simulation time: 0 hr 10 min 1 sec) 
Heartbeat CPU 0 instructions: 110000000 cycles: 182268604 heartbeat IPC: 0.346986 cumulative IPC: 0.353426 (Simulation time: 0 hr 11 min 24 sec) 
Heartbeat CPU 0 instructions: 120000002 cycles: 210507310 heartbeat IPC: 0.354124 cumulative IPC: 0.353526 (Simulation time: 0 hr 12 min 45 sec) 
Heartbeat CPU 0 instructions: 130000000 cycles: 237712178 heartbeat IPC: 0.367582 cumulative IPC: 0.355224 (Simulation time: 0 hr 14 min 6 sec) 
Heartbeat CPU 0 instructions: 140000002 cycles: 266747990 heartbeat IPC: 0.344403 cumulative IPC: 0.353988 (Simulation time: 0 hr 15 min 28 sec) 
Heartbeat CPU 0 instructions: 150000003 cycles: 294748556 heartbeat IPC: 0.357136 cumulative IPC: 0.3543 (Simulation time: 0 hr 16 min 50 sec) 
Simulation finished CPU 0 instructions: 100000003 cycles: 282247013 cumulative IPC: 0.3543 (Simulation time: 0 hr 16 min 50 sec) 

Simulation complete CPU 0 instructions: 100000003 cycles: 282247013 (Simulation time: 0 hr 16 min 50 sec) 


ChampSim completed all CPUs

Saving instructions large page distribution to /home/bsc/bsc018186/scratch/itp_asplos25_AE/dump/smt_srv207_ap_srv727_ap_1024i.pdst...
Saving data large page distribution to /home/bsc/bsc018186/scratch/itp_asplos25_AE/dump/smt_srv207_ap_srv727_ap_1024i.pdst...
=== Simulation ===
CPU 0 runs /gpfs/projects/bsc18/MN4/bsc18/romol/ChampSim/traces/qualcomm_srv/smt_srv207_ap_srv727_ap_1024i.champsimtrace.xz

Region of Interest Statistics

CPU 0 cumulative IPC: 0.3543 instructions: 100000003 cycles: 282247013
CPU 0 Branch Prediction Accuracy: 74.5167% MPKI: 45.8478 Average ROB Occupancy at Mispredict: 10.7133
Branch type MPKI
BRANCH_DIRECT_JUMP: 1.43368
BRANCH_INDIRECT: 24.037
BRANCH_CONDITIONAL: 13.0153
BRANCH_DIRECT_CALL: 2.7401
BRANCH_INDIRECT_CALL: 1.02377
BRANCH_RETURN: 3.59798

Instructions large pages: 0
Instructions small pages: 11368
Large page distribution for instructions: 0%

Data large pages: 0
Data small pages: 9849
Large page distribution for data: 0%

cpu0_L1I TOTAL       ACCESS:   39180682  HIT:   30188836  MISS:    8991846  iACCESS:   39180682  iHIT:   30188836  iMISS:    8991846  dACCESS:          0  dHIT:          0  dMISS:          0  itACCESS:          0  itHIT:          0  itMISS:          0  dtACCESS:          0  dtHIT:          0  dtMISS:          0
cpu0_L1I LOAD         ACCESS:   11577201  HIT:    9132692  MISS:    2444509  iACCESS:   11577201  iHIT:    9132692  iMISS:    2444509  dACCESS:          0  dHIT:          0  dMISS:          0  itACCESS:          0  itHIT:          0  itMISS:          0  dtACCESS:          0  dtHIT:          0  dtMISS:          0
cpu0_L1I RFO          ACCESS:          0  HIT:          0  MISS:          0  iACCESS:          0  iHIT:          0  iMISS:          0  dACCESS:          0  dHIT:          0  dMISS:          0  itACCESS:          0  itHIT:          0  itMISS:          0  dtACCESS:          0  dtHIT:          0  dtMISS:          0
cpu0_L1I PREFETCH     ACCESS:   27603481  HIT:   21056144  MISS:    6547337  iACCESS:   27603481  iHIT:   21056144  iMISS:    6547337  dACCESS:          0  dHIT:          0  dMISS:          0  itACCESS:          0  itHIT:          0  itMISS:          0  dtACCESS:          0  dtHIT:          0  dtMISS:          0
cpu0_L1I WRITE        ACCESS:          0  HIT:          0  MISS:          0  iACCESS:          0  iHIT:          0  iMISS:          0  dACCESS:          0  dHIT:          0  dMISS:          0  itACCESS:          0  itHIT:          0  itMISS:          0  dtACCESS:          0  dtHIT:          0  dtMISS:          0
cpu0_L1I TRANSLATION  ACCESS:          0  HIT:          0  MISS:          0  iACCESS:          0  iHIT:          0  iMISS:          0  dACCESS:          0  dHIT:          0  dMISS:          0  itACCESS:          0  itHIT:          0  itMISS:          0  dtACCESS:          0  dtHIT:          0  dtMISS:          0
cpu0_L1I PREFETCH  REQUESTED:   30206009  ISSUED:   30205370  CROSSED:          0  USEFUL:    2211842  USELESS:     792375
cpu0_L1I AVERAGE iMISS LATENCY: 23.4996 cycles
cpu0_L1I AVERAGE dMISS LATENCY: 0 cycles
cpu0_L1I AVERAGE itMISS LATENCY: 0 cycles
cpu0_L1I AVERAGE dtMISS LATENCY: 0 cycles
cpu0_L1I PAGE CROSSINGS (TLB HIT):         0 
cpu0_L1I PAGE CROSSINGS (TLB MISS):         0 
cpu0_L1I AVERAGE MISS LATENCY: 23.4996 cycles
cpu0_ITLB TOTAL       ACCESS:   33198773  HIT:   30937557  MISS:    2261216  iACCESS:   33198773  iHIT:   30937557  iMISS:    2261216  dACCESS:          0  dHIT:          0  dMISS:          0  itACCESS:          0  itHIT:          0  itMISS:          0  dtACCESS:          0  dtHIT:          0  dtMISS:          0
cpu0_ITLB LOAD         ACCESS:   33198773  HIT:   30937557  MISS:    2261216  iACCESS:   33198773  iHIT:   30937557  iMISS:    2261216  dACCESS:          0  dHIT:          0  dMISS:          0  itACCESS:          0  itHIT:          0  itMISS:          0  dtACCESS:          0  dtHIT:          0  dtMISS:          0
cpu0_ITLB RFO          ACCESS:          0  HIT:          0  MISS:          0  iACCESS:          0  iHIT:          0  iMISS:          0  dACCESS:          0  dHIT:          0  dMISS:          0  itACCESS:          0  itHIT:          0  itMISS:          0  dtACCESS:          0  dtHIT:          0  dtMISS:          0
cpu0_ITLB PREFETCH     ACCESS:          0  HIT:          0  MISS:          0  iACCESS:          0  iHIT:          0  iMISS:          0  dACCESS:          0  dHIT:          0  dMISS:          0  itACCESS:          0  itHIT:          0  itMISS:          0  dtACCESS:          0  dtHIT:          0  dtMISS:          0
cpu0_ITLB WRITE        ACCESS:          0  HIT:          0  MISS:          0  iACCESS:          0  iHIT:          0  iMISS:          0  dACCESS:          0  dHIT:          0  dMISS:          0  itACCESS:          0  itHIT:          0  itMISS:          0  dtACCESS:          0  dtHIT:          0  dtMISS:          0
cpu0_ITLB TRANSLATION  ACCESS:          0  HIT:          0  MISS:          0  iACCESS:          0  iHIT:          0  iMISS:          0  dACCESS:          0  dHIT:          0  dMISS:          0  itACCESS:          0  itHIT:          0  itMISS:          0  dtACCESS:          0  dtHIT:          0  dtMISS:          0
cpu0_ITLB PREFETCH  REQUESTED:          0  ISSUED:          0  CROSSED:          0  USEFUL:     399215  USELESS:      82638
cpu0_ITLB AVERAGE iMISS LATENCY: 6.26618 cycles
cpu0_ITLB AVERAGE dMISS LATENCY: 0 cycles
cpu0_ITLB AVERAGE itMISS LATENCY: 0 cycles
cpu0_ITLB AVERAGE dtMISS LATENCY: 0 cycles
cpu0_ITLB PAGE CROSSINGS (TLB HIT):         0 
cpu0_ITLB PAGE CROSSINGS (TLB MISS):         0 
cpu0_ITLB AVERAGE MISS LATENCY: 6.26618 cycles
cpu0_DTLB TOTAL       ACCESS:   29240461  HIT:   25720072  MISS:    3520389  iACCESS:          0  iHIT:          0  iMISS:          0  dACCESS:   29240461  dHIT:   25720072  dMISS:    3520389  itACCESS:          0  itHIT:          0  itMISS:          0  dtACCESS:          0  dtHIT:          0  dtMISS:          0
cpu0_DTLB LOAD         ACCESS:   29240461  HIT:   25720072  MISS:    3520389  iACCESS:          0  iHIT:          0  iMISS:          0  dACCESS:   29240461  dHIT:   25720072  dMISS:    3520389  itACCESS:          0  itHIT:          0  itMISS:          0  dtACCESS:          0  dtHIT:          0  dtMISS:          0
cpu0_DTLB RFO          ACCESS:          0  HIT:          0  MISS:          0  iACCESS:          0  iHIT:          0  iMISS:          0  dACCESS:          0  dHIT:          0  dMISS:          0  itACCESS:          0  itHIT:          0  itMISS:          0  dtACCESS:          0  dtHIT:          0  dtMISS:          0
cpu0_DTLB PREFETCH     ACCESS:          0  HIT:          0  MISS:          0  iACCESS:          0  iHIT:          0  iMISS:          0  dACCESS:          0  dHIT:          0  dMISS:          0  itACCESS:          0  itHIT:          0  itMISS:          0  dtACCESS:          0  dtHIT:          0  dtMISS:          0
cpu0_DTLB WRITE        ACCESS:          0  HIT:          0  MISS:          0  iACCESS:          0  iHIT:          0  iMISS:          0  dACCESS:          0  dHIT:          0  dMISS:          0  itACCESS:          0  itHIT:          0  itMISS:          0  dtACCESS:          0  dtHIT:          0  dtMISS:          0
cpu0_DTLB TRANSLATION  ACCESS:          0  HIT:          0  MISS:          0  iACCESS:          0  iHIT:          0  iMISS:          0  dACCESS:          0  dHIT:          0  dMISS:          0  itACCESS:          0  itHIT:          0  itMISS:          0  dtACCESS:          0  dtHIT:          0  dtMISS:          0
cpu0_DTLB PREFETCH  REQUESTED:          0  ISSUED:          0  CROSSED:          0  USEFUL:          0  USELESS:          0
cpu0_DTLB AVERAGE iMISS LATENCY: 0 cycles
cpu0_DTLB AVERAGE dMISS LATENCY: 20.3311 cycles
cpu0_DTLB AVERAGE itMISS LATENCY: 0 cycles
cpu0_DTLB AVERAGE dtMISS LATENCY: 0 cycles
cpu0_DTLB PAGE CROSSINGS (TLB HIT):         0 
cpu0_DTLB PAGE CROSSINGS (TLB MISS):         0 
cpu0_DTLB AVERAGE MISS LATENCY: 20.3311 cycles
cpu0_STLB TOTAL       ACCESS:    2567201  HIT:    2176435  MISS:     390766  iACCESS:     481862  iHIT:     417503  iMISS:      64359  dACCESS:    2085339  dHIT:    1758932  dMISS:     326407  itACCESS:          0  itHIT:          0  itMISS:          0  dtACCESS:          0  dtHIT:          0  dtMISS:          0
cpu0_STLB LOAD         ACCESS:    2567201  HIT:    2176435  MISS:     390766  iACCESS:     481862  iHIT:     417503  iMISS:      64359  dACCESS:    2085339  dHIT:    1758932  dMISS:     326407  itACCESS:          0  itHIT:          0  itMISS:          0  dtACCESS:          0  dtHIT:          0  dtMISS:          0
cpu0_STLB RFO          ACCESS:          0  HIT:          0  MISS:          0  iACCESS:          0  iHIT:          0  iMISS:          0  dACCESS:          0  dHIT:          0  dMISS:          0  itACCESS:          0  itHIT:          0  itMISS:          0  dtACCESS:          0  dtHIT:          0  dtMISS:          0
cpu0_STLB PREFETCH     ACCESS:          0  HIT:          0  MISS:          0  iACCESS:          0  iHIT:          0  iMISS:          0  dACCESS:          0  dHIT:          0  dMISS:          0  itACCESS:          0  itHIT:          0  itMISS:          0  dtACCESS:          0  dtHIT:          0  dtMISS:          0
cpu0_STLB WRITE        ACCESS:          0  HIT:          0  MISS:          0  iACCESS:          0  iHIT:          0  iMISS:          0  dACCESS:          0  dHIT:          0  dMISS:          0  itACCESS:          0  itHIT:          0  itMISS:          0  dtACCESS:          0  dtHIT:          0  dtMISS:          0
cpu0_STLB TRANSLATION  ACCESS:          0  HIT:          0  MISS:          0  iACCESS:          0  iHIT:          0  iMISS:          0  dACCESS:          0  dHIT:          0  dMISS:          0  itACCESS:          0  itHIT:          0  itMISS:          0  dtACCESS:          0  dtHIT:          0  dtMISS:          0
cpu0_STLB PREFETCH  REQUESTED:          0  ISSUED:          0  CROSSED:          0  USEFUL:          0  USELESS:          0
cpu0_STLB AVERAGE iMISS LATENCY: 26.5539 cycles
cpu0_STLB AVERAGE dMISS LATENCY: 140.101 cycles
cpu0_STLB AVERAGE itMISS LATENCY: 0 cycles
cpu0_STLB AVERAGE dtMISS LATENCY: 0 cycles
cpu0_STLB PAGE CROSSINGS (TLB HIT):         0 
cpu0_STLB PAGE CROSSINGS (TLB MISS):         0 
cpu0_STLB AVERAGE MISS LATENCY: 166.655 cycles
cpu0_L1D TOTAL       ACCESS:   45685681  HIT:   39672584  MISS:    6013097  iACCESS:          0  iHIT:          0  iMISS:          0  dACCESS:   45091457  dHIT:   39642757  dMISS:    5448700  itACCESS:      75264  itHIT:       5867  itMISS:      69397  dtACCESS:     518960  dtHIT:      23960  dtMISS:     495000
cpu0_L1D LOAD         ACCESS:   20666225  HIT:   18211644  MISS:    2454581  iACCESS:          0  iHIT:          0  iMISS:          0  dACCESS:   20666225  dHIT:   18211644  dMISS:    2454581  itACCESS:          0  itHIT:          0  itMISS:          0  dtACCESS:          0  dtHIT:          0  dtMISS:          0
cpu0_L1D RFO          ACCESS:          0  HIT:          0  MISS:          0  iACCESS:          0  iHIT:          0  iMISS:          0  dACCESS:          0  dHIT:          0  dMISS:          0  itACCESS:          0  itHIT:          0  itMISS:          0  dtACCESS:          0  dtHIT:          0  dtMISS:          0
cpu0_L1D PREFETCH     ACCESS:   14306896  HIT:   11924054  MISS:    2382842  iACCESS:          0  iHIT:          0  iMISS:          0  dACCESS:   14306896  dHIT:   11924054  dMISS:    2382842  itACCESS:          0  itHIT:          0  itMISS:          0  dtACCESS:          0  dtHIT:          0  dtMISS:          0
cpu0_L1D WRITE        ACCESS:   10118336  HIT:    9507059  MISS:     611277  iACCESS:          0  iHIT:          0  iMISS:          0  dACCESS:   10118336  dHIT:    9507059  dMISS:     611277  itACCESS:          0  itHIT:          0  itMISS:          0  dtACCESS:          0  dtHIT:          0  dtMISS:          0
cpu0_L1D TRANSLATION  ACCESS:     594224  HIT:      29827  MISS:     564397  iACCESS:          0  iHIT:          0  iMISS:          0  dACCESS:          0  dHIT:          0  dMISS:          0  itACCESS:      75264  itHIT:       5867  itMISS:      69397  dtACCESS:     518960  dtHIT:      23960  dtMISS:     495000
cpu0_L1D PREFETCH  REQUESTED:   20666225  ISSUED:   18891990  CROSSED:          0  USEFUL:     381241  USELESS:     961348
cpu0_L1D AVERAGE iMISS LATENCY: 0 cycles
cpu0_L1D AVERAGE dMISS LATENCY: 48.9583 cycles
cpu0_L1D AVERAGE itMISS LATENCY: 1.61692 cycles
cpu0_L1D AVERAGE dtMISS LATENCY: 8.27574 cycles
cpu0_L1D PAGE CROSSINGS (TLB HIT):         0 
cpu0_L1D PAGE CROSSINGS (TLB MISS):         0 
cpu0_L1D AVERAGE MISS LATENCY: 58.8509 cycles
cpu0_L2C TOTAL       ACCESS:    8825794  HIT:    2453241  MISS:    6372553  iACCESS:    3821967  iHIT:    1377677  iMISS:    2444290  dACCESS:    4470281  dHIT:     851505  dMISS:    3618776  itACCESS:      69160  itHIT:      15224  itMISS:      53936  dtACCESS:     464386  dtHIT:     208835  dtMISS:     255551
cpu0_L2C LOAD         ACCESS:    2110796  HIT:     471544  MISS:    1639252  iACCESS:     850433  iHIT:     278087  iMISS:     572346  dACCESS:    1260363  dHIT:     193457  dMISS:    1066906  itACCESS:          0  itHIT:          0  itMISS:          0  dtACCESS:          0  dtHIT:          0  dtMISS:          0
cpu0_L2C RFO          ACCESS:     226459  HIT:      32633  MISS:     193826  iACCESS:          0  iHIT:          0  iMISS:          0  dACCESS:     226459  dHIT:      32633  dMISS:     193826  itACCESS:          0  itHIT:          0  itMISS:          0  dtACCESS:          0  dtHIT:          0  dtMISS:          0
cpu0_L2C PREFETCH     ACCESS:    5603985  HIT:    1597568  MISS:    4006417  iACCESS:    2971534  iHIT:    1099590  iMISS:    1871944  dACCESS:    2632451  dHIT:     497978  dMISS:    2134473  itACCESS:          0  itHIT:          0  itMISS:          0  dtACCESS:          0  dtHIT:          0  dtMISS:          0
cpu0_L2C WRITE        ACCESS:     351008  HIT:     127437  MISS:     223571  iACCESS:          0  iHIT:          0  iMISS:          0  dACCESS:     351008  dHIT:     127437  dMISS:     223571  itACCESS:          0  itHIT:          0  itMISS:          0  dtACCESS:          0  dtHIT:          0  dtMISS:          0
cpu0_L2C TRANSLATION  ACCESS:     533546  HIT:     224059  MISS:     309487  iACCESS:          0  iHIT:          0  iMISS:          0  dACCESS:          0  dHIT:          0  dMISS:          0  itACCESS:      69160  itHIT:      15224  itMISS:      53936  dtACCESS:     464386  dtHIT:     208835  dtMISS:     255551
cpu0_L2C PREFETCH  REQUESTED:    1529376  ISSUED:    1529364  CROSSED:          0  USEFUL:     377157  USELESS:     451752
cpu0_L2C AVERAGE iMISS LATENCY: 28.1243 cycles
cpu0_L2C AVERAGE dMISS LATENCY: 56.1841 cycles
cpu0_L2C AVERAGE itMISS LATENCY: 1.41923 cycles
cpu0_L2C AVERAGE dtMISS LATENCY: 7.10948 cycles
cpu0_L2C PAGE CROSSINGS (TLB HIT):         0 
cpu0_L2C PAGE CROSSINGS (TLB MISS):         0 
cpu0_L2C AVERAGE MISS LATENCY: 92.837 cycles
LLC TOTAL       ACCESS:    6217258  HIT:    3458253  MISS:    2759005  iACCESS:    2358148  iHIT:    1519209  iMISS:     838939  dACCESS:    3549623  dHIT:    1886699  dMISS:    1662924  itACCESS:      53936  itHIT:       9277  itMISS:      44659  dtACCESS:     255551  dtHIT:      43068  dtMISS:     212483
LLC LOAD         ACCESS:    1630799  HIT:     961752  MISS:     669047  iACCESS:     571036  iHIT:     395574  iMISS:     175462  dACCESS:    1059763  dHIT:     566178  dMISS:     493585  itACCESS:          0  itHIT:          0  itMISS:          0  dtACCESS:          0  dtHIT:          0  dtMISS:          0
LLC RFO          ACCESS:     193810  HIT:      98105  MISS:      95705  iACCESS:          0  iHIT:          0  iMISS:          0  dACCESS:     193810  dHIT:      98105  dMISS:      95705  itACCESS:          0  itHIT:          0  itMISS:          0  dtACCESS:          0  dtHIT:          0  dtMISS:          0
LLC PREFETCH     ACCESS:    3801102  HIT:    2068343  MISS:    1732759  iACCESS:    1787112  iHIT:    1123635  iMISS:     663477  dACCESS:    2013990  dHIT:     944708  dMISS:    1069282  itACCESS:          0  itHIT:          0  itMISS:          0  dtACCESS:          0  dtHIT:          0  dtMISS:          0
LLC WRITE        ACCESS:     282060  HIT:     277708  MISS:       4352  iACCESS:          0  iHIT:          0  iMISS:          0  dACCESS:     282060  dHIT:     277708  dMISS:       4352  itACCESS:          0  itHIT:          0  itMISS:          0  dtACCESS:          0  dtHIT:          0  dtMISS:          0
LLC TRANSLATION  ACCESS:     309487  HIT:      52345  MISS:     257142  iACCESS:          0  iHIT:          0  iMISS:          0  dACCESS:          0  dHIT:          0  dMISS:          0  itACCESS:      53936  itHIT:       9277  itMISS:      44659  dtACCESS:     255551  dtHIT:      43068  dtMISS:     212483
LLC PREFETCH  REQUESTED:          0  ISSUED:          0  CROSSED:          0  USEFUL:          0  USELESS:          0
LLC AVERAGE iMISS LATENCY: 48.3296 cycles
LLC AVERAGE dMISS LATENCY: 107.591 cycles
LLC AVERAGE itMISS LATENCY: 2.89187 cycles
LLC AVERAGE dtMISS LATENCY: 14.5917 cycles
LLC PAGE CROSSINGS (TLB HIT):         0 
LLC PAGE CROSSINGS (TLB MISS):         0 
LLC AVERAGE MISS LATENCY: 173.404 cycles

PageTableWalker TOTAL       ACCESS:     190692  
PageTableWalker AVERAGE LATENCY: 6.18707 cycles
PageTableWalker TOTAL LATENCY: 1179824 cycles

DRAM Statistics
Channel 0
 RQ ROW_BUFFER_HIT:     589179
  ROW_BUFFER_MISS:    2147163
 AVG DBUS CONGESTED CYCLE:    3.65697
 WQ ROW_BUFFER_HIT:      68603
  ROW_BUFFER_MISS:      67968  FULL:          0

