last_page:0x200000000000000
VMEM_RES_CAP:0x100000
PAGE_SIZE:4096
LOG2_PAGE_SIZE:12
LOG2_PAGE_TABLE_SIZE:9
page_table_levels:5
WARNING: physical memory size is smaller than virtual memory size
FDiP enabled with aggresivity 16

*** ChampSim Multicore Out-of-Order Simulator ***

Warmup Instructions: 50000000
Simulation Instructions: 100000000
Number of CPUs: 1
Small page size: 4096
Large page size: 2097152

CPU 0 Bimodal branch predictor
Basic BTB sets: 1024 ways: 8 indirect buffer size: 4096 RAS size: 64
Instruction page size distrubution: 0
Loading instruction page size distribution from /home/bsc/bsc018186/scratch/itp_asplos25_AE/dump/smt_srv85_ap_srv180_ap_1024i.pdst
Data page size distrubution: 0
Loading data page size distribution from /home/bsc/bsc018186/scratch/itp_asplos25_AE/dump/smt_srv85_ap_srv180_ap_1024i.pdst
cpu0_L2C IP-based stride prefetcher
cpu0_L1D next line prefetcher
cpu0_STLB using iTP with max lru@8
cpu0_STLB using iTP with instr@0 and data@2
Init sat counter with 3 bits (max:50).
cpu0_L1I next line prefetcher
Off-chip DRAM Size: 4 GiB Channels: 1 Width: 64-bit Data Rate: 3200 MT/s
Heartbeat CPU 0 instructions: 10000003 cycles: 2500545 heartbeat IPC: 3.99913 cumulative IPC: 3.99913 (Simulation time: 0 hr 0 min 35 sec) 
Heartbeat CPU 0 instructions: 20000003 cycles: 5000593 heartbeat IPC: 3.99993 cumulative IPC: 3.99953 (Simulation time: 0 hr 1 min 13 sec) 
Heartbeat CPU 0 instructions: 30000003 cycles: 7500660 heartbeat IPC: 3.9999 cumulative IPC: 3.99965 (Simulation time: 0 hr 1 min 51 sec) 
Heartbeat CPU 0 instructions: 40000001 cycles: 10000813 heartbeat IPC: 3.99976 cumulative IPC: 3.99968 (Simulation time: 0 hr 2 min 29 sec) 
Heartbeat CPU 0 instructions: 50000002 cycles: 12500861 heartbeat IPC: 3.99993 cumulative IPC: 3.99973 (Simulation time: 0 hr 3 min 7 sec) 
Warmup finished CPU 0 instructions: 50000002 cycles: 12500862 cumulative IPC: 3.99973 (Simulation time: 0 hr 3 min 7 sec) 

Warmup complete CPU 0 instructions: 50000002 cycles: 12500862 (Simulation time: 0 hr 3 min 7 sec) 

Heartbeat CPU 0 instructions: 60000004 cycles: 41689829 heartbeat IPC: 0.342596 cumulative IPC: 0.342596 (Simulation time: 0 hr 4 min 27 sec) 
Heartbeat CPU 0 instructions: 70000003 cycles: 70122339 heartbeat IPC: 0.351711 cumulative IPC: 0.347093 (Simulation time: 0 hr 5 min 45 sec) 
Heartbeat CPU 0 instructions: 80000000 cycles: 99799977 heartbeat IPC: 0.336954 cumulative IPC: 0.343647 (Simulation time: 0 hr 7 min 5 sec) 
Heartbeat CPU 0 instructions: 90000002 cycles: 129242352 heartbeat IPC: 0.339647 cumulative IPC: 0.342638 (Simulation time: 0 hr 8 min 26 sec) 
Heartbeat CPU 0 instructions: 100000000 cycles: 158526933 heartbeat IPC: 0.341477 cumulative IPC: 0.342405 (Simulation time: 0 hr 9 min 46 sec) 
Heartbeat CPU 0 instructions: 110000000 cycles: 188361936 heartbeat IPC: 0.335177 cumulative IPC: 0.341179 (Simulation time: 0 hr 11 min 6 sec) 
Heartbeat CPU 0 instructions: 120000001 cycles: 217431932 heartbeat IPC: 0.343998 cumulative IPC: 0.341579 (Simulation time: 0 hr 12 min 26 sec) 
Heartbeat CPU 0 instructions: 130000000 cycles: 245459451 heartbeat IPC: 0.356793 cumulative IPC: 0.343409 (Simulation time: 0 hr 13 min 45 sec) 
Heartbeat CPU 0 instructions: 140000002 cycles: 275043230 heartbeat IPC: 0.338024 cumulative IPC: 0.342802 (Simulation time: 0 hr 15 min 5 sec) 
Heartbeat CPU 0 instructions: 150000000 cycles: 304176793 heartbeat IPC: 0.343247 cumulative IPC: 0.342847 (Simulation time: 0 hr 16 min 25 sec) 
Simulation finished CPU 0 instructions: 100000003 cycles: 291675933 cumulative IPC: 0.342847 (Simulation time: 0 hr 16 min 25 sec) 

Simulation complete CPU 0 instructions: 100000003 cycles: 291675933 (Simulation time: 0 hr 16 min 25 sec) 


ChampSim completed all CPUs

Saving instructions large page distribution to /home/bsc/bsc018186/scratch/itp_asplos25_AE/dump/smt_srv85_ap_srv180_ap_1024i.pdst...
Saving data large page distribution to /home/bsc/bsc018186/scratch/itp_asplos25_AE/dump/smt_srv85_ap_srv180_ap_1024i.pdst...
=== Simulation ===
CPU 0 runs /gpfs/projects/bsc18/MN4/bsc18/romol/ChampSim/traces/qualcomm_srv/smt_srv85_ap_srv180_ap_1024i.champsimtrace.xz

Region of Interest Statistics

CPU 0 cumulative IPC: 0.342847 instructions: 100000003 cycles: 291675933
CPU 0 Branch Prediction Accuracy: 75.818% MPKI: 43.4496 Average ROB Occupancy at Mispredict: 11.5911
Branch type MPKI
BRANCH_DIRECT_JUMP: 1.30954
BRANCH_INDIRECT: 22.6756
BRANCH_CONDITIONAL: 12.6136
BRANCH_DIRECT_CALL: 2.49478
BRANCH_INDIRECT_CALL: 0.92066
BRANCH_RETURN: 3.43539

Instructions large pages: 0
Instructions small pages: 13336
Large page distribution for instructions: 0%

Data large pages: 0
Data small pages: 12088
Large page distribution for data: 0%

cpu0_L1I TOTAL       ACCESS:   39077598  HIT:   30391822  MISS:    8685776  iACCESS:   39077598  iHIT:   30391822  iMISS:    8685776  dACCESS:          0  dHIT:          0  dMISS:          0  itACCESS:          0  itHIT:          0  itMISS:          0  dtACCESS:          0  dtHIT:          0  dtMISS:          0
cpu0_L1I LOAD         ACCESS:   11756365  HIT:    9385796  MISS:    2370569  iACCESS:   11756365  iHIT:    9385796  iMISS:    2370569  dACCESS:          0  dHIT:          0  dMISS:          0  itACCESS:          0  itHIT:          0  itMISS:          0  dtACCESS:          0  dtHIT:          0  dtMISS:          0
cpu0_L1I RFO          ACCESS:          0  HIT:          0  MISS:          0  iACCESS:          0  iHIT:          0  iMISS:          0  dACCESS:          0  dHIT:          0  dMISS:          0  itACCESS:          0  itHIT:          0  itMISS:          0  dtACCESS:          0  dtHIT:          0  dtMISS:          0
cpu0_L1I PREFETCH     ACCESS:   27321233  HIT:   21006026  MISS:    6315207  iACCESS:   27321233  iHIT:   21006026  iMISS:    6315207  dACCESS:          0  dHIT:          0  dMISS:          0  itACCESS:          0  itHIT:          0  itMISS:          0  dtACCESS:          0  dtHIT:          0  dtMISS:          0
cpu0_L1I WRITE        ACCESS:          0  HIT:          0  MISS:          0  iACCESS:          0  iHIT:          0  iMISS:          0  dACCESS:          0  dHIT:          0  dMISS:          0  itACCESS:          0  itHIT:          0  itMISS:          0  dtACCESS:          0  dtHIT:          0  dtMISS:          0
cpu0_L1I TRANSLATION  ACCESS:          0  HIT:          0  MISS:          0  iACCESS:          0  iHIT:          0  iMISS:          0  dACCESS:          0  dHIT:          0  dMISS:          0  itACCESS:          0  itHIT:          0  itMISS:          0  dtACCESS:          0  dtHIT:          0  dtMISS:          0
cpu0_L1I PREFETCH  REQUESTED:   30193005  ISSUED:   30192975  CROSSED:          0  USEFUL:    2197336  USELESS:     753108
cpu0_L1I AVERAGE iMISS LATENCY: 23.5316 cycles
cpu0_L1I AVERAGE dMISS LATENCY: 0 cycles
cpu0_L1I AVERAGE itMISS LATENCY: 0 cycles
cpu0_L1I AVERAGE dtMISS LATENCY: 0 cycles
cpu0_L1I PAGE CROSSINGS (TLB HIT):         0 
cpu0_L1I PAGE CROSSINGS (TLB MISS):         0 
cpu0_L1I AVERAGE MISS LATENCY: 23.5316 cycles
cpu0_ITLB TOTAL       ACCESS:   32979406  HIT:   30780512  MISS:    2198894  iACCESS:   32979406  iHIT:   30780512  iMISS:    2198894  dACCESS:          0  dHIT:          0  dMISS:          0  itACCESS:          0  itHIT:          0  itMISS:          0  dtACCESS:          0  dtHIT:          0  dtMISS:          0
cpu0_ITLB LOAD         ACCESS:   32979406  HIT:   30780512  MISS:    2198894  iACCESS:   32979406  iHIT:   30780512  iMISS:    2198894  dACCESS:          0  dHIT:          0  dMISS:          0  itACCESS:          0  itHIT:          0  itMISS:          0  dtACCESS:          0  dtHIT:          0  dtMISS:          0
cpu0_ITLB RFO          ACCESS:          0  HIT:          0  MISS:          0  iACCESS:          0  iHIT:          0  iMISS:          0  dACCESS:          0  dHIT:          0  dMISS:          0  itACCESS:          0  itHIT:          0  itMISS:          0  dtACCESS:          0  dtHIT:          0  dtMISS:          0
cpu0_ITLB PREFETCH     ACCESS:          0  HIT:          0  MISS:          0  iACCESS:          0  iHIT:          0  iMISS:          0  dACCESS:          0  dHIT:          0  dMISS:          0  itACCESS:          0  itHIT:          0  itMISS:          0  dtACCESS:          0  dtHIT:          0  dtMISS:          0
cpu0_ITLB WRITE        ACCESS:          0  HIT:          0  MISS:          0  iACCESS:          0  iHIT:          0  iMISS:          0  dACCESS:          0  dHIT:          0  dMISS:          0  itACCESS:          0  itHIT:          0  itMISS:          0  dtACCESS:          0  dtHIT:          0  dtMISS:          0
cpu0_ITLB TRANSLATION  ACCESS:          0  HIT:          0  MISS:          0  iACCESS:          0  iHIT:          0  iMISS:          0  dACCESS:          0  dHIT:          0  dMISS:          0  itACCESS:          0  itHIT:          0  itMISS:          0  dtACCESS:          0  dtHIT:          0  dtMISS:          0
cpu0_ITLB PREFETCH  REQUESTED:          0  ISSUED:          0  CROSSED:          0  USEFUL:     383559  USELESS:      77352
cpu0_ITLB AVERAGE iMISS LATENCY: 6.15024 cycles
cpu0_ITLB AVERAGE dMISS LATENCY: 0 cycles
cpu0_ITLB AVERAGE itMISS LATENCY: 0 cycles
cpu0_ITLB AVERAGE dtMISS LATENCY: 0 cycles
cpu0_ITLB PAGE CROSSINGS (TLB HIT):         0 
cpu0_ITLB PAGE CROSSINGS (TLB MISS):         0 
cpu0_ITLB AVERAGE MISS LATENCY: 6.15024 cycles
cpu0_DTLB TOTAL       ACCESS:   28752668  HIT:   25048976  MISS:    3703692  iACCESS:          0  iHIT:          0  iMISS:          0  dACCESS:   28752668  dHIT:   25048976  dMISS:    3703692  itACCESS:          0  itHIT:          0  itMISS:          0  dtACCESS:          0  dtHIT:          0  dtMISS:          0
cpu0_DTLB LOAD         ACCESS:   28752668  HIT:   25048976  MISS:    3703692  iACCESS:          0  iHIT:          0  iMISS:          0  dACCESS:   28752668  dHIT:   25048976  dMISS:    3703692  itACCESS:          0  itHIT:          0  itMISS:          0  dtACCESS:          0  dtHIT:          0  dtMISS:          0
cpu0_DTLB RFO          ACCESS:          0  HIT:          0  MISS:          0  iACCESS:          0  iHIT:          0  iMISS:          0  dACCESS:          0  dHIT:          0  dMISS:          0  itACCESS:          0  itHIT:          0  itMISS:          0  dtACCESS:          0  dtHIT:          0  dtMISS:          0
cpu0_DTLB PREFETCH     ACCESS:          0  HIT:          0  MISS:          0  iACCESS:          0  iHIT:          0  iMISS:          0  dACCESS:          0  dHIT:          0  dMISS:          0  itACCESS:          0  itHIT:          0  itMISS:          0  dtACCESS:          0  dtHIT:          0  dtMISS:          0
cpu0_DTLB WRITE        ACCESS:          0  HIT:          0  MISS:          0  iACCESS:          0  iHIT:          0  iMISS:          0  dACCESS:          0  dHIT:          0  dMISS:          0  itACCESS:          0  itHIT:          0  itMISS:          0  dtACCESS:          0  dtHIT:          0  dtMISS:          0
cpu0_DTLB TRANSLATION  ACCESS:          0  HIT:          0  MISS:          0  iACCESS:          0  iHIT:          0  iMISS:          0  dACCESS:          0  dHIT:          0  dMISS:          0  itACCESS:          0  itHIT:          0  itMISS:          0  dtACCESS:          0  dtHIT:          0  dtMISS:          0
cpu0_DTLB PREFETCH  REQUESTED:          0  ISSUED:          0  CROSSED:          0  USEFUL:          0  USELESS:          0
cpu0_DTLB AVERAGE iMISS LATENCY: 0 cycles
cpu0_DTLB AVERAGE dMISS LATENCY: 27.3419 cycles
cpu0_DTLB AVERAGE itMISS LATENCY: 0 cycles
cpu0_DTLB AVERAGE dtMISS LATENCY: 0 cycles
cpu0_DTLB PAGE CROSSINGS (TLB HIT):         0 
cpu0_DTLB PAGE CROSSINGS (TLB MISS):         0 
cpu0_DTLB AVERAGE MISS LATENCY: 27.3419 cycles
cpu0_STLB TOTAL       ACCESS:    2608779  HIT:    2244155  MISS:     364624  iACCESS:     460918  iHIT:     410737  iMISS:      50181  dACCESS:    2147861  dHIT:    1833418  dMISS:     314443  itACCESS:          0  itHIT:          0  itMISS:          0  dtACCESS:          0  dtHIT:          0  dtMISS:          0
cpu0_STLB LOAD         ACCESS:    2608779  HIT:    2244155  MISS:     364624  iACCESS:     460918  iHIT:     410737  iMISS:      50181  dACCESS:    2147861  dHIT:    1833418  dMISS:     314443  itACCESS:          0  itHIT:          0  itMISS:          0  dtACCESS:          0  dtHIT:          0  dtMISS:          0
cpu0_STLB RFO          ACCESS:          0  HIT:          0  MISS:          0  iACCESS:          0  iHIT:          0  iMISS:          0  dACCESS:          0  dHIT:          0  dMISS:          0  itACCESS:          0  itHIT:          0  itMISS:          0  dtACCESS:          0  dtHIT:          0  dtMISS:          0
cpu0_STLB PREFETCH     ACCESS:          0  HIT:          0  MISS:          0  iACCESS:          0  iHIT:          0  iMISS:          0  dACCESS:          0  dHIT:          0  dMISS:          0  itACCESS:          0  itHIT:          0  itMISS:          0  dtACCESS:          0  dtHIT:          0  dtMISS:          0
cpu0_STLB WRITE        ACCESS:          0  HIT:          0  MISS:          0  iACCESS:          0  iHIT:          0  iMISS:          0  dACCESS:          0  dHIT:          0  dMISS:          0  itACCESS:          0  itHIT:          0  itMISS:          0  dtACCESS:          0  dtHIT:          0  dtMISS:          0
cpu0_STLB TRANSLATION  ACCESS:          0  HIT:          0  MISS:          0  iACCESS:          0  iHIT:          0  iMISS:          0  dACCESS:          0  dHIT:          0  dMISS:          0  itACCESS:          0  itHIT:          0  itMISS:          0  dtACCESS:          0  dtHIT:          0  dtMISS:          0
cpu0_STLB PREFETCH  REQUESTED:          0  ISSUED:          0  CROSSED:          0  USEFUL:          0  USELESS:          0
cpu0_STLB AVERAGE iMISS LATENCY: 27.1708 cycles
cpu0_STLB AVERAGE dMISS LATENCY: 230.185 cycles
cpu0_STLB AVERAGE itMISS LATENCY: 0 cycles
cpu0_STLB AVERAGE dtMISS LATENCY: 0 cycles
cpu0_STLB PAGE CROSSINGS (TLB HIT):         0 
cpu0_STLB PAGE CROSSINGS (TLB MISS):         0 
cpu0_STLB AVERAGE MISS LATENCY: 257.356 cycles
cpu0_L1D TOTAL       ACCESS:   44357617  HIT:   39051853  MISS:    5305764  iACCESS:          0  iHIT:          0  iMISS:          0  dACCESS:   43792477  dHIT:   39023194  dMISS:    4769283  itACCESS:      60622  itHIT:       4599  itMISS:      56023  dtACCESS:     504518  dtHIT:      24060  dtMISS:     480458
cpu0_L1D LOAD         ACCESS:   19968308  HIT:   17840058  MISS:    2128250  iACCESS:          0  iHIT:          0  iMISS:          0  dACCESS:   19968308  dHIT:   17840058  dMISS:    2128250  itACCESS:          0  itHIT:          0  itMISS:          0  dtACCESS:          0  dtHIT:          0  dtMISS:          0
cpu0_L1D RFO          ACCESS:          0  HIT:          0  MISS:          0  iACCESS:          0  iHIT:          0  iMISS:          0  dACCESS:          0  dHIT:          0  dMISS:          0  itACCESS:          0  itHIT:          0  itMISS:          0  dtACCESS:          0  dtHIT:          0  dtMISS:          0
cpu0_L1D PREFETCH     ACCESS:   13689199  HIT:   11605740  MISS:    2083459  iACCESS:          0  iHIT:          0  iMISS:          0  dACCESS:   13689199  dHIT:   11605740  dMISS:    2083459  itACCESS:          0  itHIT:          0  itMISS:          0  dtACCESS:          0  dtHIT:          0  dtMISS:          0
cpu0_L1D WRITE        ACCESS:   10134970  HIT:    9577396  MISS:     557574  iACCESS:          0  iHIT:          0  iMISS:          0  dACCESS:   10134970  dHIT:    9577396  dMISS:     557574  itACCESS:          0  itHIT:          0  itMISS:          0  dtACCESS:          0  dtHIT:          0  dtMISS:          0
cpu0_L1D TRANSLATION  ACCESS:     565140  HIT:      28659  MISS:     536481  iACCESS:          0  iHIT:          0  iMISS:          0  dACCESS:          0  dHIT:          0  dMISS:          0  itACCESS:      60622  itHIT:       4599  itMISS:      56023  dtACCESS:     504518  dtHIT:      24060  dtMISS:     480458
cpu0_L1D PREFETCH  REQUESTED:   19968308  ISSUED:   18331047  CROSSED:          0  USEFUL:     357596  USELESS:     935637
cpu0_L1D AVERAGE iMISS LATENCY: 0 cycles
cpu0_L1D AVERAGE dMISS LATENCY: 51.4523 cycles
cpu0_L1D AVERAGE itMISS LATENCY: 1.76985 cycles
cpu0_L1D AVERAGE dtMISS LATENCY: 14.6904 cycles
cpu0_L1D PAGE CROSSINGS (TLB HIT):         0 
cpu0_L1D PAGE CROSSINGS (TLB MISS):         0 
cpu0_L1D AVERAGE MISS LATENCY: 67.9124 cycles
cpu0_L2C TOTAL       ACCESS:    8585500  HIT:    4189156  MISS:    4396344  iACCESS:    3753057  iHIT:    2284987  iMISS:    1468070  dACCESS:    4324869  dHIT:    1838297  dMISS:    2486572  itACCESS:      55195  itHIT:       7532  itMISS:      47663  dtACCESS:     452379  dtHIT:      58340  dtMISS:     394039
cpu0_L2C LOAD         ACCESS:    2053277  HIT:    1016731  MISS:    1036546  iACCESS:     841277  iHIT:     536457  iMISS:     304820  dACCESS:    1212000  dHIT:     480274  dMISS:     731726  itACCESS:          0  itHIT:          0  itMISS:          0  dtACCESS:          0  dtHIT:          0  dtMISS:          0
cpu0_L2C RFO          ACCESS:     210494  HIT:      83095  MISS:     127399  iACCESS:          0  iHIT:          0  iMISS:          0  dACCESS:     210494  dHIT:      83095  dMISS:     127399  itACCESS:          0  itHIT:          0  itMISS:          0  dtACCESS:          0  dtHIT:          0  dtMISS:          0
cpu0_L2C PREFETCH     ACCESS:    5466358  HIT:    2679538  MISS:    2786820  iACCESS:    2911780  iHIT:    1748530  iMISS:    1163250  dACCESS:    2554578  dHIT:     931008  dMISS:    1623570  itACCESS:          0  itHIT:          0  itMISS:          0  dtACCESS:          0  dtHIT:          0  dtMISS:          0
cpu0_L2C WRITE        ACCESS:     347797  HIT:     343920  MISS:       3877  iACCESS:          0  iHIT:          0  iMISS:          0  dACCESS:     347797  dHIT:     343920  dMISS:       3877  itACCESS:          0  itHIT:          0  itMISS:          0  dtACCESS:          0  dtHIT:          0  dtMISS:          0
cpu0_L2C TRANSLATION  ACCESS:     507574  HIT:      65872  MISS:     441702  iACCESS:          0  iHIT:          0  iMISS:          0  dACCESS:          0  dHIT:          0  dMISS:          0  itACCESS:      55195  itHIT:       7532  itMISS:      47663  dtACCESS:     452379  dtHIT:      58340  dtMISS:     394039
cpu0_L2C PREFETCH  REQUESTED:    1508405  ISSUED:    1508400  CROSSED:          0  USEFUL:     357683  USELESS:     325240
cpu0_L2C AVERAGE iMISS LATENCY: 39.2955 cycles
cpu0_L2C AVERAGE dMISS LATENCY: 77.359 cycles
cpu0_L2C AVERAGE itMISS LATENCY: 2.01176 cycles
cpu0_L2C AVERAGE dtMISS LATENCY: 16.7072 cycles
cpu0_L2C PAGE CROSSINGS (TLB HIT):         0 
cpu0_L2C PAGE CROSSINGS (TLB MISS):         0 
cpu0_L2C AVERAGE MISS LATENCY: 135.374 cycles
LLC TOTAL       ACCESS:    4394523  HIT:    1413411  MISS:    2981112  iACCESS:    1375800  iHIT:     459251  iMISS:     916549  dACCESS:    2577021  dHIT:     897897  dMISS:    1679124  itACCESS:      47663  itHIT:       3340  itMISS:      44323  dtACCESS:     394039  dtHIT:      52923  dtMISS:     341116
LLC LOAD         ACCESS:    1031194  HIT:     352141  MISS:     679053  iACCESS:     303571  iHIT:     110211  iMISS:     193360  dACCESS:     727623  dHIT:     241930  dMISS:     485693  itACCESS:          0  itHIT:          0  itMISS:          0  dtACCESS:          0  dtHIT:          0  dtMISS:          0
LLC RFO          ACCESS:     127395  HIT:      40433  MISS:      86962  iACCESS:          0  iHIT:          0  iMISS:          0  dACCESS:     127395  dHIT:      40433  dMISS:      86962  itACCESS:          0  itHIT:          0  itMISS:          0  dtACCESS:          0  dtHIT:          0  dtMISS:          0
LLC PREFETCH     ACCESS:    2579215  HIT:     759973  MISS:    1819242  iACCESS:    1072229  iHIT:     349040  iMISS:     723189  dACCESS:    1506986  dHIT:     410933  dMISS:    1096053  itACCESS:          0  itHIT:          0  itMISS:          0  dtACCESS:          0  dtHIT:          0  dtMISS:          0
LLC WRITE        ACCESS:     215017  HIT:     204601  MISS:      10416  iACCESS:          0  iHIT:          0  iMISS:          0  dACCESS:     215017  dHIT:     204601  dMISS:      10416  itACCESS:          0  itHIT:          0  itMISS:          0  dtACCESS:          0  dtHIT:          0  dtMISS:          0
LLC TRANSLATION  ACCESS:     441702  HIT:      56263  MISS:     385439  iACCESS:          0  iHIT:          0  iMISS:          0  dACCESS:          0  dHIT:          0  dMISS:          0  itACCESS:      47663  itHIT:       3340  itMISS:      44323  dtACCESS:     394039  dtHIT:      52923  dtMISS:     341116
LLC PREFETCH  REQUESTED:          0  ISSUED:          0  CROSSED:          0  USEFUL:          0  USELESS:          0
LLC AVERAGE iMISS LATENCY: 48.868 cycles
LLC AVERAGE dMISS LATENCY: 99.1327 cycles
LLC AVERAGE itMISS LATENCY: 2.64969 cycles
LLC AVERAGE dtMISS LATENCY: 22.0274 cycles
LLC PAGE CROSSINGS (TLB HIT):         0 
LLC PAGE CROSSINGS (TLB MISS):         0 
LLC AVERAGE MISS LATENCY: 172.678 cycles

PageTableWalker TOTAL       ACCESS:     180936  
PageTableWalker AVERAGE LATENCY: 6.89964 cycles
PageTableWalker TOTAL LATENCY: 1248392 cycles

DRAM Statistics
Channel 0
 RQ ROW_BUFFER_HIT:     633938
  ROW_BUFFER_MISS:    2326816
 AVG DBUS CONGESTED CYCLE:    3.64931
 WQ ROW_BUFFER_HIT:      65452
  ROW_BUFFER_MISS:      55277  FULL:          0

