last_page:0x200000000000000
VMEM_RES_CAP:0x100000
PAGE_SIZE:4096
LOG2_PAGE_SIZE:12
LOG2_PAGE_TABLE_SIZE:9
page_table_levels:5
WARNING: physical memory size is smaller than virtual memory size
FDiP enabled with aggresivity 16

*** ChampSim Multicore Out-of-Order Simulator ***

Warmup Instructions: 50000000
Simulation Instructions: 100000000
Number of CPUs: 1
Small page size: 4096
Large page size: 2097152

CPU 0 Bimodal branch predictor
Basic BTB sets: 1024 ways: 8 indirect buffer size: 4096 RAS size: 64
Instruction page size distrubution: 0
Loading instruction page size distribution from /home/bsc/bsc018186/scratch/itp_asplos25_AE/dump/smt_srv12_ap_srv180_ap_1024i.pdst
Data page size distrubution: 0
Loading data page size distribution from /home/bsc/bsc018186/scratch/itp_asplos25_AE/dump/smt_srv12_ap_srv180_ap_1024i.pdst
cpu0_L2C IP-based stride prefetcher
cpu0_L2C is using PTP replacement policy:
	TLB_STRESS_THRESHOLD:0
	PTE_EVICTION_RATIO:0
cpu0_L1D next line prefetcher
cpu0_L1I next line prefetcher
Off-chip DRAM Size: 4 GiB Channels: 1 Width: 64-bit Data Rate: 3200 MT/s
Heartbeat CPU 0 instructions: 10000001 cycles: 2500575 heartbeat IPC: 3.99909 cumulative IPC: 3.99909 (Simulation time: 0 hr 0 min 39 sec) 
Heartbeat CPU 0 instructions: 20000003 cycles: 5000753 heartbeat IPC: 3.99972 cumulative IPC: 3.9994 (Simulation time: 0 hr 1 min 19 sec) 
Heartbeat CPU 0 instructions: 30000001 cycles: 7501698 heartbeat IPC: 3.99849 cumulative IPC: 3.9991 (Simulation time: 0 hr 2 min 1 sec) 
Heartbeat CPU 0 instructions: 40000001 cycles: 10002048 heartbeat IPC: 3.99945 cumulative IPC: 3.99919 (Simulation time: 0 hr 2 min 44 sec) 
Heartbeat CPU 0 instructions: 50000001 cycles: 12502199 heartbeat IPC: 3.99976 cumulative IPC: 3.9993 (Simulation time: 0 hr 3 min 27 sec) 
Warmup finished CPU 0 instructions: 50000001 cycles: 12502200 cumulative IPC: 3.9993 (Simulation time: 0 hr 3 min 27 sec) 

Warmup complete CPU 0 instructions: 50000001 cycles: 12502200 (Simulation time: 0 hr 3 min 27 sec) 

Heartbeat CPU 0 instructions: 60000001 cycles: 42801959 heartbeat IPC: 0.330036 cumulative IPC: 0.330036 (Simulation time: 0 hr 4 min 55 sec) 
Heartbeat CPU 0 instructions: 70000003 cycles: 71879641 heartbeat IPC: 0.343907 cumulative IPC: 0.336829 (Simulation time: 0 hr 6 min 22 sec) 
Heartbeat CPU 0 instructions: 80000001 cycles: 102840001 heartbeat IPC: 0.322994 cumulative IPC: 0.332087 (Simulation time: 0 hr 7 min 52 sec) 
Heartbeat CPU 0 instructions: 90000000 cycles: 128522017 heartbeat IPC: 0.389378 cumulative IPC: 0.344769 (Simulation time: 0 hr 9 min 13 sec) 
Heartbeat CPU 0 instructions: 100000000 cycles: 157662120 heartbeat IPC: 0.34317 cumulative IPC: 0.344448 (Simulation time: 0 hr 10 min 40 sec) 
Heartbeat CPU 0 instructions: 110000000 cycles: 187343686 heartbeat IPC: 0.33691 cumulative IPC: 0.343168 (Simulation time: 0 hr 12 min 9 sec) 
Heartbeat CPU 0 instructions: 120000000 cycles: 216365725 heartbeat IPC: 0.344566 cumulative IPC: 0.343367 (Simulation time: 0 hr 13 min 36 sec) 
Heartbeat CPU 0 instructions: 130000000 cycles: 244979756 heartbeat IPC: 0.349479 cumulative IPC: 0.34412 (Simulation time: 0 hr 15 min 3 sec) 
Heartbeat CPU 0 instructions: 140000000 cycles: 275239527 heartbeat IPC: 0.330472 cumulative IPC: 0.342548 (Simulation time: 0 hr 16 min 34 sec) 
Heartbeat CPU 0 instructions: 150000002 cycles: 304376332 heartbeat IPC: 0.343209 cumulative IPC: 0.342614 (Simulation time: 0 hr 18 min 5 sec) 
Simulation finished CPU 0 instructions: 100000001 cycles: 291874133 cumulative IPC: 0.342614 (Simulation time: 0 hr 18 min 5 sec) 

Simulation complete CPU 0 instructions: 100000001 cycles: 291874133 (Simulation time: 0 hr 18 min 5 sec) 


ChampSim completed all CPUs

Saving instructions large page distribution to /home/bsc/bsc018186/scratch/itp_asplos25_AE/dump/smt_srv12_ap_srv180_ap_1024i.pdst...
Saving data large page distribution to /home/bsc/bsc018186/scratch/itp_asplos25_AE/dump/smt_srv12_ap_srv180_ap_1024i.pdst...
=== Simulation ===
CPU 0 runs /gpfs/projects/bsc18/MN4/bsc18/romol/ChampSim/traces/qualcomm_srv/smt_srv12_ap_srv180_ap_1024i.champsimtrace.xz

Region of Interest Statistics

CPU 0 cumulative IPC: 0.342614 instructions: 100000001 cycles: 291874133
CPU 0 Branch Prediction Accuracy: 75.5619% MPKI: 44.1516 Average ROB Occupancy at Mispredict: 11.1897
Branch type MPKI
BRANCH_DIRECT_JUMP: 1.35207
BRANCH_INDIRECT: 22.6833
BRANCH_CONDITIONAL: 13.0284
BRANCH_DIRECT_CALL: 2.59576
BRANCH_INDIRECT_CALL: 1.03949
BRANCH_RETURN: 3.45256

Instructions large pages: 0
Instructions small pages: 14796
Large page distribution for instructions: 0%

Data large pages: 0
Data small pages: 13082
Large page distribution for data: 0%

cpu0_L1I TOTAL       ACCESS:   38971682  HIT:   30332542  MISS:    8639140  iACCESS:   38971682  iHIT:   30332542  iMISS:    8639140  dACCESS:          0  dHIT:          0  dMISS:          0  itACCESS:          0  itHIT:          0  itMISS:          0  dtACCESS:          0  dtHIT:          0  dtMISS:          0
cpu0_L1I LOAD         ACCESS:   11642264  HIT:    9289048  MISS:    2353216  iACCESS:   11642264  iHIT:    9289048  iMISS:    2353216  dACCESS:          0  dHIT:          0  dMISS:          0  itACCESS:          0  itHIT:          0  itMISS:          0  dtACCESS:          0  dtHIT:          0  dtMISS:          0
cpu0_L1I RFO          ACCESS:          0  HIT:          0  MISS:          0  iACCESS:          0  iHIT:          0  iMISS:          0  dACCESS:          0  dHIT:          0  dMISS:          0  itACCESS:          0  itHIT:          0  itMISS:          0  dtACCESS:          0  dtHIT:          0  dtMISS:          0
cpu0_L1I PREFETCH     ACCESS:   27329418  HIT:   21043494  MISS:    6285924  iACCESS:   27329418  iHIT:   21043494  iMISS:    6285924  dACCESS:          0  dHIT:          0  dMISS:          0  itACCESS:          0  itHIT:          0  itMISS:          0  dtACCESS:          0  dtHIT:          0  dtMISS:          0
cpu0_L1I WRITE        ACCESS:          0  HIT:          0  MISS:          0  iACCESS:          0  iHIT:          0  iMISS:          0  dACCESS:          0  dHIT:          0  dMISS:          0  itACCESS:          0  itHIT:          0  itMISS:          0  dtACCESS:          0  dtHIT:          0  dtMISS:          0
cpu0_L1I TRANSLATION  ACCESS:          0  HIT:          0  MISS:          0  iACCESS:          0  iHIT:          0  iMISS:          0  dACCESS:          0  dHIT:          0  dMISS:          0  itACCESS:          0  itHIT:          0  itMISS:          0  dtACCESS:          0  dtHIT:          0  dtMISS:          0
cpu0_L1I PREFETCH  REQUESTED:   30137380  ISSUED:   30137370  CROSSED:          0  USEFUL:    2191517  USELESS:     755886
cpu0_L1I AVERAGE iMISS LATENCY: 23.6489 cycles
cpu0_L1I AVERAGE dMISS LATENCY: 0 cycles
cpu0_L1I AVERAGE itMISS LATENCY: 0 cycles
cpu0_L1I AVERAGE dtMISS LATENCY: 0 cycles
cpu0_L1I PAGE CROSSINGS (TLB HIT):         0 
cpu0_L1I PAGE CROSSINGS (TLB MISS):         0 
cpu0_L1I AVERAGE MISS LATENCY: 23.6489 cycles
cpu0_ITLB TOTAL       ACCESS:   32970626  HIT:   30774142  MISS:    2196484  iACCESS:   32970626  iHIT:   30774142  iMISS:    2196484  dACCESS:          0  dHIT:          0  dMISS:          0  itACCESS:          0  itHIT:          0  itMISS:          0  dtACCESS:          0  dtHIT:          0  dtMISS:          0
cpu0_ITLB LOAD         ACCESS:   32970626  HIT:   30774142  MISS:    2196484  iACCESS:   32970626  iHIT:   30774142  iMISS:    2196484  dACCESS:          0  dHIT:          0  dMISS:          0  itACCESS:          0  itHIT:          0  itMISS:          0  dtACCESS:          0  dtHIT:          0  dtMISS:          0
cpu0_ITLB RFO          ACCESS:          0  HIT:          0  MISS:          0  iACCESS:          0  iHIT:          0  iMISS:          0  dACCESS:          0  dHIT:          0  dMISS:          0  itACCESS:          0  itHIT:          0  itMISS:          0  dtACCESS:          0  dtHIT:          0  dtMISS:          0
cpu0_ITLB PREFETCH     ACCESS:          0  HIT:          0  MISS:          0  iACCESS:          0  iHIT:          0  iMISS:          0  dACCESS:          0  dHIT:          0  dMISS:          0  itACCESS:          0  itHIT:          0  itMISS:          0  dtACCESS:          0  dtHIT:          0  dtMISS:          0
cpu0_ITLB WRITE        ACCESS:          0  HIT:          0  MISS:          0  iACCESS:          0  iHIT:          0  iMISS:          0  dACCESS:          0  dHIT:          0  dMISS:          0  itACCESS:          0  itHIT:          0  itMISS:          0  dtACCESS:          0  dtHIT:          0  dtMISS:          0
cpu0_ITLB TRANSLATION  ACCESS:          0  HIT:          0  MISS:          0  iACCESS:          0  iHIT:          0  iMISS:          0  dACCESS:          0  dHIT:          0  dMISS:          0  itACCESS:          0  itHIT:          0  itMISS:          0  dtACCESS:          0  dtHIT:          0  dtMISS:          0
cpu0_ITLB PREFETCH  REQUESTED:          0  ISSUED:          0  CROSSED:          0  USEFUL:     386490  USELESS:      77984
cpu0_ITLB AVERAGE iMISS LATENCY: 10.173 cycles
cpu0_ITLB AVERAGE dMISS LATENCY: 0 cycles
cpu0_ITLB AVERAGE itMISS LATENCY: 0 cycles
cpu0_ITLB AVERAGE dtMISS LATENCY: 0 cycles
cpu0_ITLB PAGE CROSSINGS (TLB HIT):         0 
cpu0_ITLB PAGE CROSSINGS (TLB MISS):         0 
cpu0_ITLB AVERAGE MISS LATENCY: 10.173 cycles
cpu0_DTLB TOTAL       ACCESS:   28860246  HIT:   25283620  MISS:    3576626  iACCESS:          0  iHIT:          0  iMISS:          0  dACCESS:   28860246  dHIT:   25283620  dMISS:    3576626  itACCESS:          0  itHIT:          0  itMISS:          0  dtACCESS:          0  dtHIT:          0  dtMISS:          0
cpu0_DTLB LOAD         ACCESS:   28860246  HIT:   25283620  MISS:    3576626  iACCESS:          0  iHIT:          0  iMISS:          0  dACCESS:   28860246  dHIT:   25283620  dMISS:    3576626  itACCESS:          0  itHIT:          0  itMISS:          0  dtACCESS:          0  dtHIT:          0  dtMISS:          0
cpu0_DTLB RFO          ACCESS:          0  HIT:          0  MISS:          0  iACCESS:          0  iHIT:          0  iMISS:          0  dACCESS:          0  dHIT:          0  dMISS:          0  itACCESS:          0  itHIT:          0  itMISS:          0  dtACCESS:          0  dtHIT:          0  dtMISS:          0
cpu0_DTLB PREFETCH     ACCESS:          0  HIT:          0  MISS:          0  iACCESS:          0  iHIT:          0  iMISS:          0  dACCESS:          0  dHIT:          0  dMISS:          0  itACCESS:          0  itHIT:          0  itMISS:          0  dtACCESS:          0  dtHIT:          0  dtMISS:          0
cpu0_DTLB WRITE        ACCESS:          0  HIT:          0  MISS:          0  iACCESS:          0  iHIT:          0  iMISS:          0  dACCESS:          0  dHIT:          0  dMISS:          0  itACCESS:          0  itHIT:          0  itMISS:          0  dtACCESS:          0  dtHIT:          0  dtMISS:          0
cpu0_DTLB TRANSLATION  ACCESS:          0  HIT:          0  MISS:          0  iACCESS:          0  iHIT:          0  iMISS:          0  dACCESS:          0  dHIT:          0  dMISS:          0  itACCESS:          0  itHIT:          0  itMISS:          0  dtACCESS:          0  dtHIT:          0  dtMISS:          0
cpu0_DTLB PREFETCH  REQUESTED:          0  ISSUED:          0  CROSSED:          0  USEFUL:          0  USELESS:          0
cpu0_DTLB AVERAGE iMISS LATENCY: 0 cycles
cpu0_DTLB AVERAGE dMISS LATENCY: 24.3035 cycles
cpu0_DTLB AVERAGE itMISS LATENCY: 0 cycles
cpu0_DTLB AVERAGE dtMISS LATENCY: 0 cycles
cpu0_DTLB PAGE CROSSINGS (TLB HIT):         0 
cpu0_DTLB PAGE CROSSINGS (TLB MISS):         0 
cpu0_DTLB AVERAGE MISS LATENCY: 24.3035 cycles
cpu0_STLB TOTAL       ACCESS:    2554319  HIT:    2195400  MISS:     358919  iACCESS:     464478  iHIT:     354558  iMISS:     109920  dACCESS:    2089841  dHIT:    1840842  dMISS:     248999  itACCESS:          0  itHIT:          0  itMISS:          0  dtACCESS:          0  dtHIT:          0  dtMISS:          0
cpu0_STLB LOAD         ACCESS:    2554319  HIT:    2195400  MISS:     358919  iACCESS:     464478  iHIT:     354558  iMISS:     109920  dACCESS:    2089841  dHIT:    1840842  dMISS:     248999  itACCESS:          0  itHIT:          0  itMISS:          0  dtACCESS:          0  dtHIT:          0  dtMISS:          0
cpu0_STLB RFO          ACCESS:          0  HIT:          0  MISS:          0  iACCESS:          0  iHIT:          0  iMISS:          0  dACCESS:          0  dHIT:          0  dMISS:          0  itACCESS:          0  itHIT:          0  itMISS:          0  dtACCESS:          0  dtHIT:          0  dtMISS:          0
cpu0_STLB PREFETCH     ACCESS:          0  HIT:          0  MISS:          0  iACCESS:          0  iHIT:          0  iMISS:          0  dACCESS:          0  dHIT:          0  dMISS:          0  itACCESS:          0  itHIT:          0  itMISS:          0  dtACCESS:          0  dtHIT:          0  dtMISS:          0
cpu0_STLB WRITE        ACCESS:          0  HIT:          0  MISS:          0  iACCESS:          0  iHIT:          0  iMISS:          0  dACCESS:          0  dHIT:          0  dMISS:          0  itACCESS:          0  itHIT:          0  itMISS:          0  dtACCESS:          0  dtHIT:          0  dtMISS:          0
cpu0_STLB TRANSLATION  ACCESS:          0  HIT:          0  MISS:          0  iACCESS:          0  iHIT:          0  iMISS:          0  dACCESS:          0  dHIT:          0  dMISS:          0  itACCESS:          0  itHIT:          0  itMISS:          0  dtACCESS:          0  dtHIT:          0  dtMISS:          0
cpu0_STLB PREFETCH  REQUESTED:          0  ISSUED:          0  CROSSED:          0  USEFUL:          0  USELESS:          0
cpu0_STLB AVERAGE iMISS LATENCY: 51.9142 cycles
cpu0_STLB AVERAGE dMISS LATENCY: 195.343 cycles
cpu0_STLB AVERAGE itMISS LATENCY: 0 cycles
cpu0_STLB AVERAGE dtMISS LATENCY: 0 cycles
cpu0_STLB PAGE CROSSINGS (TLB HIT):         0 
cpu0_STLB PAGE CROSSINGS (TLB MISS):         0 
cpu0_STLB AVERAGE MISS LATENCY: 247.258 cycles
cpu0_L1D TOTAL       ACCESS:   44325306  HIT:   39169767  MISS:    5155539  iACCESS:          0  iHIT:          0  iMISS:          0  dACCESS:   43793858  dHIT:   39135631  dMISS:    4658227  itACCESS:     124179  itHIT:      14988  itMISS:     109191  dtACCESS:     407269  dtHIT:      19148  dtMISS:     388121
cpu0_L1D LOAD         ACCESS:   20019113  HIT:   17951825  MISS:    2067288  iACCESS:          0  iHIT:          0  iMISS:          0  dACCESS:   20019113  dHIT:   17951825  dMISS:    2067288  itACCESS:          0  itHIT:          0  itMISS:          0  dtACCESS:          0  dtHIT:          0  dtMISS:          0
cpu0_L1D RFO          ACCESS:          0  HIT:          0  MISS:          0  iACCESS:          0  iHIT:          0  iMISS:          0  dACCESS:          0  dHIT:          0  dMISS:          0  itACCESS:          0  itHIT:          0  itMISS:          0  dtACCESS:          0  dtHIT:          0  dtMISS:          0
cpu0_L1D PREFETCH     ACCESS:   13616329  HIT:   11580228  MISS:    2036101  iACCESS:          0  iHIT:          0  iMISS:          0  dACCESS:   13616329  dHIT:   11580228  dMISS:    2036101  itACCESS:          0  itHIT:          0  itMISS:          0  dtACCESS:          0  dtHIT:          0  dtMISS:          0
cpu0_L1D WRITE        ACCESS:   10158416  HIT:    9603578  MISS:     554838  iACCESS:          0  iHIT:          0  iMISS:          0  dACCESS:   10158416  dHIT:    9603578  dMISS:     554838  itACCESS:          0  itHIT:          0  itMISS:          0  dtACCESS:          0  dtHIT:          0  dtMISS:          0
cpu0_L1D TRANSLATION  ACCESS:     531448  HIT:      34136  MISS:     497312  iACCESS:          0  iHIT:          0  iMISS:          0  dACCESS:          0  dHIT:          0  dMISS:          0  itACCESS:     124179  itHIT:      14988  itMISS:     109191  dtACCESS:     407269  dtHIT:      19148  dtMISS:     388121
cpu0_L1D PREFETCH  REQUESTED:   20019113  ISSUED:   18362909  CROSSED:          0  USEFUL:     359635  USELESS:     925256
cpu0_L1D AVERAGE iMISS LATENCY: 0 cycles
cpu0_L1D AVERAGE dMISS LATENCY: 52.2381 cycles
cpu0_L1D AVERAGE itMISS LATENCY: 3.40063 cycles
cpu0_L1D AVERAGE dtMISS LATENCY: 12.5575 cycles
cpu0_L1D PAGE CROSSINGS (TLB HIT):         0 
cpu0_L1D PAGE CROSSINGS (TLB MISS):         0 
cpu0_L1D AVERAGE MISS LATENCY: 68.1962 cycles
cpu0_L2C TOTAL       ACCESS:    8507432  HIT:    4084219  MISS:    4423213  iACCESS:    3748060  iHIT:    2248914  iMISS:    1499146  dACCESS:    4291388  dHIT:    1774923  dMISS:    2516465  itACCESS:     108116  itHIT:      19026  itMISS:      89090  dtACCESS:     359868  dtHIT:      41356  dtMISS:     318512
cpu0_L2C LOAD         ACCESS:    2032081  HIT:     982467  MISS:    1049614  iACCESS:     839179  iHIT:     526273  iMISS:     312906  dACCESS:    1192902  dHIT:     456194  dMISS:     736708  itACCESS:          0  itHIT:          0  itMISS:          0  dtACCESS:          0  dtHIT:          0  dtMISS:          0
cpu0_L2C RFO          ACCESS:     208679  HIT:      79560  MISS:     129119  iACCESS:          0  iHIT:          0  iMISS:          0  dACCESS:     208679  dHIT:      79560  dMISS:     129119  itACCESS:          0  itHIT:          0  itMISS:          0  dtACCESS:          0  dtHIT:          0  dtMISS:          0
cpu0_L2C PREFETCH     ACCESS:    5457611  HIT:    2635235  MISS:    2822376  iACCESS:    2908881  iHIT:    1722641  iMISS:    1186240  dACCESS:    2548730  dHIT:     912594  dMISS:    1636136  itACCESS:          0  itHIT:          0  itMISS:          0  dtACCESS:          0  dtHIT:          0  dtMISS:          0
cpu0_L2C WRITE        ACCESS:     341077  HIT:     326575  MISS:      14502  iACCESS:          0  iHIT:          0  iMISS:          0  dACCESS:     341077  dHIT:     326575  dMISS:      14502  itACCESS:          0  itHIT:          0  itMISS:          0  dtACCESS:          0  dtHIT:          0  dtMISS:          0
cpu0_L2C TRANSLATION  ACCESS:     467984  HIT:      60382  MISS:     407602  iACCESS:          0  iHIT:          0  iMISS:          0  dACCESS:          0  dHIT:          0  dMISS:          0  itACCESS:     108116  itHIT:      19026  itMISS:      89090  dtACCESS:     359868  dtHIT:      41356  dtMISS:     318512
cpu0_L2C PREFETCH  REQUESTED:    1505431  ISSUED:    1505428  CROSSED:          0  USEFUL:     360657  USELESS:     332488
cpu0_L2C AVERAGE iMISS LATENCY: 38.9805 cycles
cpu0_L2C AVERAGE dMISS LATENCY: 76.0653 cycles
cpu0_L2C AVERAGE itMISS LATENCY: 3.72284 cycles
cpu0_L2C AVERAGE dtMISS LATENCY: 13.8277 cycles
cpu0_L2C PAGE CROSSINGS (TLB HIT):         0 
cpu0_L2C PAGE CROSSINGS (TLB MISS):         0 
cpu0_L2C AVERAGE MISS LATENCY: 132.597 cycles
LLC TOTAL       ACCESS:    4411397  HIT:    1455604  MISS:    2955793  iACCESS:    1407436  iHIT:     481971  iMISS:     925465  dACCESS:    2596359  dHIT:     932969  dMISS:    1663390  itACCESS:      89090  itHIT:       6947  itMISS:      82143  dtACCESS:     318512  dtHIT:      33717  dtMISS:     284795
LLC LOAD         ACCESS:    1045178  HIT:     374144  MISS:     671034  iACCESS:     311806  iHIT:     116840  iMISS:     194966  dACCESS:     733372  dHIT:     257304  dMISS:     476068  itACCESS:          0  itHIT:          0  itMISS:          0  dtACCESS:          0  dtHIT:          0  dtMISS:          0
LLC RFO          ACCESS:     129111  HIT:      42543  MISS:      86568  iACCESS:          0  iHIT:          0  iMISS:          0  dACCESS:     129111  dHIT:      42543  dMISS:      86568  itACCESS:          0  itHIT:          0  itMISS:          0  dtACCESS:          0  dtHIT:          0  dtMISS:          0
LLC PREFETCH     ACCESS:    2617854  HIT:     796675  MISS:    1821179  iACCESS:    1095630  iHIT:     365131  iMISS:     730499  dACCESS:    1522224  dHIT:     431544  dMISS:    1090680  itACCESS:          0  itHIT:          0  itMISS:          0  dtACCESS:          0  dtHIT:          0  dtMISS:          0
LLC WRITE        ACCESS:     211652  HIT:     201578  MISS:      10074  iACCESS:          0  iHIT:          0  iMISS:          0  dACCESS:     211652  dHIT:     201578  dMISS:      10074  itACCESS:          0  itHIT:          0  itMISS:          0  dtACCESS:          0  dtHIT:          0  dtMISS:          0
LLC TRANSLATION  ACCESS:     407602  HIT:      40664  MISS:     366938  iACCESS:          0  iHIT:          0  iMISS:          0  dACCESS:          0  dHIT:          0  dMISS:          0  itACCESS:      89090  itHIT:       6947  itMISS:      82143  dtACCESS:     318512  dtHIT:      33717  dtMISS:     284795
LLC PREFETCH  REQUESTED:          0  ISSUED:          0  CROSSED:          0  USEFUL:          0  USELESS:          0
LLC AVERAGE iMISS LATENCY: 48.9665 cycles
LLC AVERAGE dMISS LATENCY: 98.5599 cycles
LLC AVERAGE itMISS LATENCY: 4.97346 cycles
LLC AVERAGE dtMISS LATENCY: 18.5624 cycles
LLC PAGE CROSSINGS (TLB HIT):         0 
LLC PAGE CROSSINGS (TLB MISS):         0 
LLC AVERAGE MISS LATENCY: 171.063 cycles

PageTableWalker TOTAL       ACCESS:     173708  
PageTableWalker AVERAGE LATENCY: 6.40002 cycles
PageTableWalker TOTAL LATENCY: 1111733 cycles

DRAM Statistics
Channel 0
 RQ ROW_BUFFER_HIT:     643310
  ROW_BUFFER_MISS:    2293288
 AVG DBUS CONGESTED CYCLE:    3.64495
 WQ ROW_BUFFER_HIT:      63096
  ROW_BUFFER_MISS:      52832  FULL:          0

