last_page:0x200000000000000
VMEM_RES_CAP:0x100000
PAGE_SIZE:4096
LOG2_PAGE_SIZE:12
LOG2_PAGE_TABLE_SIZE:9
page_table_levels:5
WARNING: physical memory size is smaller than virtual memory size
FDiP enabled with aggresivity 16

*** ChampSim Multicore Out-of-Order Simulator ***

Warmup Instructions: 50000000
Simulation Instructions: 100000000
Number of CPUs: 1
Small page size: 4096
Large page size: 2097152

CPU 0 Bimodal branch predictor
Basic BTB sets: 1024 ways: 8 indirect buffer size: 4096 RAS size: 64
Instruction page size distrubution: 0
Loading instruction page size distribution from /home/bsc/bsc018186/scratch/itp_asplos25_AE/dump/smt_srv207_ap_srv495_ap_1024i.pdst
Data page size distrubution: 0
Loading data page size distribution from /home/bsc/bsc018186/scratch/itp_asplos25_AE/dump/smt_srv207_ap_srv495_ap_1024i.pdst
cpu0_L2C IP-based stride prefetcher
cpu0_L1D next line prefetcher
cpu0_L1I next line prefetcher
Off-chip DRAM Size: 4 GiB Channels: 1 Width: 64-bit Data Rate: 3200 MT/s
Heartbeat CPU 0 instructions: 10000000 cycles: 2500848 heartbeat IPC: 3.99865 cumulative IPC: 3.99865 (Simulation time: 0 hr 0 min 42 sec) 
Heartbeat CPU 0 instructions: 20000001 cycles: 5001362 heartbeat IPC: 3.99918 cumulative IPC: 3.99892 (Simulation time: 0 hr 1 min 31 sec) 
Heartbeat CPU 0 instructions: 30000000 cycles: 7501813 heartbeat IPC: 3.99928 cumulative IPC: 3.99904 (Simulation time: 0 hr 2 min 21 sec) 
Heartbeat CPU 0 instructions: 40000003 cycles: 10002270 heartbeat IPC: 3.99928 cumulative IPC: 3.9991 (Simulation time: 0 hr 3 min 11 sec) 
Heartbeat CPU 0 instructions: 50000000 cycles: 12502492 heartbeat IPC: 3.99965 cumulative IPC: 3.99921 (Simulation time: 0 hr 4 min 2 sec) 
Warmup finished CPU 0 instructions: 50000000 cycles: 12502493 cumulative IPC: 3.99921 (Simulation time: 0 hr 4 min 2 sec) 

Warmup complete CPU 0 instructions: 50000000 cycles: 12502493 (Simulation time: 0 hr 4 min 2 sec) 

Heartbeat CPU 0 instructions: 60000001 cycles: 41247921 heartbeat IPC: 0.347882 cumulative IPC: 0.347882 (Simulation time: 0 hr 5 min 45 sec) 
Heartbeat CPU 0 instructions: 70000004 cycles: 70350233 heartbeat IPC: 0.343616 cumulative IPC: 0.345736 (Simulation time: 0 hr 7 min 28 sec) 
Heartbeat CPU 0 instructions: 80000000 cycles: 100610683 heartbeat IPC: 0.330465 cumulative IPC: 0.340491 (Simulation time: 0 hr 9 min 7 sec) 
Heartbeat CPU 0 instructions: 90000000 cycles: 130342976 heartbeat IPC: 0.336335 cumulative IPC: 0.339442 (Simulation time: 0 hr 10 min 47 sec) 
Heartbeat CPU 0 instructions: 100000003 cycles: 158463671 heartbeat IPC: 0.355611 cumulative IPC: 0.342557 (Simulation time: 0 hr 12 min 27 sec) 
Heartbeat CPU 0 instructions: 110000000 cycles: 187795722 heartbeat IPC: 0.340924 cumulative IPC: 0.342284 (Simulation time: 0 hr 14 min 9 sec) 
Heartbeat CPU 0 instructions: 120000000 cycles: 216569641 heartbeat IPC: 0.347537 cumulative IPC: 0.343025 (Simulation time: 0 hr 15 min 50 sec) 
Heartbeat CPU 0 instructions: 130000003 cycles: 244762260 heartbeat IPC: 0.354703 cumulative IPC: 0.344442 (Simulation time: 0 hr 17 min 30 sec) 
Heartbeat CPU 0 instructions: 140000002 cycles: 273995410 heartbeat IPC: 0.342078 cumulative IPC: 0.344178 (Simulation time: 0 hr 19 min 14 sec) 
Heartbeat CPU 0 instructions: 150000000 cycles: 302431814 heartbeat IPC: 0.351662 cumulative IPC: 0.344912 (Simulation time: 0 hr 20 min 53 sec) 
Simulation finished CPU 0 instructions: 100000000 cycles: 289929322 cumulative IPC: 0.344912 (Simulation time: 0 hr 20 min 53 sec) 

Simulation complete CPU 0 instructions: 100000000 cycles: 289929322 (Simulation time: 0 hr 20 min 53 sec) 


ChampSim completed all CPUs

Saving instructions large page distribution to /home/bsc/bsc018186/scratch/itp_asplos25_AE/dump/smt_srv207_ap_srv495_ap_1024i.pdst...
Saving data large page distribution to /home/bsc/bsc018186/scratch/itp_asplos25_AE/dump/smt_srv207_ap_srv495_ap_1024i.pdst...
=== Simulation ===
CPU 0 runs /gpfs/projects/bsc18/MN4/bsc18/romol/ChampSim/traces/qualcomm_srv/smt_srv207_ap_srv495_ap_1024i.champsimtrace.xz

Region of Interest Statistics

CPU 0 cumulative IPC: 0.344912 instructions: 100000000 cycles: 289929322
CPU 0 Branch Prediction Accuracy: 74.477% MPKI: 45.9621 Average ROB Occupancy at Mispredict: 10.4581
Branch type MPKI
BRANCH_DIRECT_JUMP: 1.44248
BRANCH_INDIRECT: 24.0666
BRANCH_CONDITIONAL: 13.0858
BRANCH_DIRECT_CALL: 2.7496
BRANCH_INDIRECT_CALL: 1.0247
BRANCH_RETURN: 3.59304

Instructions large pages: 0
Instructions small pages: 11428
Large page distribution for instructions: 0%

Data large pages: 0
Data small pages: 9945
Large page distribution for data: 0%

cpu0_L1I TOTAL       ACCESS:   39454724  HIT:   30187874  MISS:    9266850  iACCESS:   39454724  iHIT:   30187874  iMISS:    9266850  dACCESS:          0  dHIT:          0  dMISS:          0  itACCESS:          0  itHIT:          0  itMISS:          0  dtACCESS:          0  dtHIT:          0  dtMISS:          0
cpu0_L1I LOAD         ACCESS:   11648923  HIT:    9134407  MISS:    2514516  iACCESS:   11648923  iHIT:    9134407  iMISS:    2514516  dACCESS:          0  dHIT:          0  dMISS:          0  itACCESS:          0  itHIT:          0  itMISS:          0  dtACCESS:          0  dtHIT:          0  dtMISS:          0
cpu0_L1I RFO          ACCESS:          0  HIT:          0  MISS:          0  iACCESS:          0  iHIT:          0  iMISS:          0  dACCESS:          0  dHIT:          0  dMISS:          0  itACCESS:          0  itHIT:          0  itMISS:          0  dtACCESS:          0  dtHIT:          0  dtMISS:          0
cpu0_L1I PREFETCH     ACCESS:   27805801  HIT:   21053467  MISS:    6752334  iACCESS:   27805801  iHIT:   21053467  iMISS:    6752334  dACCESS:          0  dHIT:          0  dMISS:          0  itACCESS:          0  itHIT:          0  itMISS:          0  dtACCESS:          0  dtHIT:          0  dtMISS:          0
cpu0_L1I WRITE        ACCESS:          0  HIT:          0  MISS:          0  iACCESS:          0  iHIT:          0  iMISS:          0  dACCESS:          0  dHIT:          0  dMISS:          0  itACCESS:          0  itHIT:          0  itMISS:          0  dtACCESS:          0  dtHIT:          0  dtMISS:          0
cpu0_L1I TRANSLATION  ACCESS:          0  HIT:          0  MISS:          0  iACCESS:          0  iHIT:          0  iMISS:          0  dACCESS:          0  dHIT:          0  dMISS:          0  itACCESS:          0  itHIT:          0  itMISS:          0  dtACCESS:          0  dtHIT:          0  dtMISS:          0
cpu0_L1I PREFETCH  REQUESTED:   30296661  ISSUED:   30295202  CROSSED:          0  USEFUL:    2220765  USELESS:     793285
cpu0_L1I AVERAGE iMISS LATENCY: 25.1167 cycles
cpu0_L1I AVERAGE dMISS LATENCY: 0 cycles
cpu0_L1I AVERAGE itMISS LATENCY: 0 cycles
cpu0_L1I AVERAGE dtMISS LATENCY: 0 cycles
cpu0_L1I PAGE CROSSINGS (TLB HIT):         0 
cpu0_L1I PAGE CROSSINGS (TLB MISS):         0 
cpu0_L1I AVERAGE MISS LATENCY: 25.1167 cycles
cpu0_ITLB TOTAL       ACCESS:   33303344  HIT:   31033060  MISS:    2270284  iACCESS:   33303344  iHIT:   31033060  iMISS:    2270284  dACCESS:          0  dHIT:          0  dMISS:          0  itACCESS:          0  itHIT:          0  itMISS:          0  dtACCESS:          0  dtHIT:          0  dtMISS:          0
cpu0_ITLB LOAD         ACCESS:   33303344  HIT:   31033060  MISS:    2270284  iACCESS:   33303344  iHIT:   31033060  iMISS:    2270284  dACCESS:          0  dHIT:          0  dMISS:          0  itACCESS:          0  itHIT:          0  itMISS:          0  dtACCESS:          0  dtHIT:          0  dtMISS:          0
cpu0_ITLB RFO          ACCESS:          0  HIT:          0  MISS:          0  iACCESS:          0  iHIT:          0  iMISS:          0  dACCESS:          0  dHIT:          0  dMISS:          0  itACCESS:          0  itHIT:          0  itMISS:          0  dtACCESS:          0  dtHIT:          0  dtMISS:          0
cpu0_ITLB PREFETCH     ACCESS:          0  HIT:          0  MISS:          0  iACCESS:          0  iHIT:          0  iMISS:          0  dACCESS:          0  dHIT:          0  dMISS:          0  itACCESS:          0  itHIT:          0  itMISS:          0  dtACCESS:          0  dtHIT:          0  dtMISS:          0
cpu0_ITLB WRITE        ACCESS:          0  HIT:          0  MISS:          0  iACCESS:          0  iHIT:          0  iMISS:          0  dACCESS:          0  dHIT:          0  dMISS:          0  itACCESS:          0  itHIT:          0  itMISS:          0  dtACCESS:          0  dtHIT:          0  dtMISS:          0
cpu0_ITLB TRANSLATION  ACCESS:          0  HIT:          0  MISS:          0  iACCESS:          0  iHIT:          0  iMISS:          0  dACCESS:          0  dHIT:          0  dMISS:          0  itACCESS:          0  itHIT:          0  itMISS:          0  dtACCESS:          0  dtHIT:          0  dtMISS:          0
cpu0_ITLB PREFETCH  REQUESTED:          0  ISSUED:          0  CROSSED:          0  USEFUL:     401016  USELESS:      82337
cpu0_ITLB AVERAGE iMISS LATENCY: 8.35273 cycles
cpu0_ITLB AVERAGE dMISS LATENCY: 0 cycles
cpu0_ITLB AVERAGE itMISS LATENCY: 0 cycles
cpu0_ITLB AVERAGE dtMISS LATENCY: 0 cycles
cpu0_ITLB PAGE CROSSINGS (TLB HIT):         0 
cpu0_ITLB PAGE CROSSINGS (TLB MISS):         0 
cpu0_ITLB AVERAGE MISS LATENCY: 8.35273 cycles
cpu0_DTLB TOTAL       ACCESS:   29245474  HIT:   25691097  MISS:    3554377  iACCESS:          0  iHIT:          0  iMISS:          0  dACCESS:   29245474  dHIT:   25691097  dMISS:    3554377  itACCESS:          0  itHIT:          0  itMISS:          0  dtACCESS:          0  dtHIT:          0  dtMISS:          0
cpu0_DTLB LOAD         ACCESS:   29245474  HIT:   25691097  MISS:    3554377  iACCESS:          0  iHIT:          0  iMISS:          0  dACCESS:   29245474  dHIT:   25691097  dMISS:    3554377  itACCESS:          0  itHIT:          0  itMISS:          0  dtACCESS:          0  dtHIT:          0  dtMISS:          0
cpu0_DTLB RFO          ACCESS:          0  HIT:          0  MISS:          0  iACCESS:          0  iHIT:          0  iMISS:          0  dACCESS:          0  dHIT:          0  dMISS:          0  itACCESS:          0  itHIT:          0  itMISS:          0  dtACCESS:          0  dtHIT:          0  dtMISS:          0
cpu0_DTLB PREFETCH     ACCESS:          0  HIT:          0  MISS:          0  iACCESS:          0  iHIT:          0  iMISS:          0  dACCESS:          0  dHIT:          0  dMISS:          0  itACCESS:          0  itHIT:          0  itMISS:          0  dtACCESS:          0  dtHIT:          0  dtMISS:          0
cpu0_DTLB WRITE        ACCESS:          0  HIT:          0  MISS:          0  iACCESS:          0  iHIT:          0  iMISS:          0  dACCESS:          0  dHIT:          0  dMISS:          0  itACCESS:          0  itHIT:          0  itMISS:          0  dtACCESS:          0  dtHIT:          0  dtMISS:          0
cpu0_DTLB TRANSLATION  ACCESS:          0  HIT:          0  MISS:          0  iACCESS:          0  iHIT:          0  iMISS:          0  dACCESS:          0  dHIT:          0  dMISS:          0  itACCESS:          0  itHIT:          0  itMISS:          0  dtACCESS:          0  dtHIT:          0  dtMISS:          0
cpu0_DTLB PREFETCH  REQUESTED:          0  ISSUED:          0  CROSSED:          0  USEFUL:          0  USELESS:          0
cpu0_DTLB AVERAGE iMISS LATENCY: 0 cycles
cpu0_DTLB AVERAGE dMISS LATENCY: 18.1359 cycles
cpu0_DTLB AVERAGE itMISS LATENCY: 0 cycles
cpu0_DTLB AVERAGE dtMISS LATENCY: 0 cycles
cpu0_DTLB PAGE CROSSINGS (TLB HIT):         0 
cpu0_DTLB PAGE CROSSINGS (TLB MISS):         0 
cpu0_DTLB AVERAGE MISS LATENCY: 18.1359 cycles
cpu0_STLB TOTAL       ACCESS:    2583717  HIT:    2189440  MISS:     394277  iACCESS:     483358  iHIT:     362748  iMISS:     120610  dACCESS:    2100359  dHIT:    1826692  dMISS:     273667  itACCESS:          0  itHIT:          0  itMISS:          0  dtACCESS:          0  dtHIT:          0  dtMISS:          0
cpu0_STLB LOAD         ACCESS:    2583717  HIT:    2189440  MISS:     394277  iACCESS:     483358  iHIT:     362748  iMISS:     120610  dACCESS:    2100359  dHIT:    1826692  dMISS:     273667  itACCESS:          0  itHIT:          0  itMISS:          0  dtACCESS:          0  dtHIT:          0  dtMISS:          0
cpu0_STLB RFO          ACCESS:          0  HIT:          0  MISS:          0  iACCESS:          0  iHIT:          0  iMISS:          0  dACCESS:          0  dHIT:          0  dMISS:          0  itACCESS:          0  itHIT:          0  itMISS:          0  dtACCESS:          0  dtHIT:          0  dtMISS:          0
cpu0_STLB PREFETCH     ACCESS:          0  HIT:          0  MISS:          0  iACCESS:          0  iHIT:          0  iMISS:          0  dACCESS:          0  dHIT:          0  dMISS:          0  itACCESS:          0  itHIT:          0  itMISS:          0  dtACCESS:          0  dtHIT:          0  dtMISS:          0
cpu0_STLB WRITE        ACCESS:          0  HIT:          0  MISS:          0  iACCESS:          0  iHIT:          0  iMISS:          0  dACCESS:          0  dHIT:          0  dMISS:          0  itACCESS:          0  itHIT:          0  itMISS:          0  dtACCESS:          0  dtHIT:          0  dtMISS:          0
cpu0_STLB TRANSLATION  ACCESS:          0  HIT:          0  MISS:          0  iACCESS:          0  iHIT:          0  iMISS:          0  dACCESS:          0  dHIT:          0  dMISS:          0  itACCESS:          0  itHIT:          0  itMISS:          0  dtACCESS:          0  dtHIT:          0  dtMISS:          0
cpu0_STLB PREFETCH  REQUESTED:          0  ISSUED:          0  CROSSED:          0  USEFUL:          0  USELESS:          0
cpu0_STLB AVERAGE iMISS LATENCY: 38.2921 cycles
cpu0_STLB AVERAGE dMISS LATENCY: 120.659 cycles
cpu0_STLB AVERAGE itMISS LATENCY: 0 cycles
cpu0_STLB AVERAGE dtMISS LATENCY: 0 cycles
cpu0_STLB PAGE CROSSINGS (TLB HIT):         0 
cpu0_STLB PAGE CROSSINGS (TLB MISS):         0 
cpu0_STLB AVERAGE MISS LATENCY: 158.951 cycles
cpu0_L1D TOTAL       ACCESS:   45853301  HIT:   39706851  MISS:    6146450  iACCESS:          0  iHIT:          0  iMISS:          0  dACCESS:   45283360  dHIT:   39673360  dMISS:    5610000  itACCESS:     134831  itHIT:      14301  itMISS:     120530  dtACCESS:     435110  dtHIT:      19190  dtMISS:     415920
cpu0_L1D LOAD         ACCESS:   20738325  HIT:   18202135  MISS:    2536190  iACCESS:          0  iHIT:          0  iMISS:          0  dACCESS:   20738325  dHIT:   18202135  dMISS:    2536190  itACCESS:          0  itHIT:          0  itMISS:          0  dtACCESS:          0  dtHIT:          0  dtMISS:          0
cpu0_L1D RFO          ACCESS:          0  HIT:          0  MISS:          0  iACCESS:          0  iHIT:          0  iMISS:          0  dACCESS:          0  dHIT:          0  dMISS:          0  itACCESS:          0  itHIT:          0  itMISS:          0  dtACCESS:          0  dtHIT:          0  dtMISS:          0
cpu0_L1D PREFETCH     ACCESS:   14423858  HIT:   11948037  MISS:    2475821  iACCESS:          0  iHIT:          0  iMISS:          0  dACCESS:   14423858  dHIT:   11948037  dMISS:    2475821  itACCESS:          0  itHIT:          0  itMISS:          0  dtACCESS:          0  dtHIT:          0  dtMISS:          0
cpu0_L1D WRITE        ACCESS:   10121177  HIT:    9523188  MISS:     597989  iACCESS:          0  iHIT:          0  iMISS:          0  dACCESS:   10121177  dHIT:    9523188  dMISS:     597989  itACCESS:          0  itHIT:          0  itMISS:          0  dtACCESS:          0  dtHIT:          0  dtMISS:          0
cpu0_L1D TRANSLATION  ACCESS:     569941  HIT:      33491  MISS:     536450  iACCESS:          0  iHIT:          0  iMISS:          0  dACCESS:          0  dHIT:          0  dMISS:          0  itACCESS:     134831  itHIT:      14301  itMISS:     120530  dtACCESS:     435110  dtHIT:      19190  dtMISS:     415920
cpu0_L1D PREFETCH  REQUESTED:   20738325  ISSUED:   18909944  CROSSED:          0  USEFUL:     381185  USELESS:     958810
cpu0_L1D AVERAGE iMISS LATENCY: 0 cycles
cpu0_L1D AVERAGE dMISS LATENCY: 50.0406 cycles
cpu0_L1D AVERAGE itMISS LATENCY: 2.27347 cycles
cpu0_L1D AVERAGE dtMISS LATENCY: 6.98933 cycles
cpu0_L1D PAGE CROSSINGS (TLB HIT):         0 
cpu0_L1D PAGE CROSSINGS (TLB MISS):         0 
cpu0_L1D AVERAGE MISS LATENCY: 59.3034 cycles
cpu0_L2C TOTAL       ACCESS:    8812927  HIT:    1533300  MISS:    7279627  iACCESS:    3832336  iHIT:     802288  iMISS:    3030048  dACCESS:    4472844  dHIT:     536502  dMISS:    3936342  itACCESS:     120279  itHIT:      39144  itMISS:      81135  dtACCESS:     387468  dtHIT:     155366  dtMISS:     232102
cpu0_L2C LOAD         ACCESS:    2107226  HIT:     209240  MISS:    1897986  iACCESS:     850445  iHIT:     114571  iMISS:     735874  dACCESS:    1256781  dHIT:      94669  dMISS:    1162112  itACCESS:          0  itHIT:          0  itMISS:          0  dtACCESS:          0  dtHIT:          0  dtMISS:          0
cpu0_L2C RFO          ACCESS:     224915  HIT:      27745  MISS:     197170  iACCESS:          0  iHIT:          0  iMISS:          0  dACCESS:     224915  dHIT:      27745  dMISS:     197170  itACCESS:          0  itHIT:          0  itMISS:          0  dtACCESS:          0  dtHIT:          0  dtMISS:          0
cpu0_L2C PREFETCH     ACCESS:    5623600  HIT:    1001353  MISS:    4622247  iACCESS:    2981891  iHIT:     687717  iMISS:    2294174  dACCESS:    2641709  dHIT:     313636  dMISS:    2328073  itACCESS:          0  itHIT:          0  itMISS:          0  dtACCESS:          0  dtHIT:          0  dtMISS:          0
cpu0_L2C WRITE        ACCESS:     349439  HIT:     100452  MISS:     248987  iACCESS:          0  iHIT:          0  iMISS:          0  dACCESS:     349439  dHIT:     100452  dMISS:     248987  itACCESS:          0  itHIT:          0  itMISS:          0  dtACCESS:          0  dtHIT:          0  dtMISS:          0
cpu0_L2C TRANSLATION  ACCESS:     507747  HIT:     194510  MISS:     313237  iACCESS:          0  iHIT:          0  iMISS:          0  dACCESS:          0  dHIT:          0  dMISS:          0  itACCESS:     120279  itHIT:      39144  itMISS:      81135  dtACCESS:     387468  dtHIT:     155366  dtMISS:     232102
cpu0_L2C PREFETCH  REQUESTED:    1540107  ISSUED:    1540104  CROSSED:          0  USEFUL:     406733  USELESS:     507472
cpu0_L2C AVERAGE iMISS LATENCY: 27.4822 cycles
cpu0_L2C AVERAGE dMISS LATENCY: 51.8959 cycles
cpu0_L2C AVERAGE itMISS LATENCY: 1.75927 cycles
cpu0_L2C AVERAGE dtMISS LATENCY: 5.38808 cycles
cpu0_L2C PAGE CROSSINGS (TLB HIT):         0 
cpu0_L2C PAGE CROSSINGS (TLB MISS):         0 
cpu0_L2C AVERAGE MISS LATENCY: 86.5254 cycles
LLC TOTAL       ACCESS:    7089104  HIT:    4195891  MISS:    2893213  iACCESS:    2938441  iHIT:    2033008  iMISS:     905433  dACCESS:    3837426  dHIT:    2093264  dMISS:    1744162  itACCESS:      81135  itHIT:      18510  itMISS:      62625  dtACCESS:     232102  dtHIT:      51109  dtMISS:     180993
LLC LOAD         ACCESS:    1889514  HIT:    1184153  MISS:     705361  iACCESS:     734433  iHIT:     544328  iMISS:     190105  dACCESS:    1155081  dHIT:     639825  dMISS:     515256  itACCESS:          0  itHIT:          0  itMISS:          0  dtACCESS:          0  dtHIT:          0  dtMISS:          0
LLC RFO          ACCESS:     197143  HIT:     101151  MISS:      95992  iACCESS:          0  iHIT:          0  iMISS:          0  dACCESS:     197143  dHIT:     101151  dMISS:      95992  itACCESS:          0  itHIT:          0  itMISS:          0  dtACCESS:          0  dtHIT:          0  dtMISS:          0
LLC PREFETCH     ACCESS:    4406519  HIT:    2563961  MISS:    1842558  iACCESS:    2204008  iHIT:    1488680  iMISS:     715328  dACCESS:    2202511  dHIT:    1075281  dMISS:    1127230  itACCESS:          0  itHIT:          0  itMISS:          0  dtACCESS:          0  dtHIT:          0  dtMISS:          0
LLC WRITE        ACCESS:     282691  HIT:     277007  MISS:       5684  iACCESS:          0  iHIT:          0  iMISS:          0  dACCESS:     282691  dHIT:     277007  dMISS:       5684  itACCESS:          0  itHIT:          0  itMISS:          0  dtACCESS:          0  dtHIT:          0  dtMISS:          0
LLC TRANSLATION  ACCESS:     313237  HIT:      69619  MISS:     243618  iACCESS:          0  iHIT:          0  iMISS:          0  dACCESS:          0  dHIT:          0  dMISS:          0  itACCESS:      81135  itHIT:      18510  itMISS:      62625  dtACCESS:     232102  dtHIT:      51109  dtMISS:     180993
LLC PREFETCH  REQUESTED:          0  ISSUED:          0  CROSSED:          0  USEFUL:          0  USELESS:          0
LLC AVERAGE iMISS LATENCY: 49.4075 cycles
LLC AVERAGE dMISS LATENCY: 107.679 cycles
LLC AVERAGE itMISS LATENCY: 3.874 cycles
LLC AVERAGE dtMISS LATENCY: 11.9761 cycles
LLC PAGE CROSSINGS (TLB HIT):         0 
LLC PAGE CROSSINGS (TLB MISS):         0 
LLC AVERAGE MISS LATENCY: 172.936 cycles

PageTableWalker TOTAL       ACCESS:     193978  
PageTableWalker AVERAGE LATENCY: 5.91278 cycles
PageTableWalker TOTAL LATENCY: 1146949 cycles

DRAM Statistics
Channel 0
 RQ ROW_BUFFER_HIT:     634677
  ROW_BUFFER_MISS:    2231629
 AVG DBUS CONGESTED CYCLE:    3.65496
 WQ ROW_BUFFER_HIT:      69187
  ROW_BUFFER_MISS:      65271  FULL:          0

