last_page:0x200000000000000
VMEM_RES_CAP:0x100000
PAGE_SIZE:4096
LOG2_PAGE_SIZE:12
LOG2_PAGE_TABLE_SIZE:9
page_table_levels:5
WARNING: physical memory size is smaller than virtual memory size
FDiP enabled with aggresivity 16

*** ChampSim Multicore Out-of-Order Simulator ***

Warmup Instructions: 50000000
Simulation Instructions: 100000000
Number of CPUs: 1
Small page size: 4096
Large page size: 2097152

CPU 0 Bimodal branch predictor
Basic BTB sets: 1024 ways: 8 indirect buffer size: 4096 RAS size: 64
Instruction page size distrubution: 0
Loading instruction page size distribution from /home/bsc/bsc018186/scratch/itp_asplos25_AE/dump/smt_srv540_ap_srv224_ap_1024i.pdst
Data page size distrubution: 0
Loading data page size distribution from /home/bsc/bsc018186/scratch/itp_asplos25_AE/dump/smt_srv540_ap_srv224_ap_1024i.pdst
cpu0_L2C IP-based stride prefetcher
cpu0_L1D next line prefetcher
cpu0_L1I next line prefetcher
Off-chip DRAM Size: 4 GiB Channels: 1 Width: 64-bit Data Rate: 3200 MT/s
Heartbeat CPU 0 instructions: 10000002 cycles: 2500488 heartbeat IPC: 3.99923 cumulative IPC: 3.99923 (Simulation time: 0 hr 0 min 46 sec) 
Heartbeat CPU 0 instructions: 20000003 cycles: 5000762 heartbeat IPC: 3.99957 cumulative IPC: 3.9994 (Simulation time: 0 hr 1 min 35 sec) 
Heartbeat CPU 0 instructions: 30000001 cycles: 7500945 heartbeat IPC: 3.99971 cumulative IPC: 3.9995 (Simulation time: 0 hr 2 min 24 sec) 
Heartbeat CPU 0 instructions: 40000001 cycles: 10048648 heartbeat IPC: 3.92511 cumulative IPC: 3.98064 (Simulation time: 0 hr 3 min 13 sec) 
Heartbeat CPU 0 instructions: 50000002 cycles: 12610739 heartbeat IPC: 3.90307 cumulative IPC: 3.96488 (Simulation time: 0 hr 4 min 5 sec) 
Warmup finished CPU 0 instructions: 50000002 cycles: 12610740 cumulative IPC: 3.96488 (Simulation time: 0 hr 4 min 5 sec) 

Warmup complete CPU 0 instructions: 50000002 cycles: 12610740 (Simulation time: 0 hr 4 min 5 sec) 

Heartbeat CPU 0 instructions: 60000002 cycles: 29061861 heartbeat IPC: 0.607862 cumulative IPC: 0.607862 (Simulation time: 0 hr 5 min 29 sec) 
Heartbeat CPU 0 instructions: 70000003 cycles: 55411627 heartbeat IPC: 0.379511 cumulative IPC: 0.467281 (Simulation time: 0 hr 7 min 2 sec) 
Heartbeat CPU 0 instructions: 80000002 cycles: 81597499 heartbeat IPC: 0.381886 cumulative IPC: 0.434867 (Simulation time: 0 hr 8 min 36 sec) 
Heartbeat CPU 0 instructions: 90000000 cycles: 109016807 heartbeat IPC: 0.364707 cumulative IPC: 0.414912 (Simulation time: 0 hr 10 min 14 sec) 
Heartbeat CPU 0 instructions: 100000001 cycles: 136451279 heartbeat IPC: 0.364505 cumulative IPC: 0.403746 (Simulation time: 0 hr 11 min 51 sec) 
Heartbeat CPU 0 instructions: 110000001 cycles: 162518276 heartbeat IPC: 0.383627 cumulative IPC: 0.400247 (Simulation time: 0 hr 13 min 27 sec) 
Heartbeat CPU 0 instructions: 120000004 cycles: 189113172 heartbeat IPC: 0.376013 cumulative IPC: 0.396596 (Simulation time: 0 hr 15 min 3 sec) 
Heartbeat CPU 0 instructions: 130000003 cycles: 216352301 heartbeat IPC: 0.367119 cumulative IPC: 0.392655 (Simulation time: 0 hr 16 min 36 sec) 
Heartbeat CPU 0 instructions: 140000002 cycles: 243318206 heartbeat IPC: 0.370839 cumulative IPC: 0.390105 (Simulation time: 0 hr 18 min 1 sec) 
Heartbeat CPU 0 instructions: 150000001 cycles: 269398404 heartbeat IPC: 0.383433 cumulative IPC: 0.389427 (Simulation time: 0 hr 19 min 24 sec) 
Simulation finished CPU 0 instructions: 100000004 cycles: 256787666 cumulative IPC: 0.389427 (Simulation time: 0 hr 19 min 24 sec) 

Simulation complete CPU 0 instructions: 100000004 cycles: 256787666 (Simulation time: 0 hr 19 min 24 sec) 


ChampSim completed all CPUs

Saving instructions large page distribution to /home/bsc/bsc018186/scratch/itp_asplos25_AE/dump/smt_srv540_ap_srv224_ap_1024i.pdst...
Saving data large page distribution to /home/bsc/bsc018186/scratch/itp_asplos25_AE/dump/smt_srv540_ap_srv224_ap_1024i.pdst...
=== Simulation ===
CPU 0 runs /gpfs/projects/bsc18/MN4/bsc18/romol/ChampSim/traces/qualcomm_srv/smt_srv540_ap_srv224_ap_1024i.champsimtrace.xz

Region of Interest Statistics

CPU 0 cumulative IPC: 0.389427 instructions: 100000004 cycles: 256787666
CPU 0 Branch Prediction Accuracy: 76.9778% MPKI: 42.7248 Average ROB Occupancy at Mispredict: 11.3909
Branch type MPKI
BRANCH_DIRECT_JUMP: 1.25324
BRANCH_INDIRECT: 22.4673
BRANCH_CONDITIONAL: 12.3144
BRANCH_DIRECT_CALL: 2.36653
BRANCH_INDIRECT_CALL: 1.00633
BRANCH_RETURN: 3.31707

Instructions large pages: 0
Instructions small pages: 13228
Large page distribution for instructions: 0%

Data large pages: 0
Data small pages: 11873
Large page distribution for data: 0%

cpu0_L1I TOTAL       ACCESS:   39882201  HIT:   31363293  MISS:    8518908  iACCESS:   39882201  iHIT:   31363293  iMISS:    8518908  dACCESS:          0  dHIT:          0  dMISS:          0  itACCESS:          0  itHIT:          0  itMISS:          0  dtACCESS:          0  dtHIT:          0  dtMISS:          0
cpu0_L1I LOAD         ACCESS:   11751217  HIT:    9440147  MISS:    2311070  iACCESS:   11751217  iHIT:    9440147  iMISS:    2311070  dACCESS:          0  dHIT:          0  dMISS:          0  itACCESS:          0  itHIT:          0  itMISS:          0  dtACCESS:          0  dtHIT:          0  dtMISS:          0
cpu0_L1I RFO          ACCESS:          0  HIT:          0  MISS:          0  iACCESS:          0  iHIT:          0  iMISS:          0  dACCESS:          0  dHIT:          0  dMISS:          0  itACCESS:          0  itHIT:          0  itMISS:          0  dtACCESS:          0  dtHIT:          0  dtMISS:          0
cpu0_L1I PREFETCH     ACCESS:   28130984  HIT:   21923146  MISS:    6207838  iACCESS:   28130984  iHIT:   21923146  iMISS:    6207838  dACCESS:          0  dHIT:          0  dMISS:          0  itACCESS:          0  itHIT:          0  itMISS:          0  dtACCESS:          0  dtHIT:          0  dtMISS:          0
cpu0_L1I WRITE        ACCESS:          0  HIT:          0  MISS:          0  iACCESS:          0  iHIT:          0  iMISS:          0  dACCESS:          0  dHIT:          0  dMISS:          0  itACCESS:          0  itHIT:          0  itMISS:          0  dtACCESS:          0  dtHIT:          0  dtMISS:          0
cpu0_L1I TRANSLATION  ACCESS:          0  HIT:          0  MISS:          0  iACCESS:          0  iHIT:          0  iMISS:          0  dACCESS:          0  dHIT:          0  dMISS:          0  itACCESS:          0  itHIT:          0  itMISS:          0  dtACCESS:          0  dtHIT:          0  dtMISS:          0
cpu0_L1I PREFETCH  REQUESTED:   30790859  ISSUED:   30789838  CROSSED:          0  USEFUL:    2056546  USELESS:     696858
cpu0_L1I AVERAGE iMISS LATENCY: 23.166 cycles
cpu0_L1I AVERAGE dMISS LATENCY: 0 cycles
cpu0_L1I AVERAGE itMISS LATENCY: 0 cycles
cpu0_L1I AVERAGE dtMISS LATENCY: 0 cycles
cpu0_L1I PAGE CROSSINGS (TLB HIT):         0 
cpu0_L1I PAGE CROSSINGS (TLB MISS):         0 
cpu0_L1I AVERAGE MISS LATENCY: 23.166 cycles
cpu0_ITLB TOTAL       ACCESS:   33343940  HIT:   31296452  MISS:    2047488  iACCESS:   33343940  iHIT:   31296452  iMISS:    2047488  dACCESS:          0  dHIT:          0  dMISS:          0  itACCESS:          0  itHIT:          0  itMISS:          0  dtACCESS:          0  dtHIT:          0  dtMISS:          0
cpu0_ITLB LOAD         ACCESS:   33343940  HIT:   31296452  MISS:    2047488  iACCESS:   33343940  iHIT:   31296452  iMISS:    2047488  dACCESS:          0  dHIT:          0  dMISS:          0  itACCESS:          0  itHIT:          0  itMISS:          0  dtACCESS:          0  dtHIT:          0  dtMISS:          0
cpu0_ITLB RFO          ACCESS:          0  HIT:          0  MISS:          0  iACCESS:          0  iHIT:          0  iMISS:          0  dACCESS:          0  dHIT:          0  dMISS:          0  itACCESS:          0  itHIT:          0  itMISS:          0  dtACCESS:          0  dtHIT:          0  dtMISS:          0
cpu0_ITLB PREFETCH     ACCESS:          0  HIT:          0  MISS:          0  iACCESS:          0  iHIT:          0  iMISS:          0  dACCESS:          0  dHIT:          0  dMISS:          0  itACCESS:          0  itHIT:          0  itMISS:          0  dtACCESS:          0  dtHIT:          0  dtMISS:          0
cpu0_ITLB WRITE        ACCESS:          0  HIT:          0  MISS:          0  iACCESS:          0  iHIT:          0  iMISS:          0  dACCESS:          0  dHIT:          0  dMISS:          0  itACCESS:          0  itHIT:          0  itMISS:          0  dtACCESS:          0  dtHIT:          0  dtMISS:          0
cpu0_ITLB TRANSLATION  ACCESS:          0  HIT:          0  MISS:          0  iACCESS:          0  iHIT:          0  iMISS:          0  dACCESS:          0  dHIT:          0  dMISS:          0  itACCESS:          0  itHIT:          0  itMISS:          0  dtACCESS:          0  dtHIT:          0  dtMISS:          0
cpu0_ITLB PREFETCH  REQUESTED:          0  ISSUED:          0  CROSSED:          0  USEFUL:     356863  USELESS:      73847
cpu0_ITLB AVERAGE iMISS LATENCY: 7.6534 cycles
cpu0_ITLB AVERAGE dMISS LATENCY: 0 cycles
cpu0_ITLB AVERAGE itMISS LATENCY: 0 cycles
cpu0_ITLB AVERAGE dtMISS LATENCY: 0 cycles
cpu0_ITLB PAGE CROSSINGS (TLB HIT):         0 
cpu0_ITLB PAGE CROSSINGS (TLB MISS):         0 
cpu0_ITLB AVERAGE MISS LATENCY: 7.6534 cycles
cpu0_DTLB TOTAL       ACCESS:   29661695  HIT:   24948746  MISS:    4712949  iACCESS:          0  iHIT:          0  iMISS:          0  dACCESS:   29661695  dHIT:   24948746  dMISS:    4712949  itACCESS:          0  itHIT:          0  itMISS:          0  dtACCESS:          0  dtHIT:          0  dtMISS:          0
cpu0_DTLB LOAD         ACCESS:   29661695  HIT:   24948746  MISS:    4712949  iACCESS:          0  iHIT:          0  iMISS:          0  dACCESS:   29661695  dHIT:   24948746  dMISS:    4712949  itACCESS:          0  itHIT:          0  itMISS:          0  dtACCESS:          0  dtHIT:          0  dtMISS:          0
cpu0_DTLB RFO          ACCESS:          0  HIT:          0  MISS:          0  iACCESS:          0  iHIT:          0  iMISS:          0  dACCESS:          0  dHIT:          0  dMISS:          0  itACCESS:          0  itHIT:          0  itMISS:          0  dtACCESS:          0  dtHIT:          0  dtMISS:          0
cpu0_DTLB PREFETCH     ACCESS:          0  HIT:          0  MISS:          0  iACCESS:          0  iHIT:          0  iMISS:          0  dACCESS:          0  dHIT:          0  dMISS:          0  itACCESS:          0  itHIT:          0  itMISS:          0  dtACCESS:          0  dtHIT:          0  dtMISS:          0
cpu0_DTLB WRITE        ACCESS:          0  HIT:          0  MISS:          0  iACCESS:          0  iHIT:          0  iMISS:          0  dACCESS:          0  dHIT:          0  dMISS:          0  itACCESS:          0  itHIT:          0  itMISS:          0  dtACCESS:          0  dtHIT:          0  dtMISS:          0
cpu0_DTLB TRANSLATION  ACCESS:          0  HIT:          0  MISS:          0  iACCESS:          0  iHIT:          0  iMISS:          0  dACCESS:          0  dHIT:          0  dMISS:          0  itACCESS:          0  itHIT:          0  itMISS:          0  dtACCESS:          0  dtHIT:          0  dtMISS:          0
cpu0_DTLB PREFETCH  REQUESTED:          0  ISSUED:          0  CROSSED:          0  USEFUL:          0  USELESS:          0
cpu0_DTLB AVERAGE iMISS LATENCY: 0 cycles
cpu0_DTLB AVERAGE dMISS LATENCY: 13.1473 cycles
cpu0_DTLB AVERAGE itMISS LATENCY: 0 cycles
cpu0_DTLB AVERAGE dtMISS LATENCY: 0 cycles
cpu0_DTLB PAGE CROSSINGS (TLB HIT):         0 
cpu0_DTLB PAGE CROSSINGS (TLB MISS):         0 
cpu0_DTLB AVERAGE MISS LATENCY: 13.1473 cycles
cpu0_STLB TOTAL       ACCESS:    3033650  HIT:    2691274  MISS:     342376  iACCESS:     430721  iHIT:     327465  iMISS:     103256  dACCESS:    2602929  dHIT:    2363809  dMISS:     239120  itACCESS:          0  itHIT:          0  itMISS:          0  dtACCESS:          0  dtHIT:          0  dtMISS:          0
cpu0_STLB LOAD         ACCESS:    3033650  HIT:    2691274  MISS:     342376  iACCESS:     430721  iHIT:     327465  iMISS:     103256  dACCESS:    2602929  dHIT:    2363809  dMISS:     239120  itACCESS:          0  itHIT:          0  itMISS:          0  dtACCESS:          0  dtHIT:          0  dtMISS:          0
cpu0_STLB RFO          ACCESS:          0  HIT:          0  MISS:          0  iACCESS:          0  iHIT:          0  iMISS:          0  dACCESS:          0  dHIT:          0  dMISS:          0  itACCESS:          0  itHIT:          0  itMISS:          0  dtACCESS:          0  dtHIT:          0  dtMISS:          0
cpu0_STLB PREFETCH     ACCESS:          0  HIT:          0  MISS:          0  iACCESS:          0  iHIT:          0  iMISS:          0  dACCESS:          0  dHIT:          0  dMISS:          0  itACCESS:          0  itHIT:          0  itMISS:          0  dtACCESS:          0  dtHIT:          0  dtMISS:          0
cpu0_STLB WRITE        ACCESS:          0  HIT:          0  MISS:          0  iACCESS:          0  iHIT:          0  iMISS:          0  dACCESS:          0  dHIT:          0  dMISS:          0  itACCESS:          0  itHIT:          0  itMISS:          0  dtACCESS:          0  dtHIT:          0  dtMISS:          0
cpu0_STLB TRANSLATION  ACCESS:          0  HIT:          0  MISS:          0  iACCESS:          0  iHIT:          0  iMISS:          0  dACCESS:          0  dHIT:          0  dMISS:          0  itACCESS:          0  itHIT:          0  itMISS:          0  dtACCESS:          0  dtHIT:          0  dtMISS:          0
cpu0_STLB PREFETCH  REQUESTED:          0  ISSUED:          0  CROSSED:          0  USEFUL:          0  USELESS:          0
cpu0_STLB AVERAGE iMISS LATENCY: 35.7197 cycles
cpu0_STLB AVERAGE dMISS LATENCY: 119.691 cycles
cpu0_STLB AVERAGE itMISS LATENCY: 0 cycles
cpu0_STLB AVERAGE dtMISS LATENCY: 0 cycles
cpu0_STLB PAGE CROSSINGS (TLB HIT):         0 
cpu0_STLB PAGE CROSSINGS (TLB MISS):         0 
cpu0_STLB AVERAGE MISS LATENCY: 155.411 cycles
cpu0_L1D TOTAL       ACCESS:   46146317  HIT:   39299327  MISS:    6846990  iACCESS:          0  iHIT:          0  iMISS:          0  dACCESS:   45652081  dHIT:   39268450  dMISS:    6383631  itACCESS:     115441  itHIT:      12306  itMISS:     103135  dtACCESS:     378795  dtHIT:      18571  dtMISS:     360224
cpu0_L1D LOAD         ACCESS:   21388578  HIT:   18143838  MISS:    3244740  iACCESS:          0  iHIT:          0  iMISS:          0  dACCESS:   21388578  dHIT:   18143838  dMISS:    3244740  itACCESS:          0  itHIT:          0  itMISS:          0  dtACCESS:          0  dtHIT:          0  dtMISS:          0
cpu0_L1D RFO          ACCESS:          0  HIT:          0  MISS:          0  iACCESS:          0  iHIT:          0  iMISS:          0  dACCESS:          0  dHIT:          0  dMISS:          0  itACCESS:          0  itHIT:          0  itMISS:          0  dtACCESS:          0  dtHIT:          0  dtMISS:          0
cpu0_L1D PREFETCH     ACCESS:   14241316  HIT:   11647960  MISS:    2593356  iACCESS:          0  iHIT:          0  iMISS:          0  dACCESS:   14241316  dHIT:   11647960  dMISS:    2593356  itACCESS:          0  itHIT:          0  itMISS:          0  dtACCESS:          0  dtHIT:          0  dtMISS:          0
cpu0_L1D WRITE        ACCESS:   10022187  HIT:    9476652  MISS:     545535  iACCESS:          0  iHIT:          0  iMISS:          0  dACCESS:   10022187  dHIT:    9476652  dMISS:     545535  itACCESS:          0  itHIT:          0  itMISS:          0  dtACCESS:          0  dtHIT:          0  dtMISS:          0
cpu0_L1D TRANSLATION  ACCESS:     494236  HIT:      30877  MISS:     463359  iACCESS:          0  iHIT:          0  iMISS:          0  dACCESS:          0  dHIT:          0  dMISS:          0  itACCESS:     115441  itHIT:      12306  itMISS:     103135  dtACCESS:     378795  dtHIT:      18571  dtMISS:     360224
cpu0_L1D PREFETCH  REQUESTED:   21388578  ISSUED:   18567350  CROSSED:          0  USEFUL:     341237  USELESS:     987929
cpu0_L1D AVERAGE iMISS LATENCY: 0 cycles
cpu0_L1D AVERAGE dMISS LATENCY: 40.1325 cycles
cpu0_L1D AVERAGE itMISS LATENCY: 1.6451 cycles
cpu0_L1D AVERAGE dtMISS LATENCY: 5.26946 cycles
cpu0_L1D PAGE CROSSINGS (TLB HIT):         0 
cpu0_L1D PAGE CROSSINGS (TLB MISS):         0 
cpu0_L1D AVERAGE MISS LATENCY: 47.047 cycles
cpu0_L2C TOTAL       ACCESS:    8910230  HIT:    1893681  MISS:    7016549  iACCESS:    3493291  iHIT:     771773  iMISS:    2721518  dACCESS:    4972436  dHIT:     944815  dMISS:    4027621  itACCESS:     102941  itHIT:      36414  itMISS:      66527  dtACCESS:     341562  dtHIT:     140679  dtMISS:     200883
cpu0_L2C LOAD         ACCESS:    2650875  HIT:     542496  MISS:    2108379  iACCESS:     774559  iHIT:     106346  iMISS:     668213  dACCESS:    1876316  dHIT:     436150  dMISS:    1440166  itACCESS:          0  itHIT:          0  itMISS:          0  dtACCESS:          0  dtHIT:          0  dtMISS:          0
cpu0_L2C RFO          ACCESS:     216388  HIT:      41307  MISS:     175081  iACCESS:          0  iHIT:          0  iMISS:          0  dACCESS:     216388  dHIT:      41307  dMISS:     175081  itACCESS:          0  itHIT:          0  itMISS:          0  dtACCESS:          0  dtHIT:          0  dtMISS:          0
cpu0_L2C PREFETCH     ACCESS:    5264901  HIT:    1030724  MISS:    4234177  iACCESS:    2718732  iHIT:     665427  iMISS:    2053305  dACCESS:    2546169  dHIT:     365297  dMISS:    2180872  itACCESS:          0  itHIT:          0  itMISS:          0  dtACCESS:          0  dtHIT:          0  dtMISS:          0
cpu0_L2C WRITE        ACCESS:     333563  HIT:     102061  MISS:     231502  iACCESS:          0  iHIT:          0  iMISS:          0  dACCESS:     333563  dHIT:     102061  dMISS:     231502  itACCESS:          0  itHIT:          0  itMISS:          0  dtACCESS:          0  dtHIT:          0  dtMISS:          0
cpu0_L2C TRANSLATION  ACCESS:     444503  HIT:     177093  MISS:     267410  iACCESS:          0  iHIT:          0  iMISS:          0  dACCESS:          0  dHIT:          0  dMISS:          0  itACCESS:     102941  itHIT:      36414  itMISS:      66527  dtACCESS:     341562  dtHIT:     140679  dtMISS:     200883
cpu0_L2C PREFETCH  REQUESTED:    1439846  ISSUED:    1439844  CROSSED:          0  USEFUL:     394122  USELESS:     455329
cpu0_L2C AVERAGE iMISS LATENCY: 23.8212 cycles
cpu0_L2C AVERAGE dMISS LATENCY: 46.2769 cycles
cpu0_L2C AVERAGE itMISS LATENCY: 1.46346 cycles
cpu0_L2C AVERAGE dtMISS LATENCY: 4.67322 cycles
cpu0_L2C PAGE CROSSINGS (TLB HIT):         0 
cpu0_L2C PAGE CROSSINGS (TLB MISS):         0 
cpu0_L2C AVERAGE MISS LATENCY: 76.2347 cycles
LLC TOTAL       ACCESS:    6840203  HIT:    4450886  MISS:    2389317  iACCESS:    2635428  iHIT:    1895564  iMISS:     739864  dACCESS:    3937365  dHIT:    2491015  dMISS:    1446350  itACCESS:      66527  itHIT:      15871  itMISS:      50656  dtACCESS:     200883  dtHIT:      48436  dtMISS:     152447
LLC LOAD         ACCESS:    2102919  HIT:    1531841  MISS:     571078  iACCESS:     666866  iHIT:     510731  iMISS:     156135  dACCESS:    1436053  dHIT:    1021110  dMISS:     414943  itACCESS:          0  itHIT:          0  itMISS:          0  dtACCESS:          0  dtHIT:          0  dtMISS:          0
LLC RFO          ACCESS:     175068  HIT:      94682  MISS:      80386  iACCESS:          0  iHIT:          0  iMISS:          0  dACCESS:     175068  dHIT:      94682  dMISS:      80386  itACCESS:          0  itHIT:          0  itMISS:          0  dtACCESS:          0  dtHIT:          0  dtMISS:          0
LLC PREFETCH     ACCESS:    4035243  HIT:    2506749  MISS:    1528494  iACCESS:    1968562  iHIT:    1384833  iMISS:     583729  dACCESS:    2066681  dHIT:    1121916  dMISS:     944765  itACCESS:          0  itHIT:          0  itMISS:          0  dtACCESS:          0  dtHIT:          0  dtMISS:          0
LLC WRITE        ACCESS:     259563  HIT:     253307  MISS:       6256  iACCESS:          0  iHIT:          0  iMISS:          0  dACCESS:     259563  dHIT:     253307  dMISS:       6256  itACCESS:          0  itHIT:          0  itMISS:          0  dtACCESS:          0  dtHIT:          0  dtMISS:          0
LLC TRANSLATION  ACCESS:     267410  HIT:      64307  MISS:     203103  iACCESS:          0  iHIT:          0  iMISS:          0  dACCESS:          0  dHIT:          0  dMISS:          0  itACCESS:      66527  itHIT:      15871  itMISS:      50656  dtACCESS:     200883  dtHIT:      48436  dtMISS:     152447
LLC PREFETCH  REQUESTED:          0  ISSUED:          0  CROSSED:          0  USEFUL:          0  USELESS:          0
LLC AVERAGE iMISS LATENCY: 48.5373 cycles
LLC AVERAGE dMISS LATENCY: 106.809 cycles
LLC AVERAGE itMISS LATENCY: 3.74901 cycles
LLC AVERAGE dtMISS LATENCY: 12.0682 cycles
LLC PAGE CROSSINGS (TLB HIT):         0 
LLC PAGE CROSSINGS (TLB MISS):         0 
LLC AVERAGE MISS LATENCY: 171.164 cycles

PageTableWalker TOTAL       ACCESS:     163962  
PageTableWalker AVERAGE LATENCY: 5.86703 cycles
PageTableWalker TOTAL LATENCY: 961969 cycles

DRAM Statistics
Channel 0
 RQ ROW_BUFFER_HIT:     532214
  ROW_BUFFER_MISS:    1839415
 AVG DBUS CONGESTED CYCLE:    3.65314
 WQ ROW_BUFFER_HIT:      58600
  ROW_BUFFER_MISS:      55155  FULL:          0

