last_page:0x200000000000000
VMEM_RES_CAP:0x100000
PAGE_SIZE:4096
LOG2_PAGE_SIZE:12
LOG2_PAGE_TABLE_SIZE:9
page_table_levels:5
WARNING: physical memory size is smaller than virtual memory size
FDiP enabled with aggresivity 16

*** ChampSim Multicore Out-of-Order Simulator ***

Warmup Instructions: 50000000
Simulation Instructions: 100000000
Number of CPUs: 1
Small page size: 4096
Large page size: 2097152

CPU 0 Bimodal branch predictor
Basic BTB sets: 1024 ways: 8 indirect buffer size: 4096 RAS size: 64
Instruction page size distrubution: 0
Loading instruction page size distribution from /home/bsc/bsc018186/scratch/itp_asplos25_AE/dump/smt_srv537_ap_srv551_ap_1024i.pdst
Data page size distrubution: 0
Loading data page size distribution from /home/bsc/bsc018186/scratch/itp_asplos25_AE/dump/smt_srv537_ap_srv551_ap_1024i.pdst
cpu0_L2C IP-based stride prefetcher
cpu0_L2C is using PTP replacement policy:
	TLB_STRESS_THRESHOLD:0
	PTE_EVICTION_RATIO:0
cpu0_L1D next line prefetcher
cpu0_STLB using iTP with max lru@8
cpu0_STLB using iTP with instr@0 and data@2
Init sat counter with 3 bits (max:50).
cpu0_L1I next line prefetcher
Off-chip DRAM Size: 4 GiB Channels: 1 Width: 64-bit Data Rate: 3200 MT/s
Heartbeat CPU 0 instructions: 10000001 cycles: 2500568 heartbeat IPC: 3.9991 cumulative IPC: 3.9991 (Simulation time: 0 hr 0 min 36 sec) 
Heartbeat CPU 0 instructions: 20000001 cycles: 5000766 heartbeat IPC: 3.99969 cumulative IPC: 3.99939 (Simulation time: 0 hr 1 min 14 sec) 
Heartbeat CPU 0 instructions: 30000003 cycles: 7500997 heartbeat IPC: 3.99964 cumulative IPC: 3.99947 (Simulation time: 0 hr 1 min 52 sec) 
Heartbeat CPU 0 instructions: 40000001 cycles: 10001152 heartbeat IPC: 3.99976 cumulative IPC: 3.99954 (Simulation time: 0 hr 2 min 31 sec) 
Heartbeat CPU 0 instructions: 50000002 cycles: 12501377 heartbeat IPC: 3.99965 cumulative IPC: 3.99956 (Simulation time: 0 hr 3 min 10 sec) 
Warmup finished CPU 0 instructions: 50000002 cycles: 12501378 cumulative IPC: 3.99956 (Simulation time: 0 hr 3 min 10 sec) 

Warmup complete CPU 0 instructions: 50000002 cycles: 12501378 (Simulation time: 0 hr 3 min 10 sec) 

Heartbeat CPU 0 instructions: 60000000 cycles: 42507087 heartbeat IPC: 0.33327 cumulative IPC: 0.33327 (Simulation time: 0 hr 4 min 31 sec) 
Heartbeat CPU 0 instructions: 70000002 cycles: 73808552 heartbeat IPC: 0.319474 cumulative IPC: 0.326227 (Simulation time: 0 hr 5 min 53 sec) 
Heartbeat CPU 0 instructions: 80000000 cycles: 103964937 heartbeat IPC: 0.331605 cumulative IPC: 0.328 (Simulation time: 0 hr 7 min 14 sec) 
Heartbeat CPU 0 instructions: 90000000 cycles: 133766087 heartbeat IPC: 0.335558 cumulative IPC: 0.329857 (Simulation time: 0 hr 8 min 35 sec) 
Heartbeat CPU 0 instructions: 100000003 cycles: 163938241 heartbeat IPC: 0.331432 cumulative IPC: 0.330171 (Simulation time: 0 hr 9 min 56 sec) 
Heartbeat CPU 0 instructions: 110000000 cycles: 193988727 heartbeat IPC: 0.332774 cumulative IPC: 0.330602 (Simulation time: 0 hr 11 min 17 sec) 
Heartbeat CPU 0 instructions: 120000000 cycles: 219300544 heartbeat IPC: 0.395073 cumulative IPC: 0.338493 (Simulation time: 0 hr 12 min 34 sec) 
Heartbeat CPU 0 instructions: 130000000 cycles: 235149730 heartbeat IPC: 0.630948 cumulative IPC: 0.359311 (Simulation time: 0 hr 13 min 39 sec) 
Heartbeat CPU 0 instructions: 140000000 cycles: 252472901 heartbeat IPC: 0.577262 cumulative IPC: 0.375045 (Simulation time: 0 hr 14 min 46 sec) 
Heartbeat CPU 0 instructions: 150000002 cycles: 283540704 heartbeat IPC: 0.321877 cumulative IPC: 0.368951 (Simulation time: 0 hr 16 min 8 sec) 
Simulation finished CPU 0 instructions: 100000000 cycles: 271039327 cumulative IPC: 0.368951 (Simulation time: 0 hr 16 min 8 sec) 

Simulation complete CPU 0 instructions: 100000000 cycles: 271039327 (Simulation time: 0 hr 16 min 8 sec) 


ChampSim completed all CPUs

Saving instructions large page distribution to /home/bsc/bsc018186/scratch/itp_asplos25_AE/dump/smt_srv537_ap_srv551_ap_1024i.pdst...
Saving data large page distribution to /home/bsc/bsc018186/scratch/itp_asplos25_AE/dump/smt_srv537_ap_srv551_ap_1024i.pdst...
=== Simulation ===
CPU 0 runs /gpfs/projects/bsc18/MN4/bsc18/romol/ChampSim/traces/qualcomm_srv/smt_srv537_ap_srv551_ap_1024i.champsimtrace.xz

Region of Interest Statistics

CPU 0 cumulative IPC: 0.368951 instructions: 100000000 cycles: 271039327
CPU 0 Branch Prediction Accuracy: 77.9643% MPKI: 42.5818 Average ROB Occupancy at Mispredict: 11.2709
Branch type MPKI
BRANCH_DIRECT_JUMP: 1.24463
BRANCH_INDIRECT: 22.852
BRANCH_CONDITIONAL: 11.7124
BRANCH_DIRECT_CALL: 2.38077
BRANCH_INDIRECT_CALL: 1.08294
BRANCH_RETURN: 3.30917

Instructions large pages: 0
Instructions small pages: 10737
Large page distribution for instructions: 0%

Data large pages: 0
Data small pages: 9299
Large page distribution for data: 0%

cpu0_L1I TOTAL       ACCESS:   39990267  HIT:   32211176  MISS:    7779091  iACCESS:   39990267  iHIT:   32211176  iMISS:    7779091  dACCESS:          0  dHIT:          0  dMISS:          0  itACCESS:          0  itHIT:          0  itMISS:          0  dtACCESS:          0  dtHIT:          0  dtMISS:          0
cpu0_L1I LOAD         ACCESS:   11459977  HIT:    9340372  MISS:    2119605  iACCESS:   11459977  iHIT:    9340372  iMISS:    2119605  dACCESS:          0  dHIT:          0  dMISS:          0  itACCESS:          0  itHIT:          0  itMISS:          0  dtACCESS:          0  dtHIT:          0  dtMISS:          0
cpu0_L1I RFO          ACCESS:          0  HIT:          0  MISS:          0  iACCESS:          0  iHIT:          0  iMISS:          0  dACCESS:          0  dHIT:          0  dMISS:          0  itACCESS:          0  itHIT:          0  itMISS:          0  dtACCESS:          0  dtHIT:          0  dtMISS:          0
cpu0_L1I PREFETCH     ACCESS:   28530290  HIT:   22870804  MISS:    5659486  iACCESS:   28530290  iHIT:   22870804  iMISS:    5659486  dACCESS:          0  dHIT:          0  dMISS:          0  itACCESS:          0  itHIT:          0  itMISS:          0  dtACCESS:          0  dtHIT:          0  dtMISS:          0
cpu0_L1I WRITE        ACCESS:          0  HIT:          0  MISS:          0  iACCESS:          0  iHIT:          0  iMISS:          0  dACCESS:          0  dHIT:          0  dMISS:          0  itACCESS:          0  itHIT:          0  itMISS:          0  dtACCESS:          0  dtHIT:          0  dtMISS:          0
cpu0_L1I TRANSLATION  ACCESS:          0  HIT:          0  MISS:          0  iACCESS:          0  iHIT:          0  iMISS:          0  dACCESS:          0  dHIT:          0  dMISS:          0  itACCESS:          0  itHIT:          0  itMISS:          0  dtACCESS:          0  dtHIT:          0  dtMISS:          0
cpu0_L1I PREFETCH  REQUESTED:   31262199  ISSUED:   31262194  CROSSED:          0  USEFUL:    1979458  USELESS:     685944
cpu0_L1I AVERAGE iMISS LATENCY: 24.0042 cycles
cpu0_L1I AVERAGE dMISS LATENCY: 0 cycles
cpu0_L1I AVERAGE itMISS LATENCY: 0 cycles
cpu0_L1I AVERAGE dtMISS LATENCY: 0 cycles
cpu0_L1I PAGE CROSSINGS (TLB HIT):         0 
cpu0_L1I PAGE CROSSINGS (TLB MISS):         0 
cpu0_L1I AVERAGE MISS LATENCY: 24.0042 cycles
cpu0_ITLB TOTAL       ACCESS:   33620300  HIT:   31629230  MISS:    1991070  iACCESS:   33620300  iHIT:   31629230  iMISS:    1991070  dACCESS:          0  dHIT:          0  dMISS:          0  itACCESS:          0  itHIT:          0  itMISS:          0  dtACCESS:          0  dtHIT:          0  dtMISS:          0
cpu0_ITLB LOAD         ACCESS:   33620300  HIT:   31629230  MISS:    1991070  iACCESS:   33620300  iHIT:   31629230  iMISS:    1991070  dACCESS:          0  dHIT:          0  dMISS:          0  itACCESS:          0  itHIT:          0  itMISS:          0  dtACCESS:          0  dtHIT:          0  dtMISS:          0
cpu0_ITLB RFO          ACCESS:          0  HIT:          0  MISS:          0  iACCESS:          0  iHIT:          0  iMISS:          0  dACCESS:          0  dHIT:          0  dMISS:          0  itACCESS:          0  itHIT:          0  itMISS:          0  dtACCESS:          0  dtHIT:          0  dtMISS:          0
cpu0_ITLB PREFETCH     ACCESS:          0  HIT:          0  MISS:          0  iACCESS:          0  iHIT:          0  iMISS:          0  dACCESS:          0  dHIT:          0  dMISS:          0  itACCESS:          0  itHIT:          0  itMISS:          0  dtACCESS:          0  dtHIT:          0  dtMISS:          0
cpu0_ITLB WRITE        ACCESS:          0  HIT:          0  MISS:          0  iACCESS:          0  iHIT:          0  iMISS:          0  dACCESS:          0  dHIT:          0  dMISS:          0  itACCESS:          0  itHIT:          0  itMISS:          0  dtACCESS:          0  dtHIT:          0  dtMISS:          0
cpu0_ITLB TRANSLATION  ACCESS:          0  HIT:          0  MISS:          0  iACCESS:          0  iHIT:          0  iMISS:          0  dACCESS:          0  dHIT:          0  dMISS:          0  itACCESS:          0  itHIT:          0  itMISS:          0  dtACCESS:          0  dtHIT:          0  dtMISS:          0
cpu0_ITLB PREFETCH  REQUESTED:          0  ISSUED:          0  CROSSED:          0  USEFUL:     349241  USELESS:      71063
cpu0_ITLB AVERAGE iMISS LATENCY: 6.65648 cycles
cpu0_ITLB AVERAGE dMISS LATENCY: 0 cycles
cpu0_ITLB AVERAGE itMISS LATENCY: 0 cycles
cpu0_ITLB AVERAGE dtMISS LATENCY: 0 cycles
cpu0_ITLB PAGE CROSSINGS (TLB HIT):         0 
cpu0_ITLB PAGE CROSSINGS (TLB MISS):         0 
cpu0_ITLB AVERAGE MISS LATENCY: 6.65648 cycles
cpu0_DTLB TOTAL       ACCESS:   30745618  HIT:   24762002  MISS:    5983616  iACCESS:          0  iHIT:          0  iMISS:          0  dACCESS:   30745618  dHIT:   24762002  dMISS:    5983616  itACCESS:          0  itHIT:          0  itMISS:          0  dtACCESS:          0  dtHIT:          0  dtMISS:          0
cpu0_DTLB LOAD         ACCESS:   30745618  HIT:   24762002  MISS:    5983616  iACCESS:          0  iHIT:          0  iMISS:          0  dACCESS:   30745618  dHIT:   24762002  dMISS:    5983616  itACCESS:          0  itHIT:          0  itMISS:          0  dtACCESS:          0  dtHIT:          0  dtMISS:          0
cpu0_DTLB RFO          ACCESS:          0  HIT:          0  MISS:          0  iACCESS:          0  iHIT:          0  iMISS:          0  dACCESS:          0  dHIT:          0  dMISS:          0  itACCESS:          0  itHIT:          0  itMISS:          0  dtACCESS:          0  dtHIT:          0  dtMISS:          0
cpu0_DTLB PREFETCH     ACCESS:          0  HIT:          0  MISS:          0  iACCESS:          0  iHIT:          0  iMISS:          0  dACCESS:          0  dHIT:          0  dMISS:          0  itACCESS:          0  itHIT:          0  itMISS:          0  dtACCESS:          0  dtHIT:          0  dtMISS:          0
cpu0_DTLB WRITE        ACCESS:          0  HIT:          0  MISS:          0  iACCESS:          0  iHIT:          0  iMISS:          0  dACCESS:          0  dHIT:          0  dMISS:          0  itACCESS:          0  itHIT:          0  itMISS:          0  dtACCESS:          0  dtHIT:          0  dtMISS:          0
cpu0_DTLB TRANSLATION  ACCESS:          0  HIT:          0  MISS:          0  iACCESS:          0  iHIT:          0  iMISS:          0  dACCESS:          0  dHIT:          0  dMISS:          0  itACCESS:          0  itHIT:          0  itMISS:          0  dtACCESS:          0  dtHIT:          0  dtMISS:          0
cpu0_DTLB PREFETCH  REQUESTED:          0  ISSUED:          0  CROSSED:          0  USEFUL:          0  USELESS:          0
cpu0_DTLB AVERAGE iMISS LATENCY: 0 cycles
cpu0_DTLB AVERAGE dMISS LATENCY: 15.5962 cycles
cpu0_DTLB AVERAGE itMISS LATENCY: 0 cycles
cpu0_DTLB AVERAGE dtMISS LATENCY: 0 cycles
cpu0_DTLB PAGE CROSSINGS (TLB HIT):         0 
cpu0_DTLB PAGE CROSSINGS (TLB MISS):         0 
cpu0_DTLB AVERAGE MISS LATENCY: 15.5962 cycles
cpu0_STLB TOTAL       ACCESS:    3539141  HIT:    3229103  MISS:     310038  iACCESS:     420311  iHIT:     367628  iMISS:      52683  dACCESS:    3118830  dHIT:    2861475  dMISS:     257355  itACCESS:          0  itHIT:          0  itMISS:          0  dtACCESS:          0  dtHIT:          0  dtMISS:          0
cpu0_STLB LOAD         ACCESS:    3539141  HIT:    3229103  MISS:     310038  iACCESS:     420311  iHIT:     367628  iMISS:      52683  dACCESS:    3118830  dHIT:    2861475  dMISS:     257355  itACCESS:          0  itHIT:          0  itMISS:          0  dtACCESS:          0  dtHIT:          0  dtMISS:          0
cpu0_STLB RFO          ACCESS:          0  HIT:          0  MISS:          0  iACCESS:          0  iHIT:          0  iMISS:          0  dACCESS:          0  dHIT:          0  dMISS:          0  itACCESS:          0  itHIT:          0  itMISS:          0  dtACCESS:          0  dtHIT:          0  dtMISS:          0
cpu0_STLB PREFETCH     ACCESS:          0  HIT:          0  MISS:          0  iACCESS:          0  iHIT:          0  iMISS:          0  dACCESS:          0  dHIT:          0  dMISS:          0  itACCESS:          0  itHIT:          0  itMISS:          0  dtACCESS:          0  dtHIT:          0  dtMISS:          0
cpu0_STLB WRITE        ACCESS:          0  HIT:          0  MISS:          0  iACCESS:          0  iHIT:          0  iMISS:          0  dACCESS:          0  dHIT:          0  dMISS:          0  itACCESS:          0  itHIT:          0  itMISS:          0  dtACCESS:          0  dtHIT:          0  dtMISS:          0
cpu0_STLB TRANSLATION  ACCESS:          0  HIT:          0  MISS:          0  iACCESS:          0  iHIT:          0  iMISS:          0  dACCESS:          0  dHIT:          0  dMISS:          0  itACCESS:          0  itHIT:          0  itMISS:          0  dtACCESS:          0  dtHIT:          0  dtMISS:          0
cpu0_STLB PREFETCH  REQUESTED:          0  ISSUED:          0  CROSSED:          0  USEFUL:          0  USELESS:          0
cpu0_STLB AVERAGE iMISS LATENCY: 32.0804 cycles
cpu0_STLB AVERAGE dMISS LATENCY: 219.457 cycles
cpu0_STLB AVERAGE itMISS LATENCY: 0 cycles
cpu0_STLB AVERAGE dtMISS LATENCY: 0 cycles
cpu0_STLB PAGE CROSSINGS (TLB HIT):         0 
cpu0_STLB PAGE CROSSINGS (TLB MISS):         0 
cpu0_STLB AVERAGE MISS LATENCY: 251.537 cycles
cpu0_L1D TOTAL       ACCESS:   47867918  HIT:   39626232  MISS:    8241686  iACCESS:          0  iHIT:          0  iMISS:          0  dACCESS:   47391163  dHIT:   39603839  dMISS:    7787324  itACCESS:      61738  itHIT:       4681  itMISS:      57057  dtACCESS:     415017  dtHIT:      17712  dtMISS:     397305
cpu0_L1D LOAD         ACCESS:   22729896  HIT:   18334792  MISS:    4395104  iACCESS:          0  iHIT:          0  iMISS:          0  dACCESS:   22729896  dHIT:   18334792  dMISS:    4395104  itACCESS:          0  itHIT:          0  itMISS:          0  dtACCESS:          0  dtHIT:          0  dtMISS:          0
cpu0_L1D RFO          ACCESS:          0  HIT:          0  MISS:          0  iACCESS:          0  iHIT:          0  iMISS:          0  dACCESS:          0  dHIT:          0  dMISS:          0  itACCESS:          0  itHIT:          0  itMISS:          0  dtACCESS:          0  dtHIT:          0  dtMISS:          0
cpu0_L1D PREFETCH     ACCESS:   14853658  HIT:   12021020  MISS:    2832638  iACCESS:          0  iHIT:          0  iMISS:          0  dACCESS:   14853658  dHIT:   12021020  dMISS:    2832638  itACCESS:          0  itHIT:          0  itMISS:          0  dtACCESS:          0  dtHIT:          0  dtMISS:          0
cpu0_L1D WRITE        ACCESS:    9807609  HIT:    9248027  MISS:     559582  iACCESS:          0  iHIT:          0  iMISS:          0  dACCESS:    9807609  dHIT:    9248027  dMISS:     559582  itACCESS:          0  itHIT:          0  itMISS:          0  dtACCESS:          0  dtHIT:          0  dtMISS:          0
cpu0_L1D TRANSLATION  ACCESS:     476755  HIT:      22393  MISS:     454362  iACCESS:          0  iHIT:          0  iMISS:          0  dACCESS:          0  dHIT:          0  dMISS:          0  itACCESS:      61738  itHIT:       4681  itMISS:      57057  dtACCESS:     415017  dtHIT:      17712  dtMISS:     397305
cpu0_L1D PREFETCH  REQUESTED:   22729896  ISSUED:   18860853  CROSSED:          0  USEFUL:     340765  USELESS:    1135248
cpu0_L1D AVERAGE iMISS LATENCY: 0 cycles
cpu0_L1D AVERAGE dMISS LATENCY: 33.2606 cycles
cpu0_L1D AVERAGE itMISS LATENCY: 1.13836 cycles
cpu0_L1D AVERAGE dtMISS LATENCY: 7.69207 cycles
cpu0_L1D PAGE CROSSINGS (TLB HIT):         0 
cpu0_L1D PAGE CROSSINGS (TLB MISS):         0 
cpu0_L1D AVERAGE MISS LATENCY: 42.0911 cycles
cpu0_L2C TOTAL       ACCESS:    9949847  HIT:    5779743  MISS:    4170104  iACCESS:    3382766  iHIT:    1964775  iMISS:    1417991  dACCESS:    6140690  dHIT:    3754540  dMISS:    2386150  itACCESS:      56910  itHIT:       8543  itMISS:      48367  dtACCESS:     369481  dtHIT:      51885  dtMISS:     317596
cpu0_L2C LOAD         ACCESS:    3676146  HIT:    2642559  MISS:    1033587  iACCESS:     750420  iHIT:     452947  iMISS:     297473  dACCESS:    2925726  dHIT:    2189612  dMISS:     736114  itACCESS:          0  itHIT:          0  itMISS:          0  dtACCESS:          0  dtHIT:          0  dtMISS:          0
cpu0_L2C RFO          ACCESS:     227585  HIT:     105494  MISS:     122091  iACCESS:          0  iHIT:          0  iMISS:          0  dACCESS:     227585  dHIT:     105494  dMISS:     122091  itACCESS:          0  itHIT:          0  itMISS:          0  dtACCESS:          0  dtHIT:          0  dtMISS:          0
cpu0_L2C PREFETCH     ACCESS:    5291437  HIT:    2662360  MISS:    2629077  iACCESS:    2632346  iHIT:    1511828  iMISS:    1120518  dACCESS:    2659091  dHIT:    1150532  dMISS:    1508559  itACCESS:          0  itHIT:          0  itMISS:          0  dtACCESS:          0  dtHIT:          0  dtMISS:          0
cpu0_L2C WRITE        ACCESS:     328288  HIT:     308902  MISS:      19386  iACCESS:          0  iHIT:          0  iMISS:          0  dACCESS:     328288  dHIT:     308902  dMISS:      19386  itACCESS:          0  itHIT:          0  itMISS:          0  dtACCESS:          0  dtHIT:          0  dtMISS:          0
cpu0_L2C TRANSLATION  ACCESS:     426391  HIT:      60428  MISS:     365963  iACCESS:          0  iHIT:          0  iMISS:          0  dACCESS:          0  dHIT:          0  dMISS:          0  itACCESS:      56910  itHIT:       8543  itMISS:      48367  dtACCESS:     369481  dtHIT:      51885  dtMISS:     317596
cpu0_L2C PREFETCH  REQUESTED:    1397858  ISSUED:    1397813  CROSSED:          0  USEFUL:     323022  USELESS:     298062
cpu0_L2C AVERAGE iMISS LATENCY: 38.0597 cycles
cpu0_L2C AVERAGE dMISS LATENCY: 73.4772 cycles
cpu0_L2C AVERAGE itMISS LATENCY: 2.11494 cycles
cpu0_L2C AVERAGE dtMISS LATENCY: 14.3238 cycles
cpu0_L2C PAGE CROSSINGS (TLB HIT):         0 
cpu0_L2C PAGE CROSSINGS (TLB MISS):         0 
cpu0_L2C AVERAGE MISS LATENCY: 127.976 cycles
LLC TOTAL       ACCESS:    4148241  HIT:    1476333  MISS:    2671908  iACCESS:    1339079  iHIT:     498266  iMISS:     840813  dACCESS:    2443199  dHIT:     933360  dMISS:    1509839  itACCESS:      48367  itHIT:       4129  itMISS:      44238  dtACCESS:     317596  dtHIT:      40578  dtMISS:     277018
LLC LOAD         ACCESS:    1026874  HIT:     413816  MISS:     613058  iACCESS:     296482  iHIT:     119122  iMISS:     177360  dACCESS:     730392  dHIT:     294694  dMISS:     435698  itACCESS:          0  itHIT:          0  itMISS:          0  dtACCESS:          0  dtHIT:          0  dtMISS:          0
LLC RFO          ACCESS:     122077  HIT:      42489  MISS:      79588  iACCESS:          0  iHIT:          0  iMISS:          0  dACCESS:     122077  dHIT:      42489  dMISS:      79588  itACCESS:          0  itHIT:          0  itMISS:          0  dtACCESS:          0  dtHIT:          0  dtMISS:          0
LLC PREFETCH     ACCESS:    2442694  HIT:     793592  MISS:    1649102  iACCESS:    1042597  iHIT:     379144  iMISS:     663453  dACCESS:    1400097  dHIT:     414448  dMISS:     985649  itACCESS:          0  itHIT:          0  itMISS:          0  dtACCESS:          0  dtHIT:          0  dtMISS:          0
LLC WRITE        ACCESS:     190633  HIT:     181729  MISS:       8904  iACCESS:          0  iHIT:          0  iMISS:          0  dACCESS:     190633  dHIT:     181729  dMISS:       8904  itACCESS:          0  itHIT:          0  itMISS:          0  dtACCESS:          0  dtHIT:          0  dtMISS:          0
LLC TRANSLATION  ACCESS:     365963  HIT:      44707  MISS:     321256  iACCESS:          0  iHIT:          0  iMISS:          0  dACCESS:          0  dHIT:          0  dMISS:          0  itACCESS:      48367  itHIT:       4129  itMISS:      44238  dtACCESS:     317596  dtHIT:      40578  dtMISS:     277018
LLC PREFETCH  REQUESTED:          0  ISSUED:          0  CROSSED:          0  USEFUL:          0  USELESS:          0
LLC AVERAGE iMISS LATENCY: 49.5582 cycles
LLC AVERAGE dMISS LATENCY: 98.9514 cycles
LLC AVERAGE itMISS LATENCY: 2.94194 cycles
LLC AVERAGE dtMISS LATENCY: 20.007 cycles
LLC PAGE CROSSINGS (TLB HIT):         0 
LLC PAGE CROSSINGS (TLB MISS):         0 
LLC AVERAGE MISS LATENCY: 171.459 cycles

PageTableWalker TOTAL       ACCESS:     177789  
PageTableWalker AVERAGE LATENCY: 6.72792 cycles
PageTableWalker TOTAL LATENCY: 1196150 cycles

DRAM Statistics
Channel 0
 RQ ROW_BUFFER_HIT:     580719
  ROW_BUFFER_MISS:    2065430
 AVG DBUS CONGESTED CYCLE:    3.64847
 WQ ROW_BUFFER_HIT:      57394
  ROW_BUFFER_MISS:      49026  FULL:          0

