last_page:0x200000000000000
VMEM_RES_CAP:0x100000
PAGE_SIZE:4096
LOG2_PAGE_SIZE:12
LOG2_PAGE_TABLE_SIZE:9
page_table_levels:5
WARNING: physical memory size is smaller than virtual memory size
FDiP enabled with aggresivity 16

*** ChampSim Multicore Out-of-Order Simulator ***

Warmup Instructions: 50000000
Simulation Instructions: 100000000
Number of CPUs: 1
Small page size: 4096
Large page size: 2097152

CPU 0 Bimodal branch predictor
Basic BTB sets: 1024 ways: 8 indirect buffer size: 4096 RAS size: 64
Instruction page size distrubution: 0
Loading instruction page size distribution from /home/bsc/bsc018186/scratch/itp_asplos25_AE/dump/smt_srv537_ap_srv727_ap_1024i.pdst
Data page size distrubution: 0
Loading data page size distribution from /home/bsc/bsc018186/scratch/itp_asplos25_AE/dump/smt_srv537_ap_srv727_ap_1024i.pdst
cpu0_L2C IP-based stride prefetcher
cpu0_L2C is using xPTP/LRU
	TLB_LOWER_STRESS_THRESHOLD:1
	TLB_UPPER_STRESS_THRESHOLD:4
	MIN_EVICTION_POSITION:4
cpu0_L1D next line prefetcher
cpu0_STLB using iTP with max lru@8
cpu0_STLB using iTP with instr@0 and data@2
Init sat counter with 3 bits (max:50).
cpu0_L1I next line prefetcher
Off-chip DRAM Size: 4 GiB Channels: 1 Width: 64-bit Data Rate: 3200 MT/s
Heartbeat CPU 0 instructions: 10000002 cycles: 2500464 heartbeat IPC: 3.99926 cumulative IPC: 3.99926 (Simulation time: 0 hr 0 min 37 sec) 
Heartbeat CPU 0 instructions: 20000000 cycles: 5000536 heartbeat IPC: 3.99989 cumulative IPC: 3.99958 (Simulation time: 0 hr 1 min 16 sec) 
Heartbeat CPU 0 instructions: 30000003 cycles: 7500575 heartbeat IPC: 3.99994 cumulative IPC: 3.9997 (Simulation time: 0 hr 1 min 55 sec) 
Heartbeat CPU 0 instructions: 40000003 cycles: 10000735 heartbeat IPC: 3.99975 cumulative IPC: 3.99971 (Simulation time: 0 hr 2 min 35 sec) 
Heartbeat CPU 0 instructions: 50000002 cycles: 12500909 heartbeat IPC: 3.99973 cumulative IPC: 3.99971 (Simulation time: 0 hr 3 min 15 sec) 
Warmup finished CPU 0 instructions: 50000002 cycles: 12500910 cumulative IPC: 3.99971 (Simulation time: 0 hr 3 min 15 sec) 

Warmup complete CPU 0 instructions: 50000002 cycles: 12500910 (Simulation time: 0 hr 3 min 15 sec) 

Heartbeat CPU 0 instructions: 60000004 cycles: 39779416 heartbeat IPC: 0.36659 cumulative IPC: 0.36659 (Simulation time: 0 hr 4 min 35 sec) 
Heartbeat CPU 0 instructions: 70000001 cycles: 66633319 heartbeat IPC: 0.372386 cumulative IPC: 0.369465 (Simulation time: 0 hr 5 min 55 sec) 
Heartbeat CPU 0 instructions: 80000000 cycles: 93832718 heartbeat IPC: 0.367656 cumulative IPC: 0.36886 (Simulation time: 0 hr 7 min 15 sec) 
Heartbeat CPU 0 instructions: 90000000 cycles: 120340326 heartbeat IPC: 0.377251 cumulative IPC: 0.370922 (Simulation time: 0 hr 8 min 34 sec) 
Heartbeat CPU 0 instructions: 100000003 cycles: 147353912 heartbeat IPC: 0.370185 cumulative IPC: 0.370775 (Simulation time: 0 hr 9 min 54 sec) 
Heartbeat CPU 0 instructions: 110000000 cycles: 175557584 heartbeat IPC: 0.354564 cumulative IPC: 0.367971 (Simulation time: 0 hr 11 min 16 sec) 
Heartbeat CPU 0 instructions: 120000002 cycles: 202250972 heartbeat IPC: 0.374625 cumulative IPC: 0.368907 (Simulation time: 0 hr 12 min 36 sec) 
Heartbeat CPU 0 instructions: 130000003 cycles: 228742576 heartbeat IPC: 0.377479 cumulative IPC: 0.369957 (Simulation time: 0 hr 13 min 55 sec) 
Heartbeat CPU 0 instructions: 140000000 cycles: 256026404 heartbeat IPC: 0.366518 cumulative IPC: 0.369572 (Simulation time: 0 hr 15 min 16 sec) 
Heartbeat CPU 0 instructions: 150000001 cycles: 283028062 heartbeat IPC: 0.370348 cumulative IPC: 0.369649 (Simulation time: 0 hr 16 min 36 sec) 
Simulation finished CPU 0 instructions: 100000004 cycles: 270527154 cumulative IPC: 0.369649 (Simulation time: 0 hr 16 min 36 sec) 

Simulation complete CPU 0 instructions: 100000004 cycles: 270527154 (Simulation time: 0 hr 16 min 36 sec) 


ChampSim completed all CPUs

Saving instructions large page distribution to /home/bsc/bsc018186/scratch/itp_asplos25_AE/dump/smt_srv537_ap_srv727_ap_1024i.pdst...
Saving data large page distribution to /home/bsc/bsc018186/scratch/itp_asplos25_AE/dump/smt_srv537_ap_srv727_ap_1024i.pdst...
=== Simulation ===
CPU 0 runs /gpfs/projects/bsc18/MN4/bsc18/romol/ChampSim/traces/qualcomm_srv/smt_srv537_ap_srv727_ap_1024i.champsimtrace.xz

Region of Interest Statistics

CPU 0 cumulative IPC: 0.369649 instructions: 100000004 cycles: 270527154
CPU 0 Branch Prediction Accuracy: 75.1661% MPKI: 44.8107 Average ROB Occupancy at Mispredict: 10.5368
Branch type MPKI
BRANCH_DIRECT_JUMP: 1.38284
BRANCH_INDIRECT: 23.1163
BRANCH_CONDITIONAL: 13.0864
BRANCH_DIRECT_CALL: 2.67873
BRANCH_INDIRECT_CALL: 1.01904
BRANCH_RETURN: 3.52743

Instructions large pages: 0
Instructions small pages: 10200
Large page distribution for instructions: 0%

Data large pages: 0
Data small pages: 8763
Large page distribution for data: 0%

cpu0_L1I TOTAL       ACCESS:   39410003  HIT:   30391938  MISS:    9018065  iACCESS:   39410003  iHIT:   30391938  iMISS:    9018065  dACCESS:          0  dHIT:          0  dMISS:          0  itACCESS:          0  itHIT:          0  itMISS:          0  dtACCESS:          0  dtHIT:          0  dtMISS:          0
cpu0_L1I LOAD         ACCESS:   11777575  HIT:    9325389  MISS:    2452186  iACCESS:   11777575  iHIT:    9325389  iMISS:    2452186  dACCESS:          0  dHIT:          0  dMISS:          0  itACCESS:          0  itHIT:          0  itMISS:          0  dtACCESS:          0  dtHIT:          0  dtMISS:          0
cpu0_L1I RFO          ACCESS:          0  HIT:          0  MISS:          0  iACCESS:          0  iHIT:          0  iMISS:          0  dACCESS:          0  dHIT:          0  dMISS:          0  itACCESS:          0  itHIT:          0  itMISS:          0  dtACCESS:          0  dtHIT:          0  dtMISS:          0
cpu0_L1I PREFETCH     ACCESS:   27632428  HIT:   21066549  MISS:    6565879  iACCESS:   27632428  iHIT:   21066549  iMISS:    6565879  dACCESS:          0  dHIT:          0  dMISS:          0  itACCESS:          0  itHIT:          0  itMISS:          0  dtACCESS:          0  dtHIT:          0  dtMISS:          0
cpu0_L1I WRITE        ACCESS:          0  HIT:          0  MISS:          0  iACCESS:          0  iHIT:          0  iMISS:          0  dACCESS:          0  dHIT:          0  dMISS:          0  itACCESS:          0  itHIT:          0  itMISS:          0  dtACCESS:          0  dtHIT:          0  dtMISS:          0
cpu0_L1I TRANSLATION  ACCESS:          0  HIT:          0  MISS:          0  iACCESS:          0  iHIT:          0  iMISS:          0  dACCESS:          0  dHIT:          0  dMISS:          0  itACCESS:          0  itHIT:          0  itMISS:          0  dtACCESS:          0  dtHIT:          0  dtMISS:          0
cpu0_L1I PREFETCH  REQUESTED:   30346211  ISSUED:   30345597  CROSSED:          0  USEFUL:    2225907  USELESS:     768115
cpu0_L1I AVERAGE iMISS LATENCY: 22.7225 cycles
cpu0_L1I AVERAGE dMISS LATENCY: 0 cycles
cpu0_L1I AVERAGE itMISS LATENCY: 0 cycles
cpu0_L1I AVERAGE dtMISS LATENCY: 0 cycles
cpu0_L1I PAGE CROSSINGS (TLB HIT):         0 
cpu0_L1I PAGE CROSSINGS (TLB MISS):         0 
cpu0_L1I AVERAGE MISS LATENCY: 22.7225 cycles
cpu0_ITLB TOTAL       ACCESS:   33283835  HIT:   31042445  MISS:    2241390  iACCESS:   33283835  iHIT:   31042445  iMISS:    2241390  dACCESS:          0  dHIT:          0  dMISS:          0  itACCESS:          0  itHIT:          0  itMISS:          0  dtACCESS:          0  dtHIT:          0  dtMISS:          0
cpu0_ITLB LOAD         ACCESS:   33283835  HIT:   31042445  MISS:    2241390  iACCESS:   33283835  iHIT:   31042445  iMISS:    2241390  dACCESS:          0  dHIT:          0  dMISS:          0  itACCESS:          0  itHIT:          0  itMISS:          0  dtACCESS:          0  dtHIT:          0  dtMISS:          0
cpu0_ITLB RFO          ACCESS:          0  HIT:          0  MISS:          0  iACCESS:          0  iHIT:          0  iMISS:          0  dACCESS:          0  dHIT:          0  dMISS:          0  itACCESS:          0  itHIT:          0  itMISS:          0  dtACCESS:          0  dtHIT:          0  dtMISS:          0
cpu0_ITLB PREFETCH     ACCESS:          0  HIT:          0  MISS:          0  iACCESS:          0  iHIT:          0  iMISS:          0  dACCESS:          0  dHIT:          0  dMISS:          0  itACCESS:          0  itHIT:          0  itMISS:          0  dtACCESS:          0  dtHIT:          0  dtMISS:          0
cpu0_ITLB WRITE        ACCESS:          0  HIT:          0  MISS:          0  iACCESS:          0  iHIT:          0  iMISS:          0  dACCESS:          0  dHIT:          0  dMISS:          0  itACCESS:          0  itHIT:          0  itMISS:          0  dtACCESS:          0  dtHIT:          0  dtMISS:          0
cpu0_ITLB TRANSLATION  ACCESS:          0  HIT:          0  MISS:          0  iACCESS:          0  iHIT:          0  iMISS:          0  dACCESS:          0  dHIT:          0  dMISS:          0  itACCESS:          0  itHIT:          0  itMISS:          0  dtACCESS:          0  dtHIT:          0  dtMISS:          0
cpu0_ITLB PREFETCH  REQUESTED:          0  ISSUED:          0  CROSSED:          0  USEFUL:     392491  USELESS:      79639
cpu0_ITLB AVERAGE iMISS LATENCY: 5.99558 cycles
cpu0_ITLB AVERAGE dMISS LATENCY: 0 cycles
cpu0_ITLB AVERAGE itMISS LATENCY: 0 cycles
cpu0_ITLB AVERAGE dtMISS LATENCY: 0 cycles
cpu0_ITLB PAGE CROSSINGS (TLB HIT):         0 
cpu0_ITLB PAGE CROSSINGS (TLB MISS):         0 
cpu0_ITLB AVERAGE MISS LATENCY: 5.99558 cycles
cpu0_DTLB TOTAL       ACCESS:   28876073  HIT:   25517522  MISS:    3358551  iACCESS:          0  iHIT:          0  iMISS:          0  dACCESS:   28876073  dHIT:   25517522  dMISS:    3358551  itACCESS:          0  itHIT:          0  itMISS:          0  dtACCESS:          0  dtHIT:          0  dtMISS:          0
cpu0_DTLB LOAD         ACCESS:   28876073  HIT:   25517522  MISS:    3358551  iACCESS:          0  iHIT:          0  iMISS:          0  dACCESS:   28876073  dHIT:   25517522  dMISS:    3358551  itACCESS:          0  itHIT:          0  itMISS:          0  dtACCESS:          0  dtHIT:          0  dtMISS:          0
cpu0_DTLB RFO          ACCESS:          0  HIT:          0  MISS:          0  iACCESS:          0  iHIT:          0  iMISS:          0  dACCESS:          0  dHIT:          0  dMISS:          0  itACCESS:          0  itHIT:          0  itMISS:          0  dtACCESS:          0  dtHIT:          0  dtMISS:          0
cpu0_DTLB PREFETCH     ACCESS:          0  HIT:          0  MISS:          0  iACCESS:          0  iHIT:          0  iMISS:          0  dACCESS:          0  dHIT:          0  dMISS:          0  itACCESS:          0  itHIT:          0  itMISS:          0  dtACCESS:          0  dtHIT:          0  dtMISS:          0
cpu0_DTLB WRITE        ACCESS:          0  HIT:          0  MISS:          0  iACCESS:          0  iHIT:          0  iMISS:          0  dACCESS:          0  dHIT:          0  dMISS:          0  itACCESS:          0  itHIT:          0  itMISS:          0  dtACCESS:          0  dtHIT:          0  dtMISS:          0
cpu0_DTLB TRANSLATION  ACCESS:          0  HIT:          0  MISS:          0  iACCESS:          0  iHIT:          0  iMISS:          0  dACCESS:          0  dHIT:          0  dMISS:          0  itACCESS:          0  itHIT:          0  itMISS:          0  dtACCESS:          0  dtHIT:          0  dtMISS:          0
cpu0_DTLB PREFETCH  REQUESTED:          0  ISSUED:          0  CROSSED:          0  USEFUL:          0  USELESS:          0
cpu0_DTLB AVERAGE iMISS LATENCY: 0 cycles
cpu0_DTLB AVERAGE dMISS LATENCY: 19.5354 cycles
cpu0_DTLB AVERAGE itMISS LATENCY: 0 cycles
cpu0_DTLB AVERAGE dtMISS LATENCY: 0 cycles
cpu0_DTLB PAGE CROSSINGS (TLB HIT):         0 
cpu0_DTLB PAGE CROSSINGS (TLB MISS):         0 
cpu0_DTLB AVERAGE MISS LATENCY: 19.5354 cycles
cpu0_STLB TOTAL       ACCESS:    2411504  HIT:    2046457  MISS:     365047  iACCESS:     472140  iHIT:     412218  iMISS:      59922  dACCESS:    1939364  dHIT:    1634239  dMISS:     305125  itACCESS:          0  itHIT:          0  itMISS:          0  dtACCESS:          0  dtHIT:          0  dtMISS:          0
cpu0_STLB LOAD         ACCESS:    2411504  HIT:    2046457  MISS:     365047  iACCESS:     472140  iHIT:     412218  iMISS:      59922  dACCESS:    1939364  dHIT:    1634239  dMISS:     305125  itACCESS:          0  itHIT:          0  itMISS:          0  dtACCESS:          0  dtHIT:          0  dtMISS:          0
cpu0_STLB RFO          ACCESS:          0  HIT:          0  MISS:          0  iACCESS:          0  iHIT:          0  iMISS:          0  dACCESS:          0  dHIT:          0  dMISS:          0  itACCESS:          0  itHIT:          0  itMISS:          0  dtACCESS:          0  dtHIT:          0  dtMISS:          0
cpu0_STLB PREFETCH     ACCESS:          0  HIT:          0  MISS:          0  iACCESS:          0  iHIT:          0  iMISS:          0  dACCESS:          0  dHIT:          0  dMISS:          0  itACCESS:          0  itHIT:          0  itMISS:          0  dtACCESS:          0  dtHIT:          0  dtMISS:          0
cpu0_STLB WRITE        ACCESS:          0  HIT:          0  MISS:          0  iACCESS:          0  iHIT:          0  iMISS:          0  dACCESS:          0  dHIT:          0  dMISS:          0  itACCESS:          0  itHIT:          0  itMISS:          0  dtACCESS:          0  dtHIT:          0  dtMISS:          0
cpu0_STLB TRANSLATION  ACCESS:          0  HIT:          0  MISS:          0  iACCESS:          0  iHIT:          0  iMISS:          0  dACCESS:          0  dHIT:          0  dMISS:          0  itACCESS:          0  itHIT:          0  itMISS:          0  dtACCESS:          0  dtHIT:          0  dtMISS:          0
cpu0_STLB PREFETCH  REQUESTED:          0  ISSUED:          0  CROSSED:          0  USEFUL:          0  USELESS:          0
cpu0_STLB AVERAGE iMISS LATENCY: 26.64 cycles
cpu0_STLB AVERAGE dMISS LATENCY: 136.918 cycles
cpu0_STLB AVERAGE itMISS LATENCY: 0 cycles
cpu0_STLB AVERAGE dtMISS LATENCY: 0 cycles
cpu0_STLB PAGE CROSSINGS (TLB HIT):         0 
cpu0_STLB PAGE CROSSINGS (TLB MISS):         0 
cpu0_STLB AVERAGE MISS LATENCY: 163.558 cycles
cpu0_L1D TOTAL       ACCESS:   45111477  HIT:   39249381  MISS:    5862096  iACCESS:          0  iHIT:          0  iMISS:          0  dACCESS:   44545262  dHIT:   39222155  dMISS:    5323107  itACCESS:      71430  itHIT:       5528  itMISS:      65902  dtACCESS:     494785  dtHIT:      21698  dtMISS:     473087
cpu0_L1D LOAD         ACCESS:   20334195  HIT:   17939075  MISS:    2395120  iACCESS:          0  iHIT:          0  iMISS:          0  dACCESS:   20334195  dHIT:   17939075  dMISS:    2395120  itACCESS:          0  itHIT:          0  itMISS:          0  dtACCESS:          0  dtHIT:          0  dtMISS:          0
cpu0_L1D RFO          ACCESS:          0  HIT:          0  MISS:          0  iACCESS:          0  iHIT:          0  iMISS:          0  dACCESS:          0  dHIT:          0  dMISS:          0  itACCESS:          0  itHIT:          0  itMISS:          0  dtACCESS:          0  dtHIT:          0  dtMISS:          0
cpu0_L1D PREFETCH     ACCESS:   14033022  HIT:   11682951  MISS:    2350071  iACCESS:          0  iHIT:          0  iMISS:          0  dACCESS:   14033022  dHIT:   11682951  dMISS:    2350071  itACCESS:          0  itHIT:          0  itMISS:          0  dtACCESS:          0  dtHIT:          0  dtMISS:          0
cpu0_L1D WRITE        ACCESS:   10178045  HIT:    9600129  MISS:     577916  iACCESS:          0  iHIT:          0  iMISS:          0  dACCESS:   10178045  dHIT:    9600129  dMISS:     577916  itACCESS:          0  itHIT:          0  itMISS:          0  dtACCESS:          0  dtHIT:          0  dtMISS:          0
cpu0_L1D TRANSLATION  ACCESS:     566215  HIT:      27226  MISS:     538989  iACCESS:          0  iHIT:          0  iMISS:          0  dACCESS:          0  dHIT:          0  dMISS:          0  itACCESS:      71430  itHIT:       5528  itMISS:      65902  dtACCESS:     494785  dtHIT:      21698  dtMISS:     473087
cpu0_L1D PREFETCH  REQUESTED:   20334195  ISSUED:   18428678  CROSSED:          0  USEFUL:     374713  USELESS:     914358
cpu0_L1D AVERAGE iMISS LATENCY: 0 cycles
cpu0_L1D AVERAGE dMISS LATENCY: 47.1642 cycles
cpu0_L1D AVERAGE itMISS LATENCY: 1.55192 cycles
cpu0_L1D AVERAGE dtMISS LATENCY: 7.69192 cycles
cpu0_L1D PAGE CROSSINGS (TLB HIT):         0 
cpu0_L1D PAGE CROSSINGS (TLB MISS):         0 
cpu0_L1D AVERAGE MISS LATENCY: 56.408 cycles
cpu0_L2C TOTAL       ACCESS:    8674425  HIT:    2509028  MISS:    6165397  iACCESS:    3803042  iHIT:    1421804  iMISS:    2381238  dACCESS:    4368200  dHIT:     862172  dMISS:    3506028  itACCESS:      64632  itHIT:      14514  itMISS:      50118  dtACCESS:     438551  dtHIT:     210538  dtMISS:     228013
cpu0_L2C LOAD         ACCESS:    2055130  HIT:     484400  MISS:    1570730  iACCESS:     845897  iHIT:     285789  iMISS:     560108  dACCESS:    1209233  dHIT:     198611  dMISS:    1010622  itACCESS:          0  itHIT:          0  itMISS:          0  dtACCESS:          0  dtHIT:          0  dtMISS:          0
cpu0_L2C RFO          ACCESS:     215143  HIT:      30981  MISS:     184162  iACCESS:          0  iHIT:          0  iMISS:          0  dACCESS:     215143  dHIT:      30981  dMISS:     184162  itACCESS:          0  itHIT:          0  itMISS:          0  dtACCESS:          0  dtHIT:          0  dtMISS:          0
cpu0_L2C PREFETCH     ACCESS:    5554238  HIT:    1642043  MISS:    3912195  iACCESS:    2957145  iHIT:    1136015  iMISS:    1821130  dACCESS:    2597093  dHIT:     506028  dMISS:    2091065  itACCESS:          0  itHIT:          0  itMISS:          0  dtACCESS:          0  dtHIT:          0  dtMISS:          0
cpu0_L2C WRITE        ACCESS:     346731  HIT:     126552  MISS:     220179  iACCESS:          0  iHIT:          0  iMISS:          0  dACCESS:     346731  dHIT:     126552  dMISS:     220179  itACCESS:          0  itHIT:          0  itMISS:          0  dtACCESS:          0  dtHIT:          0  dtMISS:          0
cpu0_L2C TRANSLATION  ACCESS:     503183  HIT:     225052  MISS:     278131  iACCESS:          0  iHIT:          0  iMISS:          0  dACCESS:          0  dHIT:          0  dMISS:          0  itACCESS:      64632  itHIT:      14514  itMISS:      50118  dtACCESS:     438551  dtHIT:     210538  dtMISS:     228013
cpu0_L2C PREFETCH  REQUESTED:    1552579  ISSUED:    1552576  CROSSED:          0  USEFUL:     387278  USELESS:     448720
cpu0_L2C AVERAGE iMISS LATENCY: 28.008 cycles
cpu0_L2C AVERAGE dMISS LATENCY: 55.2945 cycles
cpu0_L2C AVERAGE itMISS LATENCY: 1.37277 cycles
cpu0_L2C AVERAGE dtMISS LATENCY: 6.63314 cycles
cpu0_L2C PAGE CROSSINGS (TLB HIT):         0 
cpu0_L2C PAGE CROSSINGS (TLB MISS):         0 
cpu0_L2C AVERAGE MISS LATENCY: 91.3084 cycles
LLC TOTAL       ACCESS:    6003288  HIT:    3365933  MISS:    2637355  iACCESS:    2289823  iHIT:    1477747  iMISS:     812076  dACCESS:    3435334  dHIT:    1842497  dMISS:    1592837  itACCESS:      50118  itHIT:       8281  itMISS:      41837  dtACCESS:     228013  dtHIT:      37408  dtMISS:     190605
LLC LOAD         ACCESS:    1563293  HIT:     933527  MISS:     629766  iACCESS:     558846  iHIT:     389080  iMISS:     169766  dACCESS:    1004447  dHIT:     544447  dMISS:     460000  itACCESS:          0  itHIT:          0  itMISS:          0  dtACCESS:          0  dtHIT:          0  dtMISS:          0
LLC RFO          ACCESS:     184137  HIT:      92357  MISS:      91780  iACCESS:          0  iHIT:          0  iMISS:          0  dACCESS:     184137  dHIT:      92357  dMISS:      91780  itACCESS:          0  itHIT:          0  itMISS:          0  dtACCESS:          0  dtHIT:          0  dtMISS:          0
LLC PREFETCH     ACCESS:    3697526  HIT:    2018700  MISS:    1678826  iACCESS:    1730977  iHIT:    1088667  iMISS:     642310  dACCESS:    1966549  dHIT:     930033  dMISS:    1036516  itACCESS:          0  itHIT:          0  itMISS:          0  dtACCESS:          0  dtHIT:          0  dtMISS:          0
LLC WRITE        ACCESS:     280201  HIT:     275660  MISS:       4541  iACCESS:          0  iHIT:          0  iMISS:          0  dACCESS:     280201  dHIT:     275660  dMISS:       4541  itACCESS:          0  itHIT:          0  itMISS:          0  dtACCESS:          0  dtHIT:          0  dtMISS:          0
LLC TRANSLATION  ACCESS:     278131  HIT:      45689  MISS:     232442  iACCESS:          0  iHIT:          0  iMISS:          0  dACCESS:          0  dHIT:          0  dMISS:          0  itACCESS:      50118  itHIT:       8281  itMISS:      41837  dtACCESS:     228013  dtHIT:      37408  dtMISS:     190605
LLC PREFETCH  REQUESTED:          0  ISSUED:          0  CROSSED:          0  USEFUL:          0  USELESS:          0
LLC AVERAGE iMISS LATENCY: 48.5842 cycles
LLC AVERAGE dMISS LATENCY: 106.893 cycles
LLC AVERAGE itMISS LATENCY: 2.83366 cycles
LLC AVERAGE dtMISS LATENCY: 13.7987 cycles
LLC PAGE CROSSINGS (TLB HIT):         0 
LLC PAGE CROSSINGS (TLB MISS):         0 
LLC AVERAGE MISS LATENCY: 172.109 cycles

PageTableWalker TOTAL       ACCESS:     178075  
PageTableWalker AVERAGE LATENCY: 6.0274 cycles
PageTableWalker TOTAL LATENCY: 1073328 cycles

DRAM Statistics
Channel 0
 RQ ROW_BUFFER_HIT:     574262
  ROW_BUFFER_MISS:    2039429
 AVG DBUS CONGESTED CYCLE:    3.65798
 WQ ROW_BUFFER_HIT:      65946
  ROW_BUFFER_MISS:      66831  FULL:          0

