last_page:0x200000000000000
VMEM_RES_CAP:0x100000
PAGE_SIZE:4096
LOG2_PAGE_SIZE:12
LOG2_PAGE_TABLE_SIZE:9
page_table_levels:5
WARNING: physical memory size is smaller than virtual memory size
FDiP enabled with aggresivity 16

*** ChampSim Multicore Out-of-Order Simulator ***

Warmup Instructions: 50000000
Simulation Instructions: 100000000
Number of CPUs: 1
Small page size: 4096
Large page size: 2097152

CPU 0 Bimodal branch predictor
Basic BTB sets: 1024 ways: 8 indirect buffer size: 4096 RAS size: 64
Instruction page size distrubution: 0
Loading instruction page size distribution from /home/bsc/bsc018186/scratch/itp_asplos25_AE/dump/smt_srv540_ap_srv346_ap_1024i.pdst
Data page size distrubution: 0
Loading data page size distribution from /home/bsc/bsc018186/scratch/itp_asplos25_AE/dump/smt_srv540_ap_srv346_ap_1024i.pdst
cpu0_L2C IP-based stride prefetcher
cpu0_L1D next line prefetcher
cpu0_L1I next line prefetcher
Off-chip DRAM Size: 4 GiB Channels: 1 Width: 64-bit Data Rate: 3200 MT/s
Heartbeat CPU 0 instructions: 10000001 cycles: 2500498 heartbeat IPC: 3.99921 cumulative IPC: 3.99921 (Simulation time: 0 hr 0 min 43 sec) 
Heartbeat CPU 0 instructions: 20000001 cycles: 5000777 heartbeat IPC: 3.99956 cumulative IPC: 3.99938 (Simulation time: 0 hr 1 min 25 sec) 
Heartbeat CPU 0 instructions: 30000001 cycles: 7501227 heartbeat IPC: 3.99929 cumulative IPC: 3.99935 (Simulation time: 0 hr 2 min 6 sec) 
Heartbeat CPU 0 instructions: 40000000 cycles: 10001470 heartbeat IPC: 3.99962 cumulative IPC: 3.99942 (Simulation time: 0 hr 2 min 49 sec) 
Heartbeat CPU 0 instructions: 50000001 cycles: 12501647 heartbeat IPC: 3.99972 cumulative IPC: 3.99948 (Simulation time: 0 hr 3 min 35 sec) 
Warmup finished CPU 0 instructions: 50000001 cycles: 12501648 cumulative IPC: 3.99948 (Simulation time: 0 hr 3 min 35 sec) 

Warmup complete CPU 0 instructions: 50000001 cycles: 12501648 (Simulation time: 0 hr 3 min 35 sec) 

Heartbeat CPU 0 instructions: 60000000 cycles: 41383002 heartbeat IPC: 0.346245 cumulative IPC: 0.346245 (Simulation time: 0 hr 5 min 2 sec) 
Heartbeat CPU 0 instructions: 70000003 cycles: 69637342 heartbeat IPC: 0.353929 cumulative IPC: 0.350044 (Simulation time: 0 hr 6 min 27 sec) 
Heartbeat CPU 0 instructions: 80000002 cycles: 98933900 heartbeat IPC: 0.341337 cumulative IPC: 0.347093 (Simulation time: 0 hr 7 min 53 sec) 
Heartbeat CPU 0 instructions: 90000000 cycles: 126847957 heartbeat IPC: 0.358243 cumulative IPC: 0.349815 (Simulation time: 0 hr 9 min 17 sec) 
Heartbeat CPU 0 instructions: 100000002 cycles: 156397852 heartbeat IPC: 0.338411 cumulative IPC: 0.347473 (Simulation time: 0 hr 10 min 45 sec) 
Heartbeat CPU 0 instructions: 110000002 cycles: 184941759 heartbeat IPC: 0.350338 cumulative IPC: 0.347947 (Simulation time: 0 hr 12 min 11 sec) 
Heartbeat CPU 0 instructions: 120000000 cycles: 213169605 heartbeat IPC: 0.354261 cumulative IPC: 0.348835 (Simulation time: 0 hr 13 min 39 sec) 
Heartbeat CPU 0 instructions: 130000002 cycles: 241807691 heartbeat IPC: 0.349186 cumulative IPC: 0.348879 (Simulation time: 0 hr 15 min 11 sec) 
Heartbeat CPU 0 instructions: 140000002 cycles: 270585869 heartbeat IPC: 0.347486 cumulative IPC: 0.348724 (Simulation time: 0 hr 16 min 42 sec) 
Heartbeat CPU 0 instructions: 150000001 cycles: 298168894 heartbeat IPC: 0.362542 cumulative IPC: 0.350058 (Simulation time: 0 hr 18 min 9 sec) 
Simulation finished CPU 0 instructions: 100000000 cycles: 285667247 cumulative IPC: 0.350058 (Simulation time: 0 hr 18 min 9 sec) 

Simulation complete CPU 0 instructions: 100000000 cycles: 285667247 (Simulation time: 0 hr 18 min 9 sec) 


ChampSim completed all CPUs

Saving instructions large page distribution to /home/bsc/bsc018186/scratch/itp_asplos25_AE/dump/smt_srv540_ap_srv346_ap_1024i.pdst...
Saving data large page distribution to /home/bsc/bsc018186/scratch/itp_asplos25_AE/dump/smt_srv540_ap_srv346_ap_1024i.pdst...
=== Simulation ===
CPU 0 runs /gpfs/projects/bsc18/MN4/bsc18/romol/ChampSim/traces/qualcomm_srv/smt_srv540_ap_srv346_ap_1024i.champsimtrace.xz

Region of Interest Statistics

CPU 0 cumulative IPC: 0.350058 instructions: 100000000 cycles: 285667247
CPU 0 Branch Prediction Accuracy: 76.1538% MPKI: 42.8721 Average ROB Occupancy at Mispredict: 11.4838
Branch type MPKI
BRANCH_DIRECT_JUMP: 1.27547
BRANCH_INDIRECT: 22.3244
BRANCH_CONDITIONAL: 12.4761
BRANCH_DIRECT_CALL: 2.46311
BRANCH_INDIRECT_CALL: 0.920321
BRANCH_RETURN: 3.41271

Instructions large pages: 0
Instructions small pages: 12840
Large page distribution for instructions: 0%

Data large pages: 0
Data small pages: 11591
Large page distribution for data: 0%

cpu0_L1I TOTAL       ACCESS:   38852792  HIT:   30260582  MISS:    8592210  iACCESS:   38852792  iHIT:   30260582  iMISS:    8592210  dACCESS:          0  dHIT:          0  dMISS:          0  itACCESS:          0  itHIT:          0  itMISS:          0  dtACCESS:          0  dtHIT:          0  dtMISS:          0
cpu0_L1I LOAD         ACCESS:   11665944  HIT:    9319488  MISS:    2346456  iACCESS:   11665944  iHIT:    9319488  iMISS:    2346456  dACCESS:          0  dHIT:          0  dMISS:          0  itACCESS:          0  itHIT:          0  itMISS:          0  dtACCESS:          0  dtHIT:          0  dtMISS:          0
cpu0_L1I RFO          ACCESS:          0  HIT:          0  MISS:          0  iACCESS:          0  iHIT:          0  iMISS:          0  dACCESS:          0  dHIT:          0  dMISS:          0  itACCESS:          0  itHIT:          0  itMISS:          0  dtACCESS:          0  dtHIT:          0  dtMISS:          0
cpu0_L1I PREFETCH     ACCESS:   27186848  HIT:   20941094  MISS:    6245754  iACCESS:   27186848  iHIT:   20941094  iMISS:    6245754  dACCESS:          0  dHIT:          0  dMISS:          0  itACCESS:          0  itHIT:          0  itMISS:          0  dtACCESS:          0  dtHIT:          0  dtMISS:          0
cpu0_L1I WRITE        ACCESS:          0  HIT:          0  MISS:          0  iACCESS:          0  iHIT:          0  iMISS:          0  dACCESS:          0  dHIT:          0  dMISS:          0  itACCESS:          0  itHIT:          0  itMISS:          0  dtACCESS:          0  dtHIT:          0  dtMISS:          0
cpu0_L1I TRANSLATION  ACCESS:          0  HIT:          0  MISS:          0  iACCESS:          0  iHIT:          0  iMISS:          0  dACCESS:          0  dHIT:          0  dMISS:          0  itACCESS:          0  itHIT:          0  itMISS:          0  dtACCESS:          0  dtHIT:          0  dtMISS:          0
cpu0_L1I PREFETCH  REQUESTED:   30045297  ISSUED:   30045184  CROSSED:          0  USEFUL:    2173981  USELESS:     745447
cpu0_L1I AVERAGE iMISS LATENCY: 23.1153 cycles
cpu0_L1I AVERAGE dMISS LATENCY: 0 cycles
cpu0_L1I AVERAGE itMISS LATENCY: 0 cycles
cpu0_L1I AVERAGE dtMISS LATENCY: 0 cycles
cpu0_L1I PAGE CROSSINGS (TLB HIT):         0 
cpu0_L1I PAGE CROSSINGS (TLB MISS):         0 
cpu0_L1I AVERAGE MISS LATENCY: 23.1153 cycles
cpu0_ITLB TOTAL       ACCESS:   32790916  HIT:   30603194  MISS:    2187722  iACCESS:   32790916  iHIT:   30603194  iMISS:    2187722  dACCESS:          0  dHIT:          0  dMISS:          0  itACCESS:          0  itHIT:          0  itMISS:          0  dtACCESS:          0  dtHIT:          0  dtMISS:          0
cpu0_ITLB LOAD         ACCESS:   32790916  HIT:   30603194  MISS:    2187722  iACCESS:   32790916  iHIT:   30603194  iMISS:    2187722  dACCESS:          0  dHIT:          0  dMISS:          0  itACCESS:          0  itHIT:          0  itMISS:          0  dtACCESS:          0  dtHIT:          0  dtMISS:          0
cpu0_ITLB RFO          ACCESS:          0  HIT:          0  MISS:          0  iACCESS:          0  iHIT:          0  iMISS:          0  dACCESS:          0  dHIT:          0  dMISS:          0  itACCESS:          0  itHIT:          0  itMISS:          0  dtACCESS:          0  dtHIT:          0  dtMISS:          0
cpu0_ITLB PREFETCH     ACCESS:          0  HIT:          0  MISS:          0  iACCESS:          0  iHIT:          0  iMISS:          0  dACCESS:          0  dHIT:          0  dMISS:          0  itACCESS:          0  itHIT:          0  itMISS:          0  dtACCESS:          0  dtHIT:          0  dtMISS:          0
cpu0_ITLB WRITE        ACCESS:          0  HIT:          0  MISS:          0  iACCESS:          0  iHIT:          0  iMISS:          0  dACCESS:          0  dHIT:          0  dMISS:          0  itACCESS:          0  itHIT:          0  itMISS:          0  dtACCESS:          0  dtHIT:          0  dtMISS:          0
cpu0_ITLB TRANSLATION  ACCESS:          0  HIT:          0  MISS:          0  iACCESS:          0  iHIT:          0  iMISS:          0  dACCESS:          0  dHIT:          0  dMISS:          0  itACCESS:          0  itHIT:          0  itMISS:          0  dtACCESS:          0  dtHIT:          0  dtMISS:          0
cpu0_ITLB PREFETCH  REQUESTED:          0  ISSUED:          0  CROSSED:          0  USEFUL:     379404  USELESS:      77183
cpu0_ITLB AVERAGE iMISS LATENCY: 9.79541 cycles
cpu0_ITLB AVERAGE dMISS LATENCY: 0 cycles
cpu0_ITLB AVERAGE itMISS LATENCY: 0 cycles
cpu0_ITLB AVERAGE dtMISS LATENCY: 0 cycles
cpu0_ITLB PAGE CROSSINGS (TLB HIT):         0 
cpu0_ITLB PAGE CROSSINGS (TLB MISS):         0 
cpu0_ITLB AVERAGE MISS LATENCY: 9.79541 cycles
cpu0_DTLB TOTAL       ACCESS:   28718721  HIT:   25065853  MISS:    3652868  iACCESS:          0  iHIT:          0  iMISS:          0  dACCESS:   28718721  dHIT:   25065853  dMISS:    3652868  itACCESS:          0  itHIT:          0  itMISS:          0  dtACCESS:          0  dtHIT:          0  dtMISS:          0
cpu0_DTLB LOAD         ACCESS:   28718721  HIT:   25065853  MISS:    3652868  iACCESS:          0  iHIT:          0  iMISS:          0  dACCESS:   28718721  dHIT:   25065853  dMISS:    3652868  itACCESS:          0  itHIT:          0  itMISS:          0  dtACCESS:          0  dtHIT:          0  dtMISS:          0
cpu0_DTLB RFO          ACCESS:          0  HIT:          0  MISS:          0  iACCESS:          0  iHIT:          0  iMISS:          0  dACCESS:          0  dHIT:          0  dMISS:          0  itACCESS:          0  itHIT:          0  itMISS:          0  dtACCESS:          0  dtHIT:          0  dtMISS:          0
cpu0_DTLB PREFETCH     ACCESS:          0  HIT:          0  MISS:          0  iACCESS:          0  iHIT:          0  iMISS:          0  dACCESS:          0  dHIT:          0  dMISS:          0  itACCESS:          0  itHIT:          0  itMISS:          0  dtACCESS:          0  dtHIT:          0  dtMISS:          0
cpu0_DTLB WRITE        ACCESS:          0  HIT:          0  MISS:          0  iACCESS:          0  iHIT:          0  iMISS:          0  dACCESS:          0  dHIT:          0  dMISS:          0  itACCESS:          0  itHIT:          0  itMISS:          0  dtACCESS:          0  dtHIT:          0  dtMISS:          0
cpu0_DTLB TRANSLATION  ACCESS:          0  HIT:          0  MISS:          0  iACCESS:          0  iHIT:          0  iMISS:          0  dACCESS:          0  dHIT:          0  dMISS:          0  itACCESS:          0  itHIT:          0  itMISS:          0  dtACCESS:          0  dtHIT:          0  dtMISS:          0
cpu0_DTLB PREFETCH  REQUESTED:          0  ISSUED:          0  CROSSED:          0  USEFUL:          0  USELESS:          0
cpu0_DTLB AVERAGE iMISS LATENCY: 0 cycles
cpu0_DTLB AVERAGE dMISS LATENCY: 23.9445 cycles
cpu0_DTLB AVERAGE itMISS LATENCY: 0 cycles
cpu0_DTLB AVERAGE dtMISS LATENCY: 0 cycles
cpu0_DTLB PAGE CROSSINGS (TLB HIT):         0 
cpu0_DTLB PAGE CROSSINGS (TLB MISS):         0 
cpu0_DTLB AVERAGE MISS LATENCY: 23.9445 cycles
cpu0_STLB TOTAL       ACCESS:    2568573  HIT:    2210151  MISS:     358422  iACCESS:     456590  iHIT:     350722  iMISS:     105868  dACCESS:    2111983  dHIT:    1859429  dMISS:     252554  itACCESS:          0  itHIT:          0  itMISS:          0  dtACCESS:          0  dtHIT:          0  dtMISS:          0
cpu0_STLB LOAD         ACCESS:    2568573  HIT:    2210151  MISS:     358422  iACCESS:     456590  iHIT:     350722  iMISS:     105868  dACCESS:    2111983  dHIT:    1859429  dMISS:     252554  itACCESS:          0  itHIT:          0  itMISS:          0  dtACCESS:          0  dtHIT:          0  dtMISS:          0
cpu0_STLB RFO          ACCESS:          0  HIT:          0  MISS:          0  iACCESS:          0  iHIT:          0  iMISS:          0  dACCESS:          0  dHIT:          0  dMISS:          0  itACCESS:          0  itHIT:          0  itMISS:          0  dtACCESS:          0  dtHIT:          0  dtMISS:          0
cpu0_STLB PREFETCH     ACCESS:          0  HIT:          0  MISS:          0  iACCESS:          0  iHIT:          0  iMISS:          0  dACCESS:          0  dHIT:          0  dMISS:          0  itACCESS:          0  itHIT:          0  itMISS:          0  dtACCESS:          0  dtHIT:          0  dtMISS:          0
cpu0_STLB WRITE        ACCESS:          0  HIT:          0  MISS:          0  iACCESS:          0  iHIT:          0  iMISS:          0  dACCESS:          0  dHIT:          0  dMISS:          0  itACCESS:          0  itHIT:          0  itMISS:          0  dtACCESS:          0  dtHIT:          0  dtMISS:          0
cpu0_STLB TRANSLATION  ACCESS:          0  HIT:          0  MISS:          0  iACCESS:          0  iHIT:          0  iMISS:          0  dACCESS:          0  dHIT:          0  dMISS:          0  itACCESS:          0  itHIT:          0  itMISS:          0  dtACCESS:          0  dtHIT:          0  dtMISS:          0
cpu0_STLB PREFETCH  REQUESTED:          0  ISSUED:          0  CROSSED:          0  USEFUL:          0  USELESS:          0
cpu0_STLB AVERAGE iMISS LATENCY: 49.6165 cycles
cpu0_STLB AVERAGE dMISS LATENCY: 196.618 cycles
cpu0_STLB AVERAGE itMISS LATENCY: 0 cycles
cpu0_STLB AVERAGE dtMISS LATENCY: 0 cycles
cpu0_STLB PAGE CROSSINGS (TLB HIT):         0 
cpu0_STLB PAGE CROSSINGS (TLB MISS):         0 
cpu0_STLB AVERAGE MISS LATENCY: 246.234 cycles
cpu0_L1D TOTAL       ACCESS:   44062013  HIT:   38907899  MISS:    5154114  iACCESS:          0  iHIT:          0  iMISS:          0  dACCESS:   43539356  dHIT:   38873352  dMISS:    4666004  itACCESS:     118793  itHIT:      14086  itMISS:     104707  dtACCESS:     403864  dtHIT:      20461  dtMISS:     383403
cpu0_L1D LOAD         ACCESS:   19897932  HIT:   17823300  MISS:    2074632  iACCESS:          0  iHIT:          0  iMISS:          0  dACCESS:   19897932  dHIT:   17823300  dMISS:    2074632  itACCESS:          0  itHIT:          0  itMISS:          0  dtACCESS:          0  dtHIT:          0  dtMISS:          0
cpu0_L1D RFO          ACCESS:          0  HIT:          0  MISS:          0  iACCESS:          0  iHIT:          0  iMISS:          0  dACCESS:          0  dHIT:          0  dMISS:          0  itACCESS:          0  itHIT:          0  itMISS:          0  dtACCESS:          0  dtHIT:          0  dtMISS:          0
cpu0_L1D PREFETCH     ACCESS:   13510835  HIT:   11465817  MISS:    2045018  iACCESS:          0  iHIT:          0  iMISS:          0  dACCESS:   13510835  dHIT:   11465817  dMISS:    2045018  itACCESS:          0  itHIT:          0  itMISS:          0  dtACCESS:          0  dtHIT:          0  dtMISS:          0
cpu0_L1D WRITE        ACCESS:   10130589  HIT:    9584235  MISS:     546354  iACCESS:          0  iHIT:          0  iMISS:          0  dACCESS:   10130589  dHIT:    9584235  dMISS:     546354  itACCESS:          0  itHIT:          0  itMISS:          0  dtACCESS:          0  dtHIT:          0  dtMISS:          0
cpu0_L1D TRANSLATION  ACCESS:     522657  HIT:      34547  MISS:     488110  iACCESS:          0  iHIT:          0  iMISS:          0  dACCESS:          0  dHIT:          0  dMISS:          0  itACCESS:     118793  itHIT:      14086  itMISS:     104707  dtACCESS:     403864  dtHIT:      20461  dtMISS:     383403
cpu0_L1D PREFETCH  REQUESTED:   19897932  ISSUED:   18224743  CROSSED:          0  USEFUL:     356969  USELESS:     921802
cpu0_L1D AVERAGE iMISS LATENCY: 0 cycles
cpu0_L1D AVERAGE dMISS LATENCY: 51.7605 cycles
cpu0_L1D AVERAGE itMISS LATENCY: 3.26061 cycles
cpu0_L1D AVERAGE dtMISS LATENCY: 12.6636 cycles
cpu0_L1D PAGE CROSSINGS (TLB HIT):         0 
cpu0_L1D PAGE CROSSINGS (TLB MISS):         0 
cpu0_L1D AVERAGE MISS LATENCY: 67.6847 cycles
cpu0_L2C TOTAL       ACCESS:    8456985  HIT:    4206534  MISS:    4250451  iACCESS:    3718648  iHIT:    2309160  iMISS:    1409488  dACCESS:    4272898  dHIT:    1840242  dMISS:    2432656  itACCESS:     104469  itHIT:      19383  itMISS:      85086  dtACCESS:     360970  dtHIT:      37749  dtMISS:     323221
cpu0_L2C LOAD         ACCESS:    2021521  HIT:    1014656  MISS:    1006865  iACCESS:     838071  iHIT:     545084  iMISS:     292987  dACCESS:    1183450  dHIT:     469572  dMISS:     713878  itACCESS:          0  itHIT:          0  itMISS:          0  dtACCESS:          0  dtHIT:          0  dtMISS:          0
cpu0_L2C RFO          ACCESS:     213428  HIT:      84740  MISS:     128688  iACCESS:          0  iHIT:          0  iMISS:          0  dACCESS:     213428  dHIT:      84740  dMISS:     128688  itACCESS:          0  itHIT:          0  itMISS:          0  dtACCESS:          0  dtHIT:          0  dtMISS:          0
cpu0_L2C PREFETCH     ACCESS:    5410083  HIT:    2707216  MISS:    2702867  iACCESS:    2880577  iHIT:    1764076  iMISS:    1116501  dACCESS:    2529506  dHIT:     943140  dMISS:    1586366  itACCESS:          0  itHIT:          0  itMISS:          0  dtACCESS:          0  dtHIT:          0  dtMISS:          0
cpu0_L2C WRITE        ACCESS:     346514  HIT:     342790  MISS:       3724  iACCESS:          0  iHIT:          0  iMISS:          0  dACCESS:     346514  dHIT:     342790  dMISS:       3724  itACCESS:          0  itHIT:          0  itMISS:          0  dtACCESS:          0  dtHIT:          0  dtMISS:          0
cpu0_L2C TRANSLATION  ACCESS:     465439  HIT:      57132  MISS:     408307  iACCESS:          0  iHIT:          0  iMISS:          0  dACCESS:          0  dHIT:          0  dMISS:          0  itACCESS:     104469  itHIT:      19383  itMISS:      85086  dtACCESS:     360970  dtHIT:      37749  dtMISS:     323221
cpu0_L2C PREFETCH  REQUESTED:    1496835  ISSUED:    1496835  CROSSED:          0  USEFUL:     351967  USELESS:     310825
cpu0_L2C AVERAGE iMISS LATENCY: 39.3237 cycles
cpu0_L2C AVERAGE dMISS LATENCY: 77.8692 cycles
cpu0_L2C AVERAGE itMISS LATENCY: 3.71195 cycles
cpu0_L2C AVERAGE dtMISS LATENCY: 14.5106 cycles
cpu0_L2C PAGE CROSSINGS (TLB HIT):         0 
cpu0_L2C PAGE CROSSINGS (TLB MISS):         0 
cpu0_L2C AVERAGE MISS LATENCY: 135.416 cycles
LLC TOTAL       ACCESS:    4250459  HIT:    1354085  MISS:    2896374  iACCESS:    1319655  iHIT:     426798  iMISS:     892857  dACCESS:    2522497  dHIT:     885280  dMISS:    1637217  itACCESS:      85086  itHIT:       6347  itMISS:      78739  dtACCESS:     323221  dtHIT:      35660  dtMISS:     287561
LLC LOAD         ACCESS:    1002242  HIT:     339175  MISS:     663067  iACCESS:     291805  iHIT:     100577  iMISS:     191228  dACCESS:     710437  dHIT:     238598  dMISS:     471839  itACCESS:          0  itHIT:          0  itMISS:          0  dtACCESS:          0  dtHIT:          0  dtMISS:          0
LLC RFO          ACCESS:     128679  HIT:      41291  MISS:      87388  iACCESS:          0  iHIT:          0  iMISS:          0  dACCESS:     128679  dHIT:      41291  dMISS:      87388  itACCESS:          0  itHIT:          0  itMISS:          0  dtACCESS:          0  dtHIT:          0  dtMISS:          0
LLC PREFETCH     ACCESS:    2500917  HIT:     732136  MISS:    1768781  iACCESS:    1027850  iHIT:     326221  iMISS:     701629  dACCESS:    1473067  dHIT:     405915  dMISS:    1067152  itACCESS:          0  itHIT:          0  itMISS:          0  dtACCESS:          0  dtHIT:          0  dtMISS:          0
LLC WRITE        ACCESS:     210314  HIT:     199476  MISS:      10838  iACCESS:          0  iHIT:          0  iMISS:          0  dACCESS:     210314  dHIT:     199476  dMISS:      10838  itACCESS:          0  itHIT:          0  itMISS:          0  dtACCESS:          0  dtHIT:          0  dtMISS:          0
LLC TRANSLATION  ACCESS:     408307  HIT:      42007  MISS:     366300  iACCESS:          0  iHIT:          0  iMISS:          0  dACCESS:          0  dHIT:          0  dMISS:          0  itACCESS:      85086  itHIT:       6347  itMISS:      78739  dtACCESS:     323221  dtHIT:      35660  dtMISS:     287561
LLC PREFETCH  REQUESTED:          0  ISSUED:          0  CROSSED:          0  USEFUL:          0  USELESS:          0
LLC AVERAGE iMISS LATENCY: 48.7351 cycles
LLC AVERAGE dMISS LATENCY: 99.2365 cycles
LLC AVERAGE itMISS LATENCY: 4.86474 cycles
LLC AVERAGE dtMISS LATENCY: 19.0886 cycles
LLC PAGE CROSSINGS (TLB HIT):         0 
LLC PAGE CROSSINGS (TLB MISS):         0 
LLC AVERAGE MISS LATENCY: 171.925 cycles

PageTableWalker TOTAL       ACCESS:     182593  
PageTableWalker AVERAGE LATENCY: 6.49811 cycles
PageTableWalker TOTAL LATENCY: 1186508 cycles

DRAM Statistics
Channel 0
 RQ ROW_BUFFER_HIT:     613079
  ROW_BUFFER_MISS:    2261972
 AVG DBUS CONGESTED CYCLE:    3.64779
 WQ ROW_BUFFER_HIT:      62407
  ROW_BUFFER_MISS:      54329  FULL:          0

