last_page:0x200000000000000
VMEM_RES_CAP:0x100000
PAGE_SIZE:4096
LOG2_PAGE_SIZE:12
LOG2_PAGE_TABLE_SIZE:9
page_table_levels:5
WARNING: physical memory size is smaller than virtual memory size
FDiP enabled with aggresivity 16

*** ChampSim Multicore Out-of-Order Simulator ***

Warmup Instructions: 50000000
Simulation Instructions: 100000000
Number of CPUs: 1
Small page size: 4096
Large page size: 2097152

CPU 0 Bimodal branch predictor
Basic BTB sets: 1024 ways: 8 indirect buffer size: 4096 RAS size: 64
Instruction page size distrubution: 0
Loading instruction page size distribution from /home/bsc/bsc018186/scratch/itp_asplos25_AE/dump/smt_srv12_ap_srv697_ap_1024i.pdst
Data page size distrubution: 0
Loading data page size distribution from /home/bsc/bsc018186/scratch/itp_asplos25_AE/dump/smt_srv12_ap_srv697_ap_1024i.pdst
cpu0_L2C IP-based stride prefetcher
cpu0_L1D next line prefetcher
cpu0_STLB using iTP with max lru@8
cpu0_STLB using iTP with instr@0 and data@2
Init sat counter with 3 bits (max:50).
cpu0_L1I next line prefetcher
Off-chip DRAM Size: 4 GiB Channels: 1 Width: 64-bit Data Rate: 3200 MT/s
Heartbeat CPU 0 instructions: 10000003 cycles: 2500225 heartbeat IPC: 3.99965 cumulative IPC: 3.99965 (Simulation time: 0 hr 0 min 38 sec) 
Heartbeat CPU 0 instructions: 20000002 cycles: 5000288 heartbeat IPC: 3.9999 cumulative IPC: 3.99978 (Simulation time: 0 hr 1 min 17 sec) 
Heartbeat CPU 0 instructions: 30000003 cycles: 7500742 heartbeat IPC: 3.99928 cumulative IPC: 3.99961 (Simulation time: 0 hr 1 min 57 sec) 
Heartbeat CPU 0 instructions: 40000002 cycles: 10000949 heartbeat IPC: 3.99967 cumulative IPC: 3.99963 (Simulation time: 0 hr 2 min 37 sec) 
Heartbeat CPU 0 instructions: 50000002 cycles: 12501142 heartbeat IPC: 3.9997 cumulative IPC: 3.99964 (Simulation time: 0 hr 3 min 18 sec) 
Warmup finished CPU 0 instructions: 50000002 cycles: 12501143 cumulative IPC: 3.99964 (Simulation time: 0 hr 3 min 18 sec) 

Warmup complete CPU 0 instructions: 50000002 cycles: 12501143 (Simulation time: 0 hr 3 min 18 sec) 

Heartbeat CPU 0 instructions: 60000003 cycles: 43030009 heartbeat IPC: 0.327559 cumulative IPC: 0.327559 (Simulation time: 0 hr 4 min 42 sec) 
Heartbeat CPU 0 instructions: 70000002 cycles: 71698584 heartbeat IPC: 0.348814 cumulative IPC: 0.337853 (Simulation time: 0 hr 6 min 4 sec) 
Heartbeat CPU 0 instructions: 80000001 cycles: 101743671 heartbeat IPC: 0.332834 cumulative IPC: 0.336163 (Simulation time: 0 hr 7 min 28 sec) 
Heartbeat CPU 0 instructions: 90000000 cycles: 127943357 heartbeat IPC: 0.381684 cumulative IPC: 0.346494 (Simulation time: 0 hr 8 min 46 sec) 
Heartbeat CPU 0 instructions: 100000000 cycles: 156769583 heartbeat IPC: 0.346907 cumulative IPC: 0.346577 (Simulation time: 0 hr 10 min 8 sec) 
Heartbeat CPU 0 instructions: 110000002 cycles: 185879202 heartbeat IPC: 0.34353 cumulative IPC: 0.346065 (Simulation time: 0 hr 11 min 31 sec) 
Heartbeat CPU 0 instructions: 120000001 cycles: 214748293 heartbeat IPC: 0.346392 cumulative IPC: 0.346112 (Simulation time: 0 hr 12 min 53 sec) 
Heartbeat CPU 0 instructions: 130000004 cycles: 244590797 heartbeat IPC: 0.335093 cumulative IPC: 0.344695 (Simulation time: 0 hr 14 min 17 sec) 
Heartbeat CPU 0 instructions: 140000000 cycles: 273539438 heartbeat IPC: 0.34544 cumulative IPC: 0.344777 (Simulation time: 0 hr 15 min 40 sec) 
Heartbeat CPU 0 instructions: 150000002 cycles: 303575561 heartbeat IPC: 0.332933 cumulative IPC: 0.343555 (Simulation time: 0 hr 17 min 3 sec) 
Simulation finished CPU 0 instructions: 100000000 cycles: 291074419 cumulative IPC: 0.343555 (Simulation time: 0 hr 17 min 3 sec) 

Simulation complete CPU 0 instructions: 100000000 cycles: 291074419 (Simulation time: 0 hr 17 min 3 sec) 


ChampSim completed all CPUs

Saving instructions large page distribution to /home/bsc/bsc018186/scratch/itp_asplos25_AE/dump/smt_srv12_ap_srv697_ap_1024i.pdst...
Saving data large page distribution to /home/bsc/bsc018186/scratch/itp_asplos25_AE/dump/smt_srv12_ap_srv697_ap_1024i.pdst...
=== Simulation ===
CPU 0 runs /gpfs/projects/bsc18/MN4/bsc18/romol/ChampSim/traces/qualcomm_srv/smt_srv12_ap_srv697_ap_1024i.champsimtrace.xz

Region of Interest Statistics

CPU 0 cumulative IPC: 0.343555 instructions: 100000000 cycles: 291074419
CPU 0 Branch Prediction Accuracy: 75.5756% MPKI: 44.1382 Average ROB Occupancy at Mispredict: 11.2931
Branch type MPKI
BRANCH_DIRECT_JUMP: 1.35222
BRANCH_INDIRECT: 22.6827
BRANCH_CONDITIONAL: 13.0084
BRANCH_DIRECT_CALL: 2.59578
BRANCH_INDIRECT_CALL: 1.0426
BRANCH_RETURN: 3.45673

Instructions large pages: 0
Instructions small pages: 14672
Large page distribution for instructions: 0%

Data large pages: 0
Data small pages: 12955
Large page distribution for data: 0%

cpu0_L1I TOTAL       ACCESS:   38993090  HIT:   30395453  MISS:    8597637  iACCESS:   38993090  iHIT:   30395453  iMISS:    8597637  dACCESS:          0  dHIT:          0  dMISS:          0  itACCESS:          0  itHIT:          0  itMISS:          0  dtACCESS:          0  dtHIT:          0  dtMISS:          0
cpu0_L1I LOAD         ACCESS:   11651797  HIT:    9310966  MISS:    2340831  iACCESS:   11651797  iHIT:    9310966  iMISS:    2340831  dACCESS:          0  dHIT:          0  dMISS:          0  itACCESS:          0  itHIT:          0  itMISS:          0  dtACCESS:          0  dtHIT:          0  dtMISS:          0
cpu0_L1I RFO          ACCESS:          0  HIT:          0  MISS:          0  iACCESS:          0  iHIT:          0  iMISS:          0  dACCESS:          0  dHIT:          0  dMISS:          0  itACCESS:          0  itHIT:          0  itMISS:          0  dtACCESS:          0  dtHIT:          0  dtMISS:          0
cpu0_L1I PREFETCH     ACCESS:   27341293  HIT:   21084487  MISS:    6256806  iACCESS:   27341293  iHIT:   21084487  iMISS:    6256806  dACCESS:          0  dHIT:          0  dMISS:          0  itACCESS:          0  itHIT:          0  itMISS:          0  dtACCESS:          0  dtHIT:          0  dtMISS:          0
cpu0_L1I WRITE        ACCESS:          0  HIT:          0  MISS:          0  iACCESS:          0  iHIT:          0  iMISS:          0  dACCESS:          0  dHIT:          0  dMISS:          0  itACCESS:          0  itHIT:          0  itMISS:          0  dtACCESS:          0  dtHIT:          0  dtMISS:          0
cpu0_L1I TRANSLATION  ACCESS:          0  HIT:          0  MISS:          0  iACCESS:          0  iHIT:          0  iMISS:          0  dACCESS:          0  dHIT:          0  dMISS:          0  itACCESS:          0  itHIT:          0  itMISS:          0  dtACCESS:          0  dtHIT:          0  dtMISS:          0
cpu0_L1I PREFETCH  REQUESTED:   30153958  ISSUED:   30153948  CROSSED:          0  USEFUL:    2186529  USELESS:     754261
cpu0_L1I AVERAGE iMISS LATENCY: 24.0508 cycles
cpu0_L1I AVERAGE dMISS LATENCY: 0 cycles
cpu0_L1I AVERAGE itMISS LATENCY: 0 cycles
cpu0_L1I AVERAGE dtMISS LATENCY: 0 cycles
cpu0_L1I PAGE CROSSINGS (TLB HIT):         0 
cpu0_L1I PAGE CROSSINGS (TLB MISS):         0 
cpu0_L1I AVERAGE MISS LATENCY: 24.0508 cycles
cpu0_ITLB TOTAL       ACCESS:   32985299  HIT:   30798155  MISS:    2187144  iACCESS:   32985299  iHIT:   30798155  iMISS:    2187144  dACCESS:          0  dHIT:          0  dMISS:          0  itACCESS:          0  itHIT:          0  itMISS:          0  dtACCESS:          0  dtHIT:          0  dtMISS:          0
cpu0_ITLB LOAD         ACCESS:   32985299  HIT:   30798155  MISS:    2187144  iACCESS:   32985299  iHIT:   30798155  iMISS:    2187144  dACCESS:          0  dHIT:          0  dMISS:          0  itACCESS:          0  itHIT:          0  itMISS:          0  dtACCESS:          0  dtHIT:          0  dtMISS:          0
cpu0_ITLB RFO          ACCESS:          0  HIT:          0  MISS:          0  iACCESS:          0  iHIT:          0  iMISS:          0  dACCESS:          0  dHIT:          0  dMISS:          0  itACCESS:          0  itHIT:          0  itMISS:          0  dtACCESS:          0  dtHIT:          0  dtMISS:          0
cpu0_ITLB PREFETCH     ACCESS:          0  HIT:          0  MISS:          0  iACCESS:          0  iHIT:          0  iMISS:          0  dACCESS:          0  dHIT:          0  dMISS:          0  itACCESS:          0  itHIT:          0  itMISS:          0  dtACCESS:          0  dtHIT:          0  dtMISS:          0
cpu0_ITLB WRITE        ACCESS:          0  HIT:          0  MISS:          0  iACCESS:          0  iHIT:          0  iMISS:          0  dACCESS:          0  dHIT:          0  dMISS:          0  itACCESS:          0  itHIT:          0  itMISS:          0  dtACCESS:          0  dtHIT:          0  dtMISS:          0
cpu0_ITLB TRANSLATION  ACCESS:          0  HIT:          0  MISS:          0  iACCESS:          0  iHIT:          0  iMISS:          0  dACCESS:          0  dHIT:          0  dMISS:          0  itACCESS:          0  itHIT:          0  itMISS:          0  dtACCESS:          0  dtHIT:          0  dtMISS:          0
cpu0_ITLB PREFETCH  REQUESTED:          0  ISSUED:          0  CROSSED:          0  USEFUL:     385375  USELESS:      77481
cpu0_ITLB AVERAGE iMISS LATENCY: 6.55681 cycles
cpu0_ITLB AVERAGE dMISS LATENCY: 0 cycles
cpu0_ITLB AVERAGE itMISS LATENCY: 0 cycles
cpu0_ITLB AVERAGE dtMISS LATENCY: 0 cycles
cpu0_ITLB PAGE CROSSINGS (TLB HIT):         0 
cpu0_ITLB PAGE CROSSINGS (TLB MISS):         0 
cpu0_ITLB AVERAGE MISS LATENCY: 6.55681 cycles
cpu0_DTLB TOTAL       ACCESS:   28858626  HIT:   25233467  MISS:    3625159  iACCESS:          0  iHIT:          0  iMISS:          0  dACCESS:   28858626  dHIT:   25233467  dMISS:    3625159  itACCESS:          0  itHIT:          0  itMISS:          0  dtACCESS:          0  dtHIT:          0  dtMISS:          0
cpu0_DTLB LOAD         ACCESS:   28858626  HIT:   25233467  MISS:    3625159  iACCESS:          0  iHIT:          0  iMISS:          0  dACCESS:   28858626  dHIT:   25233467  dMISS:    3625159  itACCESS:          0  itHIT:          0  itMISS:          0  dtACCESS:          0  dtHIT:          0  dtMISS:          0
cpu0_DTLB RFO          ACCESS:          0  HIT:          0  MISS:          0  iACCESS:          0  iHIT:          0  iMISS:          0  dACCESS:          0  dHIT:          0  dMISS:          0  itACCESS:          0  itHIT:          0  itMISS:          0  dtACCESS:          0  dtHIT:          0  dtMISS:          0
cpu0_DTLB PREFETCH     ACCESS:          0  HIT:          0  MISS:          0  iACCESS:          0  iHIT:          0  iMISS:          0  dACCESS:          0  dHIT:          0  dMISS:          0  itACCESS:          0  itHIT:          0  itMISS:          0  dtACCESS:          0  dtHIT:          0  dtMISS:          0
cpu0_DTLB WRITE        ACCESS:          0  HIT:          0  MISS:          0  iACCESS:          0  iHIT:          0  iMISS:          0  dACCESS:          0  dHIT:          0  dMISS:          0  itACCESS:          0  itHIT:          0  itMISS:          0  dtACCESS:          0  dtHIT:          0  dtMISS:          0
cpu0_DTLB TRANSLATION  ACCESS:          0  HIT:          0  MISS:          0  iACCESS:          0  iHIT:          0  iMISS:          0  dACCESS:          0  dHIT:          0  dMISS:          0  itACCESS:          0  itHIT:          0  itMISS:          0  dtACCESS:          0  dtHIT:          0  dtMISS:          0
cpu0_DTLB PREFETCH  REQUESTED:          0  ISSUED:          0  CROSSED:          0  USEFUL:          0  USELESS:          0
cpu0_DTLB AVERAGE iMISS LATENCY: 0 cycles
cpu0_DTLB AVERAGE dMISS LATENCY: 27.0517 cycles
cpu0_DTLB AVERAGE itMISS LATENCY: 0 cycles
cpu0_DTLB AVERAGE dtMISS LATENCY: 0 cycles
cpu0_DTLB PAGE CROSSINGS (TLB HIT):         0 
cpu0_DTLB PAGE CROSSINGS (TLB MISS):         0 
cpu0_DTLB AVERAGE MISS LATENCY: 27.0517 cycles
cpu0_STLB TOTAL       ACCESS:    2566050  HIT:    2209474  MISS:     356576  iACCESS:     462861  iHIT:     408003  iMISS:      54858  dACCESS:    2103189  dHIT:    1801471  dMISS:     301718  itACCESS:          0  itHIT:          0  itMISS:          0  dtACCESS:          0  dtHIT:          0  dtMISS:          0
cpu0_STLB LOAD         ACCESS:    2566050  HIT:    2209474  MISS:     356576  iACCESS:     462861  iHIT:     408003  iMISS:      54858  dACCESS:    2103189  dHIT:    1801471  dMISS:     301718  itACCESS:          0  itHIT:          0  itMISS:          0  dtACCESS:          0  dtHIT:          0  dtMISS:          0
cpu0_STLB RFO          ACCESS:          0  HIT:          0  MISS:          0  iACCESS:          0  iHIT:          0  iMISS:          0  dACCESS:          0  dHIT:          0  dMISS:          0  itACCESS:          0  itHIT:          0  itMISS:          0  dtACCESS:          0  dtHIT:          0  dtMISS:          0
cpu0_STLB PREFETCH     ACCESS:          0  HIT:          0  MISS:          0  iACCESS:          0  iHIT:          0  iMISS:          0  dACCESS:          0  dHIT:          0  dMISS:          0  itACCESS:          0  itHIT:          0  itMISS:          0  dtACCESS:          0  dtHIT:          0  dtMISS:          0
cpu0_STLB WRITE        ACCESS:          0  HIT:          0  MISS:          0  iACCESS:          0  iHIT:          0  iMISS:          0  dACCESS:          0  dHIT:          0  dMISS:          0  itACCESS:          0  itHIT:          0  itMISS:          0  dtACCESS:          0  dtHIT:          0  dtMISS:          0
cpu0_STLB TRANSLATION  ACCESS:          0  HIT:          0  MISS:          0  iACCESS:          0  iHIT:          0  iMISS:          0  dACCESS:          0  dHIT:          0  dMISS:          0  itACCESS:          0  itHIT:          0  itMISS:          0  dtACCESS:          0  dtHIT:          0  dtMISS:          0
cpu0_STLB PREFETCH  REQUESTED:          0  ISSUED:          0  CROSSED:          0  USEFUL:          0  USELESS:          0
cpu0_STLB AVERAGE iMISS LATENCY: 30.0181 cycles
cpu0_STLB AVERAGE dMISS LATENCY: 227.423 cycles
cpu0_STLB AVERAGE itMISS LATENCY: 0 cycles
cpu0_STLB AVERAGE dtMISS LATENCY: 0 cycles
cpu0_STLB PAGE CROSSINGS (TLB HIT):         0 
cpu0_STLB PAGE CROSSINGS (TLB MISS):         0 
cpu0_STLB AVERAGE MISS LATENCY: 257.441 cycles
cpu0_L1D TOTAL       ACCESS:   44431240  HIT:   39157238  MISS:    5274002  iACCESS:          0  iHIT:          0  iMISS:          0  dACCESS:   43876530  dHIT:   39127946  dMISS:    4748584  itACCESS:      65391  itHIT:       5749  itMISS:      59642  dtACCESS:     489319  dtHIT:      23543  dtMISS:     465776
cpu0_L1D LOAD         ACCESS:   20054704  HIT:   17937379  MISS:    2117325  iACCESS:          0  iHIT:          0  iMISS:          0  dACCESS:   20054704  dHIT:   17937379  dMISS:    2117325  itACCESS:          0  itHIT:          0  itMISS:          0  dtACCESS:          0  dtHIT:          0  dtMISS:          0
cpu0_L1D RFO          ACCESS:          0  HIT:          0  MISS:          0  iACCESS:          0  iHIT:          0  iMISS:          0  dACCESS:          0  dHIT:          0  dMISS:          0  itACCESS:          0  itHIT:          0  itMISS:          0  dtACCESS:          0  dtHIT:          0  dtMISS:          0
cpu0_L1D PREFETCH     ACCESS:   13664603  HIT:   11585030  MISS:    2079573  iACCESS:          0  iHIT:          0  iMISS:          0  dACCESS:   13664603  dHIT:   11585030  dMISS:    2079573  itACCESS:          0  itHIT:          0  itMISS:          0  dtACCESS:          0  dtHIT:          0  dtMISS:          0
cpu0_L1D WRITE        ACCESS:   10157223  HIT:    9605537  MISS:     551686  iACCESS:          0  iHIT:          0  iMISS:          0  dACCESS:   10157223  dHIT:    9605537  dMISS:     551686  itACCESS:          0  itHIT:          0  itMISS:          0  dtACCESS:          0  dtHIT:          0  dtMISS:          0
cpu0_L1D TRANSLATION  ACCESS:     554710  HIT:      29292  MISS:     525418  iACCESS:          0  iHIT:          0  iMISS:          0  dACCESS:          0  dHIT:          0  dMISS:          0  itACCESS:      65391  itHIT:       5749  itMISS:      59642  dtACCESS:     489319  dtHIT:      23543  dtMISS:     465776
cpu0_L1D PREFETCH  REQUESTED:   20054704  ISSUED:   18388620  CROSSED:          0  USEFUL:     359464  USELESS:     926385
cpu0_L1D AVERAGE iMISS LATENCY: 0 cycles
cpu0_L1D AVERAGE dMISS LATENCY: 50.9191 cycles
cpu0_L1D AVERAGE itMISS LATENCY: 1.90504 cycles
cpu0_L1D AVERAGE dtMISS LATENCY: 14.2344 cycles
cpu0_L1D PAGE CROSSINGS (TLB HIT):         0 
cpu0_L1D PAGE CROSSINGS (TLB MISS):         0 
cpu0_L1D AVERAGE MISS LATENCY: 67.0585 cycles
cpu0_L2C TOTAL       ACCESS:    8519597  HIT:    4171575  MISS:    4348022  iACCESS:    3737265  iHIT:    2268432  iMISS:    1468833  dACCESS:    4287591  dHIT:    1838907  dMISS:    2448684  itACCESS:      59161  itHIT:       8329  itMISS:      50832  dtACCESS:     435580  dtHIT:      55907  dtMISS:     379673
cpu0_L2C LOAD         ACCESS:    2028187  HIT:    1010305  MISS:    1017882  iACCESS:     834773  iHIT:     532063  iMISS:     302710  dACCESS:    1193414  dHIT:     478242  dMISS:     715172  itACCESS:          0  itHIT:          0  itMISS:          0  dtACCESS:          0  dtHIT:          0  dtMISS:          0
cpu0_L2C RFO          ACCESS:     208816  HIT:      81713  MISS:     127103  iACCESS:          0  iHIT:          0  iMISS:          0  dACCESS:     208816  dHIT:      81713  dMISS:     127103  itACCESS:          0  itHIT:          0  itMISS:          0  dtACCESS:          0  dtHIT:          0  dtMISS:          0
cpu0_L2C PREFETCH     ACCESS:    5446724  HIT:    2677906  MISS:    2768818  iACCESS:    2902492  iHIT:    1736369  iMISS:    1166123  dACCESS:    2544232  dHIT:     941537  dMISS:    1602695  itACCESS:          0  itHIT:          0  itMISS:          0  dtACCESS:          0  dtHIT:          0  dtMISS:          0
cpu0_L2C WRITE        ACCESS:     341129  HIT:     337415  MISS:       3714  iACCESS:          0  iHIT:          0  iMISS:          0  dACCESS:     341129  dHIT:     337415  dMISS:       3714  itACCESS:          0  itHIT:          0  itMISS:          0  dtACCESS:          0  dtHIT:          0  dtMISS:          0
cpu0_L2C TRANSLATION  ACCESS:     494741  HIT:      64236  MISS:     430505  iACCESS:          0  iHIT:          0  iMISS:          0  dACCESS:          0  dHIT:          0  dMISS:          0  itACCESS:      59161  itHIT:       8329  itMISS:      50832  dtACCESS:     435580  dtHIT:      55907  dtMISS:     379673
cpu0_L2C PREFETCH  REQUESTED:    1497483  ISSUED:    1497481  CROSSED:          0  USEFUL:     357532  USELESS:     321916
cpu0_L2C AVERAGE iMISS LATENCY: 40.2933 cycles
cpu0_L2C AVERAGE dMISS LATENCY: 77.1949 cycles
cpu0_L2C AVERAGE itMISS LATENCY: 2.17624 cycles
cpu0_L2C AVERAGE dtMISS LATENCY: 16.2709 cycles
cpu0_L2C PAGE CROSSINGS (TLB HIT):         0 
cpu0_L2C PAGE CROSSINGS (TLB MISS):         0 
cpu0_L2C AVERAGE MISS LATENCY: 135.936 cycles
LLC TOTAL       ACCESS:    4347784  HIT:    1379717  MISS:    2968067  iACCESS:    1378777  iHIT:     446769  iMISS:     932008  dACCESS:    2538502  dHIT:     878843  dMISS:    1659659  itACCESS:      50832  itHIT:       3504  itMISS:      47328  dtACCESS:     379673  dtHIT:      50601  dtMISS:     329072
LLC LOAD         ACCESS:    1013542  HIT:     341484  MISS:     672058  iACCESS:     301556  iHIT:     105046  iMISS:     196510  dACCESS:     711986  dHIT:     236438  dMISS:     475548  itACCESS:          0  itHIT:          0  itMISS:          0  dtACCESS:          0  dtHIT:          0  dtMISS:          0
LLC RFO          ACCESS:     127092  HIT:      40080  MISS:      87012  iACCESS:          0  iHIT:          0  iMISS:          0  dACCESS:     127092  dHIT:      40080  dMISS:      87012  itACCESS:          0  itHIT:          0  itMISS:          0  dtACCESS:          0  dtHIT:          0  dtMISS:          0
LLC PREFETCH     ACCESS:    2568451  HIT:     746307  MISS:    1822144  iACCESS:    1077221  iHIT:     341723  iMISS:     735498  dACCESS:    1491230  dHIT:     404584  dMISS:    1086646  itACCESS:          0  itHIT:          0  itMISS:          0  dtACCESS:          0  dtHIT:          0  dtMISS:          0
LLC WRITE        ACCESS:     208194  HIT:     197741  MISS:      10453  iACCESS:          0  iHIT:          0  iMISS:          0  dACCESS:     208194  dHIT:     197741  dMISS:      10453  itACCESS:          0  itHIT:          0  itMISS:          0  dtACCESS:          0  dtHIT:          0  dtMISS:          0
LLC TRANSLATION  ACCESS:     430505  HIT:      54105  MISS:     376400  iACCESS:          0  iHIT:          0  iMISS:          0  dACCESS:          0  dHIT:          0  dMISS:          0  itACCESS:      50832  itHIT:       3504  itMISS:      47328  dtACCESS:     379673  dtHIT:      50601  dtMISS:     329072
LLC PREFETCH  REQUESTED:          0  ISSUED:          0  CROSSED:          0  USEFUL:          0  USELESS:          0
LLC AVERAGE iMISS LATENCY: 49.8843 cycles
LLC AVERAGE dMISS LATENCY: 98.2245 cycles
LLC AVERAGE itMISS LATENCY: 2.84845 cycles
LLC AVERAGE dtMISS LATENCY: 21.3088 cycles
LLC PAGE CROSSINGS (TLB HIT):         0 
LLC PAGE CROSSINGS (TLB MISS):         0 
LLC AVERAGE MISS LATENCY: 172.266 cycles

PageTableWalker TOTAL       ACCESS:     169680  
PageTableWalker AVERAGE LATENCY: 6.8654 cycles
PageTableWalker TOTAL LATENCY: 1164920 cycles

DRAM Statistics
Channel 0
 RQ ROW_BUFFER_HIT:     632360
  ROW_BUFFER_MISS:    2315429
 AVG DBUS CONGESTED CYCLE:    3.64719
 WQ ROW_BUFFER_HIT:      64048
  ROW_BUFFER_MISS:      51467  FULL:          0

