last_page:0x200000000000000
VMEM_RES_CAP:0x100000
PAGE_SIZE:4096
LOG2_PAGE_SIZE:12
LOG2_PAGE_TABLE_SIZE:9
page_table_levels:5
WARNING: physical memory size is smaller than virtual memory size
FDiP enabled with aggresivity 16

*** ChampSim Multicore Out-of-Order Simulator ***

Warmup Instructions: 50000000
Simulation Instructions: 100000000
Number of CPUs: 1
Small page size: 4096
Large page size: 2097152

CPU 0 Bimodal branch predictor
Basic BTB sets: 1024 ways: 8 indirect buffer size: 4096 RAS size: 64
Instruction page size distrubution: 0
Loading instruction page size distribution from /home/bsc/bsc018186/scratch/itp_asplos25_AE/dump/smt_srv540_ap_srv73_ap_1024i.pdst
Data page size distrubution: 0
Loading data page size distribution from /home/bsc/bsc018186/scratch/itp_asplos25_AE/dump/smt_srv540_ap_srv73_ap_1024i.pdst
cpu0_L2C IP-based stride prefetcher
cpu0_L1D next line prefetcher
cpu0_L1I next line prefetcher
Off-chip DRAM Size: 4 GiB Channels: 1 Width: 64-bit Data Rate: 3200 MT/s
Heartbeat CPU 0 instructions: 10000000 cycles: 2500290 heartbeat IPC: 3.99954 cumulative IPC: 3.99954 (Simulation time: 0 hr 0 min 40 sec) 
Heartbeat CPU 0 instructions: 20000000 cycles: 5000815 heartbeat IPC: 3.99917 cumulative IPC: 3.99935 (Simulation time: 0 hr 1 min 22 sec) 
Heartbeat CPU 0 instructions: 30000003 cycles: 7501184 heartbeat IPC: 3.99942 cumulative IPC: 3.99937 (Simulation time: 0 hr 2 min 2 sec) 
Heartbeat CPU 0 instructions: 40000003 cycles: 10001448 heartbeat IPC: 3.99958 cumulative IPC: 3.99943 (Simulation time: 0 hr 2 min 44 sec) 
Heartbeat CPU 0 instructions: 50000000 cycles: 12502894 heartbeat IPC: 3.99769 cumulative IPC: 3.99908 (Simulation time: 0 hr 3 min 26 sec) 
Warmup finished CPU 0 instructions: 50000000 cycles: 12502895 cumulative IPC: 3.99908 (Simulation time: 0 hr 3 min 26 sec) 

Warmup complete CPU 0 instructions: 50000000 cycles: 12502895 (Simulation time: 0 hr 3 min 26 sec) 

Heartbeat CPU 0 instructions: 60000001 cycles: 36003192 heartbeat IPC: 0.425527 cumulative IPC: 0.425527 (Simulation time: 0 hr 4 min 47 sec) 
Heartbeat CPU 0 instructions: 70000003 cycles: 57304957 heartbeat IPC: 0.469445 cumulative IPC: 0.446409 (Simulation time: 0 hr 6 min 7 sec) 
Heartbeat CPU 0 instructions: 80000002 cycles: 80637234 heartbeat IPC: 0.428591 cumulative IPC: 0.440307 (Simulation time: 0 hr 7 min 30 sec) 
Heartbeat CPU 0 instructions: 90000000 cycles: 111063249 heartbeat IPC: 0.328667 cumulative IPC: 0.405843 (Simulation time: 0 hr 9 min 5 sec) 
Heartbeat CPU 0 instructions: 100000004 cycles: 143065510 heartbeat IPC: 0.312479 cumulative IPC: 0.382959 (Simulation time: 0 hr 10 min 43 sec) 
Heartbeat CPU 0 instructions: 110000001 cycles: 173376337 heartbeat IPC: 0.329916 cumulative IPC: 0.372964 (Simulation time: 0 hr 12 min 11 sec) 
Heartbeat CPU 0 instructions: 120000001 cycles: 203459331 heartbeat IPC: 0.332414 cumulative IPC: 0.366576 (Simulation time: 0 hr 13 min 44 sec) 
Heartbeat CPU 0 instructions: 130000000 cycles: 220231117 heartbeat IPC: 0.59624 cumulative IPC: 0.385119 (Simulation time: 0 hr 15 min 1 sec) 
Heartbeat CPU 0 instructions: 140000002 cycles: 241084423 heartbeat IPC: 0.479541 cumulative IPC: 0.393733 (Simulation time: 0 hr 16 min 22 sec) 
Heartbeat CPU 0 instructions: 150000002 cycles: 270483881 heartbeat IPC: 0.340143 cumulative IPC: 0.387626 (Simulation time: 0 hr 17 min 55 sec) 
Simulation finished CPU 0 instructions: 100000002 cycles: 257980987 cumulative IPC: 0.387626 (Simulation time: 0 hr 17 min 55 sec) 

Simulation complete CPU 0 instructions: 100000002 cycles: 257980987 (Simulation time: 0 hr 17 min 55 sec) 


ChampSim completed all CPUs

Saving instructions large page distribution to /home/bsc/bsc018186/scratch/itp_asplos25_AE/dump/smt_srv540_ap_srv73_ap_1024i.pdst...
Saving data large page distribution to /home/bsc/bsc018186/scratch/itp_asplos25_AE/dump/smt_srv540_ap_srv73_ap_1024i.pdst...
=== Simulation ===
CPU 0 runs /gpfs/projects/bsc18/MN4/bsc18/romol/ChampSim/traces/qualcomm_srv/smt_srv540_ap_srv73_ap_1024i.champsimtrace.xz

Region of Interest Statistics

CPU 0 cumulative IPC: 0.387626 instructions: 100000002 cycles: 257980987
CPU 0 Branch Prediction Accuracy: 78.132% MPKI: 42.4346 Average ROB Occupancy at Mispredict: 11.0796
Branch type MPKI
BRANCH_DIRECT_JUMP: 1.07927
BRANCH_INDIRECT: 22.652
BRANCH_CONDITIONAL: 12.1234
BRANCH_DIRECT_CALL: 1.99652
BRANCH_INDIRECT_CALL: 1.67128
BRANCH_RETURN: 2.91218

Instructions large pages: 0
Instructions small pages: 11045
Large page distribution for instructions: 0%

Data large pages: 0
Data small pages: 9196
Large page distribution for data: 0%

cpu0_L1I TOTAL       ACCESS:   37987098  HIT:   31017327  MISS:    6969771  iACCESS:   37987098  iHIT:   31017327  iMISS:    6969771  dACCESS:          0  dHIT:          0  dMISS:          0  itACCESS:          0  itHIT:          0  itMISS:          0  dtACCESS:          0  dtHIT:          0  dtMISS:          0
cpu0_L1I LOAD         ACCESS:   10507982  HIT:    8595695  MISS:    1912287  iACCESS:   10507982  iHIT:    8595695  iMISS:    1912287  dACCESS:          0  dHIT:          0  dMISS:          0  itACCESS:          0  itHIT:          0  itMISS:          0  dtACCESS:          0  dtHIT:          0  dtMISS:          0
cpu0_L1I RFO          ACCESS:          0  HIT:          0  MISS:          0  iACCESS:          0  iHIT:          0  iMISS:          0  dACCESS:          0  dHIT:          0  dMISS:          0  itACCESS:          0  itHIT:          0  itMISS:          0  dtACCESS:          0  dtHIT:          0  dtMISS:          0
cpu0_L1I PREFETCH     ACCESS:   27479116  HIT:   22421632  MISS:    5057484  iACCESS:   27479116  iHIT:   22421632  iMISS:    5057484  dACCESS:          0  dHIT:          0  dMISS:          0  itACCESS:          0  itHIT:          0  itMISS:          0  dtACCESS:          0  dtHIT:          0  dtMISS:          0
cpu0_L1I WRITE        ACCESS:          0  HIT:          0  MISS:          0  iACCESS:          0  iHIT:          0  iMISS:          0  dACCESS:          0  dHIT:          0  dMISS:          0  itACCESS:          0  itHIT:          0  itMISS:          0  dtACCESS:          0  dtHIT:          0  dtMISS:          0
cpu0_L1I TRANSLATION  ACCESS:          0  HIT:          0  MISS:          0  iACCESS:          0  iHIT:          0  iMISS:          0  dACCESS:          0  dHIT:          0  dMISS:          0  itACCESS:          0  itHIT:          0  itMISS:          0  dtACCESS:          0  dtHIT:          0  dtMISS:          0
cpu0_L1I PREFETCH  REQUESTED:   29901459  ISSUED:   29901455  CROSSED:          0  USEFUL:    1766123  USELESS:     633252
cpu0_L1I AVERAGE iMISS LATENCY: 24.1085 cycles
cpu0_L1I AVERAGE dMISS LATENCY: 0 cycles
cpu0_L1I AVERAGE itMISS LATENCY: 0 cycles
cpu0_L1I AVERAGE dtMISS LATENCY: 0 cycles
cpu0_L1I PAGE CROSSINGS (TLB HIT):         0 
cpu0_L1I PAGE CROSSINGS (TLB MISS):         0 
cpu0_L1I AVERAGE MISS LATENCY: 24.1085 cycles
cpu0_ITLB TOTAL       ACCESS:   32146388  HIT:   30320352  MISS:    1826036  iACCESS:   32146388  iHIT:   30320352  iMISS:    1826036  dACCESS:          0  dHIT:          0  dMISS:          0  itACCESS:          0  itHIT:          0  itMISS:          0  dtACCESS:          0  dtHIT:          0  dtMISS:          0
cpu0_ITLB LOAD         ACCESS:   32146388  HIT:   30320352  MISS:    1826036  iACCESS:   32146388  iHIT:   30320352  iMISS:    1826036  dACCESS:          0  dHIT:          0  dMISS:          0  itACCESS:          0  itHIT:          0  itMISS:          0  dtACCESS:          0  dtHIT:          0  dtMISS:          0
cpu0_ITLB RFO          ACCESS:          0  HIT:          0  MISS:          0  iACCESS:          0  iHIT:          0  iMISS:          0  dACCESS:          0  dHIT:          0  dMISS:          0  itACCESS:          0  itHIT:          0  itMISS:          0  dtACCESS:          0  dtHIT:          0  dtMISS:          0
cpu0_ITLB PREFETCH     ACCESS:          0  HIT:          0  MISS:          0  iACCESS:          0  iHIT:          0  iMISS:          0  dACCESS:          0  dHIT:          0  dMISS:          0  itACCESS:          0  itHIT:          0  itMISS:          0  dtACCESS:          0  dtHIT:          0  dtMISS:          0
cpu0_ITLB WRITE        ACCESS:          0  HIT:          0  MISS:          0  iACCESS:          0  iHIT:          0  iMISS:          0  dACCESS:          0  dHIT:          0  dMISS:          0  itACCESS:          0  itHIT:          0  itMISS:          0  dtACCESS:          0  dtHIT:          0  dtMISS:          0
cpu0_ITLB TRANSLATION  ACCESS:          0  HIT:          0  MISS:          0  iACCESS:          0  iHIT:          0  iMISS:          0  dACCESS:          0  dHIT:          0  dMISS:          0  itACCESS:          0  itHIT:          0  itMISS:          0  dtACCESS:          0  dtHIT:          0  dtMISS:          0
cpu0_ITLB PREFETCH  REQUESTED:          0  ISSUED:          0  CROSSED:          0  USEFUL:     320271  USELESS:      67096
cpu0_ITLB AVERAGE iMISS LATENCY: 10.2745 cycles
cpu0_ITLB AVERAGE dMISS LATENCY: 0 cycles
cpu0_ITLB AVERAGE itMISS LATENCY: 0 cycles
cpu0_ITLB AVERAGE dtMISS LATENCY: 0 cycles
cpu0_ITLB PAGE CROSSINGS (TLB HIT):         0 
cpu0_ITLB PAGE CROSSINGS (TLB MISS):         0 
cpu0_ITLB AVERAGE MISS LATENCY: 10.2745 cycles
cpu0_DTLB TOTAL       ACCESS:   31218751  HIT:   25784880  MISS:    5433871  iACCESS:          0  iHIT:          0  iMISS:          0  dACCESS:   31218751  dHIT:   25784880  dMISS:    5433871  itACCESS:          0  itHIT:          0  itMISS:          0  dtACCESS:          0  dtHIT:          0  dtMISS:          0
cpu0_DTLB LOAD         ACCESS:   31218751  HIT:   25784880  MISS:    5433871  iACCESS:          0  iHIT:          0  iMISS:          0  dACCESS:   31218751  dHIT:   25784880  dMISS:    5433871  itACCESS:          0  itHIT:          0  itMISS:          0  dtACCESS:          0  dtHIT:          0  dtMISS:          0
cpu0_DTLB RFO          ACCESS:          0  HIT:          0  MISS:          0  iACCESS:          0  iHIT:          0  iMISS:          0  dACCESS:          0  dHIT:          0  dMISS:          0  itACCESS:          0  itHIT:          0  itMISS:          0  dtACCESS:          0  dtHIT:          0  dtMISS:          0
cpu0_DTLB PREFETCH     ACCESS:          0  HIT:          0  MISS:          0  iACCESS:          0  iHIT:          0  iMISS:          0  dACCESS:          0  dHIT:          0  dMISS:          0  itACCESS:          0  itHIT:          0  itMISS:          0  dtACCESS:          0  dtHIT:          0  dtMISS:          0
cpu0_DTLB WRITE        ACCESS:          0  HIT:          0  MISS:          0  iACCESS:          0  iHIT:          0  iMISS:          0  dACCESS:          0  dHIT:          0  dMISS:          0  itACCESS:          0  itHIT:          0  itMISS:          0  dtACCESS:          0  dtHIT:          0  dtMISS:          0
cpu0_DTLB TRANSLATION  ACCESS:          0  HIT:          0  MISS:          0  iACCESS:          0  iHIT:          0  iMISS:          0  dACCESS:          0  dHIT:          0  dMISS:          0  itACCESS:          0  itHIT:          0  itMISS:          0  dtACCESS:          0  dtHIT:          0  dtMISS:          0
cpu0_DTLB PREFETCH  REQUESTED:          0  ISSUED:          0  CROSSED:          0  USEFUL:          0  USELESS:          0
cpu0_DTLB AVERAGE iMISS LATENCY: 0 cycles
cpu0_DTLB AVERAGE dMISS LATENCY: 14.1726 cycles
cpu0_DTLB AVERAGE itMISS LATENCY: 0 cycles
cpu0_DTLB AVERAGE dtMISS LATENCY: 0 cycles
cpu0_DTLB PAGE CROSSINGS (TLB HIT):         0 
cpu0_DTLB PAGE CROSSINGS (TLB MISS):         0 
cpu0_DTLB AVERAGE MISS LATENCY: 14.1726 cycles
cpu0_STLB TOTAL       ACCESS:    3260954  HIT:    2974373  MISS:     286581  iACCESS:     387371  iHIT:     297229  iMISS:      90142  dACCESS:    2873583  dHIT:    2677144  dMISS:     196439  itACCESS:          0  itHIT:          0  itMISS:          0  dtACCESS:          0  dtHIT:          0  dtMISS:          0
cpu0_STLB LOAD         ACCESS:    3260954  HIT:    2974373  MISS:     286581  iACCESS:     387371  iHIT:     297229  iMISS:      90142  dACCESS:    2873583  dHIT:    2677144  dMISS:     196439  itACCESS:          0  itHIT:          0  itMISS:          0  dtACCESS:          0  dtHIT:          0  dtMISS:          0
cpu0_STLB RFO          ACCESS:          0  HIT:          0  MISS:          0  iACCESS:          0  iHIT:          0  iMISS:          0  dACCESS:          0  dHIT:          0  dMISS:          0  itACCESS:          0  itHIT:          0  itMISS:          0  dtACCESS:          0  dtHIT:          0  dtMISS:          0
cpu0_STLB PREFETCH     ACCESS:          0  HIT:          0  MISS:          0  iACCESS:          0  iHIT:          0  iMISS:          0  dACCESS:          0  dHIT:          0  dMISS:          0  itACCESS:          0  itHIT:          0  itMISS:          0  dtACCESS:          0  dtHIT:          0  dtMISS:          0
cpu0_STLB WRITE        ACCESS:          0  HIT:          0  MISS:          0  iACCESS:          0  iHIT:          0  iMISS:          0  dACCESS:          0  dHIT:          0  dMISS:          0  itACCESS:          0  itHIT:          0  itMISS:          0  dtACCESS:          0  dtHIT:          0  dtMISS:          0
cpu0_STLB TRANSLATION  ACCESS:          0  HIT:          0  MISS:          0  iACCESS:          0  iHIT:          0  iMISS:          0  dACCESS:          0  dHIT:          0  dMISS:          0  itACCESS:          0  itHIT:          0  itMISS:          0  dtACCESS:          0  dtHIT:          0  dtMISS:          0
cpu0_STLB PREFETCH  REQUESTED:          0  ISSUED:          0  CROSSED:          0  USEFUL:          0  USELESS:          0
cpu0_STLB AVERAGE iMISS LATENCY: 54.6668 cycles
cpu0_STLB AVERAGE dMISS LATENCY: 187.716 cycles
cpu0_STLB AVERAGE itMISS LATENCY: 0 cycles
cpu0_STLB AVERAGE dtMISS LATENCY: 0 cycles
cpu0_STLB PAGE CROSSINGS (TLB HIT):         0 
cpu0_STLB PAGE CROSSINGS (TLB MISS):         0 
cpu0_STLB AVERAGE MISS LATENCY: 242.383 cycles
cpu0_L1D TOTAL       ACCESS:   48578092  HIT:   40557230  MISS:    8020862  iACCESS:          0  iHIT:          0  iMISS:          0  dACCESS:   48119405  dHIT:   40533669  dMISS:    7585736  itACCESS:     111688  itHIT:       9705  itMISS:     101983  dtACCESS:     346999  dtHIT:      13856  dtMISS:     333143
cpu0_L1D LOAD         ACCESS:   23262040  HIT:   19202159  MISS:    4059881  iACCESS:          0  iHIT:          0  iMISS:          0  dACCESS:   23262040  dHIT:   19202159  dMISS:    4059881  itACCESS:          0  itHIT:          0  itMISS:          0  dtACCESS:          0  dtHIT:          0  dtMISS:          0
cpu0_L1D RFO          ACCESS:          0  HIT:          0  MISS:          0  iACCESS:          0  iHIT:          0  iMISS:          0  dACCESS:          0  dHIT:          0  dMISS:          0  itACCESS:          0  itHIT:          0  itMISS:          0  dtACCESS:          0  dtHIT:          0  dtMISS:          0
cpu0_L1D PREFETCH     ACCESS:   15027211  HIT:   12274730  MISS:    2752481  iACCESS:          0  iHIT:          0  iMISS:          0  dACCESS:   15027211  dHIT:   12274730  dMISS:    2752481  itACCESS:          0  itHIT:          0  itMISS:          0  dtACCESS:          0  dtHIT:          0  dtMISS:          0
cpu0_L1D WRITE        ACCESS:    9830154  HIT:    9056780  MISS:     773374  iACCESS:          0  iHIT:          0  iMISS:          0  dACCESS:    9830154  dHIT:    9056780  dMISS:     773374  itACCESS:          0  itHIT:          0  itMISS:          0  dtACCESS:          0  dtHIT:          0  dtMISS:          0
cpu0_L1D TRANSLATION  ACCESS:     458687  HIT:      23561  MISS:     435126  iACCESS:          0  iHIT:          0  iMISS:          0  dACCESS:          0  dHIT:          0  dMISS:          0  itACCESS:     111688  itHIT:       9705  itMISS:     101983  dtACCESS:     346999  dtHIT:      13856  dtMISS:     333143
cpu0_L1D PREFETCH  REQUESTED:   23262040  ISSUED:   19617448  CROSSED:          0  USEFUL:     339365  USELESS:    1121413
cpu0_L1D AVERAGE iMISS LATENCY: 0 cycles
cpu0_L1D AVERAGE dMISS LATENCY: 33.1797 cycles
cpu0_L1D AVERAGE itMISS LATENCY: 1.83703 cycles
cpu0_L1D AVERAGE dtMISS LATENCY: 6.25165 cycles
cpu0_L1D PAGE CROSSINGS (TLB HIT):         0 
cpu0_L1D PAGE CROSSINGS (TLB MISS):         0 
cpu0_L1D AVERAGE MISS LATENCY: 41.2683 cycles
cpu0_L2C TOTAL       ACCESS:    9153613  HIT:    5588787  MISS:    3564826  iACCESS:    3059164  iHIT:    1901430  iMISS:    1157734  dACCESS:    5727455  dHIT:    3640971  dMISS:    2086484  itACCESS:      91080  itHIT:      15768  itMISS:      75312  dtACCESS:     275914  dtHIT:      30618  dtMISS:     245296
cpu0_L2C LOAD         ACCESS:    3347121  HIT:    2471566  MISS:     875555  iACCESS:     688352  iHIT:     446209  iMISS:     242143  dACCESS:    2658769  dHIT:    2025357  dMISS:     633412  itACCESS:          0  itHIT:          0  itMISS:          0  dtACCESS:          0  dtHIT:          0  dtMISS:          0
cpu0_L2C RFO          ACCESS:     237150  HIT:     106864  MISS:     130286  iACCESS:          0  iHIT:          0  iMISS:          0  dACCESS:     237150  dHIT:     106864  dMISS:     130286  itACCESS:          0  itHIT:          0  itMISS:          0  dtACCESS:          0  dtHIT:          0  dtMISS:          0
cpu0_L2C PREFETCH     ACCESS:    4866112  HIT:    2629957  MISS:    2236155  iACCESS:    2370812  iHIT:    1455221  iMISS:     915591  dACCESS:    2495300  dHIT:    1174736  dMISS:    1320564  itACCESS:          0  itHIT:          0  itMISS:          0  dtACCESS:          0  dtHIT:          0  dtMISS:          0
cpu0_L2C WRITE        ACCESS:     336236  HIT:     334014  MISS:       2222  iACCESS:          0  iHIT:          0  iMISS:          0  dACCESS:     336236  dHIT:     334014  dMISS:       2222  itACCESS:          0  itHIT:          0  itMISS:          0  dtACCESS:          0  dtHIT:          0  dtMISS:          0
cpu0_L2C TRANSLATION  ACCESS:     366994  HIT:      46386  MISS:     320608  iACCESS:          0  iHIT:          0  iMISS:          0  dACCESS:          0  dHIT:          0  dMISS:          0  itACCESS:      91080  itHIT:      15768  itMISS:      75312  dtACCESS:     275914  dtHIT:      30618  dtMISS:     245296
cpu0_L2C PREFETCH  REQUESTED:    1218267  ISSUED:    1218164  CROSSED:          0  USEFUL:     271493  USELESS:     248907
cpu0_L2C AVERAGE iMISS LATENCY: 39.9624 cycles
cpu0_L2C AVERAGE dMISS LATENCY: 82.016 cycles
cpu0_L2C AVERAGE itMISS LATENCY: 3.88153 cycles
cpu0_L2C AVERAGE dtMISS LATENCY: 13.2965 cycles
cpu0_L2C PAGE CROSSINGS (TLB HIT):         0 
cpu0_L2C PAGE CROSSINGS (TLB MISS):         0 
cpu0_L2C AVERAGE MISS LATENCY: 139.157 cycles
LLC TOTAL       ACCESS:    3588298  HIT:    1111100  MISS:    2477198  iACCESS:    1091024  iHIT:     332496  iMISS:     758528  dACCESS:    2176666  dHIT:     745671  dMISS:    1430995  itACCESS:      75312  itHIT:       6173  itMISS:      69139  dtACCESS:     245296  dtHIT:      26760  dtMISS:     218536
LLC LOAD         ACCESS:     869837  HIT:     284928  MISS:     584909  iACCESS:     241194  iHIT:      79535  iMISS:     161659  dACCESS:     628643  dHIT:     205393  dMISS:     423250  itACCESS:          0  itHIT:          0  itMISS:          0  dtACCESS:          0  dtHIT:          0  dtMISS:          0
LLC RFO          ACCESS:     130278  HIT:      36661  MISS:      93617  iACCESS:          0  iHIT:          0  iMISS:          0  dACCESS:     130278  dHIT:      36661  dMISS:      93617  itACCESS:          0  itHIT:          0  itMISS:          0  dtACCESS:          0  dtHIT:          0  dtMISS:          0
LLC PREFETCH     ACCESS:    2079078  HIT:     576082  MISS:    1502996  iACCESS:     849830  iHIT:     252961  iMISS:     596869  dACCESS:    1229248  dHIT:     323121  dMISS:     906127  itACCESS:          0  itHIT:          0  itMISS:          0  dtACCESS:          0  dtHIT:          0  dtMISS:          0
LLC WRITE        ACCESS:     188497  HIT:     180496  MISS:       8001  iACCESS:          0  iHIT:          0  iMISS:          0  dACCESS:     188497  dHIT:     180496  dMISS:       8001  itACCESS:          0  itHIT:          0  itMISS:          0  dtACCESS:          0  dtHIT:          0  dtMISS:          0
LLC TRANSLATION  ACCESS:     320608  HIT:      32933  MISS:     287675  iACCESS:          0  iHIT:          0  iMISS:          0  dACCESS:          0  dHIT:          0  dMISS:          0  itACCESS:      75312  itHIT:       6173  itMISS:      69139  dtACCESS:     245296  dtHIT:      26760  dtMISS:     218536
LLC PREFETCH  REQUESTED:          0  ISSUED:          0  CROSSED:          0  USEFUL:          0  USELESS:          0
LLC AVERAGE iMISS LATENCY: 48.8249 cycles
LLC AVERAGE dMISS LATENCY: 103.116 cycles
LLC AVERAGE itMISS LATENCY: 4.98281 cycles
LLC AVERAGE dtMISS LATENCY: 17.1775 cycles
LLC PAGE CROSSINGS (TLB HIT):         0 
LLC PAGE CROSSINGS (TLB MISS):         0 
LLC AVERAGE MISS LATENCY: 174.101 cycles

PageTableWalker TOTAL       ACCESS:     190840  
PageTableWalker AVERAGE LATENCY: 6.53454 cycles
PageTableWalker TOTAL LATENCY: 1247050 cycles

DRAM Statistics
Channel 0
 RQ ROW_BUFFER_HIT:     506098
  ROW_BUFFER_MISS:    1948992
 AVG DBUS CONGESTED CYCLE:    3.65549
 WQ ROW_BUFFER_HIT:      54232
  ROW_BUFFER_MISS:      53740  FULL:          0

