last_page:0x200000000000000
VMEM_RES_CAP:0x100000
PAGE_SIZE:4096
LOG2_PAGE_SIZE:12
LOG2_PAGE_TABLE_SIZE:9
page_table_levels:5
WARNING: physical memory size is smaller than virtual memory size
FDiP enabled with aggresivity 16

*** ChampSim Multicore Out-of-Order Simulator ***

Warmup Instructions: 50000000
Simulation Instructions: 100000000
Number of CPUs: 1
Small page size: 4096
Large page size: 2097152

CPU 0 Bimodal branch predictor
Basic BTB sets: 1024 ways: 8 indirect buffer size: 4096 RAS size: 64
Instruction page size distrubution: 0
Loading instruction page size distribution from /home/bsc/bsc018186/scratch/itp_asplos25_AE/dump/smt_srv85_ap_srv442_ap_1024i.pdst
Data page size distrubution: 0
Loading data page size distribution from /home/bsc/bsc018186/scratch/itp_asplos25_AE/dump/smt_srv85_ap_srv442_ap_1024i.pdst
cpu0_L2C IP-based stride prefetcher
cpu0_L2C is using xPTP/LRU
	TLB_LOWER_STRESS_THRESHOLD:1
	TLB_UPPER_STRESS_THRESHOLD:4
	MIN_EVICTION_POSITION:4
cpu0_L1D next line prefetcher
cpu0_STLB using iTP with max lru@8
cpu0_STLB using iTP with instr@0 and data@2
Init sat counter with 3 bits (max:50).
cpu0_L1I next line prefetcher
Off-chip DRAM Size: 4 GiB Channels: 1 Width: 64-bit Data Rate: 3200 MT/s
Heartbeat CPU 0 instructions: 10000000 cycles: 2500489 heartbeat IPC: 3.99922 cumulative IPC: 3.99922 (Simulation time: 0 hr 0 min 37 sec) 
Heartbeat CPU 0 instructions: 20000003 cycles: 5000581 heartbeat IPC: 3.99986 cumulative IPC: 3.99954 (Simulation time: 0 hr 1 min 17 sec) 
Heartbeat CPU 0 instructions: 30000001 cycles: 7500645 heartbeat IPC: 3.9999 cumulative IPC: 3.99966 (Simulation time: 0 hr 1 min 56 sec) 
Heartbeat CPU 0 instructions: 40000000 cycles: 10000808 heartbeat IPC: 3.99974 cumulative IPC: 3.99968 (Simulation time: 0 hr 2 min 36 sec) 
Heartbeat CPU 0 instructions: 50000003 cycles: 12501092 heartbeat IPC: 3.99955 cumulative IPC: 3.99966 (Simulation time: 0 hr 3 min 16 sec) 
Warmup finished CPU 0 instructions: 50000003 cycles: 12501093 cumulative IPC: 3.99966 (Simulation time: 0 hr 3 min 16 sec) 

Warmup complete CPU 0 instructions: 50000003 cycles: 12501093 (Simulation time: 0 hr 3 min 16 sec) 

Heartbeat CPU 0 instructions: 60000000 cycles: 37570025 heartbeat IPC: 0.3989 cumulative IPC: 0.398901 (Simulation time: 0 hr 4 min 33 sec) 
Heartbeat CPU 0 instructions: 70000004 cycles: 62510702 heartbeat IPC: 0.400952 cumulative IPC: 0.399924 (Simulation time: 0 hr 5 min 50 sec) 
Heartbeat CPU 0 instructions: 80000000 cycles: 89079621 heartbeat IPC: 0.37638 cumulative IPC: 0.391755 (Simulation time: 0 hr 7 min 9 sec) 
Heartbeat CPU 0 instructions: 90000002 cycles: 114606528 heartbeat IPC: 0.391744 cumulative IPC: 0.391752 (Simulation time: 0 hr 8 min 27 sec) 
Heartbeat CPU 0 instructions: 100000000 cycles: 139857121 heartbeat IPC: 0.396031 cumulative IPC: 0.392601 (Simulation time: 0 hr 9 min 44 sec) 
Heartbeat CPU 0 instructions: 110000000 cycles: 165654057 heartbeat IPC: 0.387643 cumulative IPC: 0.391766 (Simulation time: 0 hr 11 min 3 sec) 
Heartbeat CPU 0 instructions: 120000002 cycles: 190647381 heartbeat IPC: 0.400107 cumulative IPC: 0.392936 (Simulation time: 0 hr 12 min 20 sec) 
Heartbeat CPU 0 instructions: 130000000 cycles: 216789559 heartbeat IPC: 0.382524 cumulative IPC: 0.391604 (Simulation time: 0 hr 13 min 39 sec) 
Heartbeat CPU 0 instructions: 140000004 cycles: 241959773 heartbeat IPC: 0.397296 cumulative IPC: 0.392228 (Simulation time: 0 hr 14 min 57 sec) 
Heartbeat CPU 0 instructions: 150000000 cycles: 267846615 heartbeat IPC: 0.386297 cumulative IPC: 0.391627 (Simulation time: 0 hr 16 min 16 sec) 
Simulation finished CPU 0 instructions: 100000002 cycles: 255345524 cumulative IPC: 0.391627 (Simulation time: 0 hr 16 min 16 sec) 

Simulation complete CPU 0 instructions: 100000002 cycles: 255345524 (Simulation time: 0 hr 16 min 16 sec) 


ChampSim completed all CPUs

Saving instructions large page distribution to /home/bsc/bsc018186/scratch/itp_asplos25_AE/dump/smt_srv85_ap_srv442_ap_1024i.pdst...
Saving data large page distribution to /home/bsc/bsc018186/scratch/itp_asplos25_AE/dump/smt_srv85_ap_srv442_ap_1024i.pdst...
=== Simulation ===
CPU 0 runs /gpfs/projects/bsc18/MN4/bsc18/romol/ChampSim/traces/qualcomm_srv/smt_srv85_ap_srv442_ap_1024i.champsimtrace.xz

Region of Interest Statistics

CPU 0 cumulative IPC: 0.391627 instructions: 100000002 cycles: 255345524
CPU 0 Branch Prediction Accuracy: 76.4168% MPKI: 42.5144 Average ROB Occupancy at Mispredict: 11.3105
Branch type MPKI
BRANCH_DIRECT_JUMP: 1.30149
BRANCH_INDIRECT: 22.8738
BRANCH_CONDITIONAL: 11.5762
BRANCH_DIRECT_CALL: 2.38344
BRANCH_INDIRECT_CALL: 0.99014
BRANCH_RETURN: 3.38931

Instructions large pages: 0
Instructions small pages: 10002
Large page distribution for instructions: 0%

Data large pages: 0
Data small pages: 8864
Large page distribution for data: 0%

cpu0_L1I TOTAL       ACCESS:   39061934  HIT:   29928915  MISS:    9133019  iACCESS:   39061934  iHIT:   29928915  iMISS:    9133019  dACCESS:          0  dHIT:          0  dMISS:          0  itACCESS:          0  itHIT:          0  itMISS:          0  dtACCESS:          0  dtHIT:          0  dtMISS:          0
cpu0_L1I LOAD         ACCESS:   11717288  HIT:    9199389  MISS:    2517899  iACCESS:   11717288  iHIT:    9199389  iMISS:    2517899  dACCESS:          0  dHIT:          0  dMISS:          0  itACCESS:          0  itHIT:          0  itMISS:          0  dtACCESS:          0  dtHIT:          0  dtMISS:          0
cpu0_L1I RFO          ACCESS:          0  HIT:          0  MISS:          0  iACCESS:          0  iHIT:          0  iMISS:          0  dACCESS:          0  dHIT:          0  dMISS:          0  itACCESS:          0  itHIT:          0  itMISS:          0  dtACCESS:          0  dtHIT:          0  dtMISS:          0
cpu0_L1I PREFETCH     ACCESS:   27344646  HIT:   20729526  MISS:    6615120  iACCESS:   27344646  iHIT:   20729526  iMISS:    6615120  dACCESS:          0  dHIT:          0  dMISS:          0  itACCESS:          0  itHIT:          0  itMISS:          0  dtACCESS:          0  dtHIT:          0  dtMISS:          0
cpu0_L1I WRITE        ACCESS:          0  HIT:          0  MISS:          0  iACCESS:          0  iHIT:          0  iMISS:          0  dACCESS:          0  dHIT:          0  dMISS:          0  itACCESS:          0  itHIT:          0  itMISS:          0  dtACCESS:          0  dtHIT:          0  dtMISS:          0
cpu0_L1I TRANSLATION  ACCESS:          0  HIT:          0  MISS:          0  iACCESS:          0  iHIT:          0  iMISS:          0  dACCESS:          0  dHIT:          0  dMISS:          0  itACCESS:          0  itHIT:          0  itMISS:          0  dtACCESS:          0  dtHIT:          0  dtMISS:          0
cpu0_L1I PREFETCH  REQUESTED:   30104915  ISSUED:   30104283  CROSSED:          0  USEFUL:    2226623  USELESS:     780305
cpu0_L1I AVERAGE iMISS LATENCY: 19.1724 cycles
cpu0_L1I AVERAGE dMISS LATENCY: 0 cycles
cpu0_L1I AVERAGE itMISS LATENCY: 0 cycles
cpu0_L1I AVERAGE dtMISS LATENCY: 0 cycles
cpu0_L1I PAGE CROSSINGS (TLB HIT):         0 
cpu0_L1I PAGE CROSSINGS (TLB MISS):         0 
cpu0_L1I AVERAGE MISS LATENCY: 19.1724 cycles
cpu0_ITLB TOTAL       ACCESS:   32896802  HIT:   30595838  MISS:    2300964  iACCESS:   32896802  iHIT:   30595838  iMISS:    2300964  dACCESS:          0  dHIT:          0  dMISS:          0  itACCESS:          0  itHIT:          0  itMISS:          0  dtACCESS:          0  dtHIT:          0  dtMISS:          0
cpu0_ITLB LOAD         ACCESS:   32896802  HIT:   30595838  MISS:    2300964  iACCESS:   32896802  iHIT:   30595838  iMISS:    2300964  dACCESS:          0  dHIT:          0  dMISS:          0  itACCESS:          0  itHIT:          0  itMISS:          0  dtACCESS:          0  dtHIT:          0  dtMISS:          0
cpu0_ITLB RFO          ACCESS:          0  HIT:          0  MISS:          0  iACCESS:          0  iHIT:          0  iMISS:          0  dACCESS:          0  dHIT:          0  dMISS:          0  itACCESS:          0  itHIT:          0  itMISS:          0  dtACCESS:          0  dtHIT:          0  dtMISS:          0
cpu0_ITLB PREFETCH     ACCESS:          0  HIT:          0  MISS:          0  iACCESS:          0  iHIT:          0  iMISS:          0  dACCESS:          0  dHIT:          0  dMISS:          0  itACCESS:          0  itHIT:          0  itMISS:          0  dtACCESS:          0  dtHIT:          0  dtMISS:          0
cpu0_ITLB WRITE        ACCESS:          0  HIT:          0  MISS:          0  iACCESS:          0  iHIT:          0  iMISS:          0  dACCESS:          0  dHIT:          0  dMISS:          0  itACCESS:          0  itHIT:          0  itMISS:          0  dtACCESS:          0  dtHIT:          0  dtMISS:          0
cpu0_ITLB TRANSLATION  ACCESS:          0  HIT:          0  MISS:          0  iACCESS:          0  iHIT:          0  iMISS:          0  dACCESS:          0  dHIT:          0  dMISS:          0  itACCESS:          0  itHIT:          0  itMISS:          0  dtACCESS:          0  dtHIT:          0  dtMISS:          0
cpu0_ITLB PREFETCH  REQUESTED:          0  ISSUED:          0  CROSSED:          0  USEFUL:     391355  USELESS:      84468
cpu0_ITLB AVERAGE iMISS LATENCY: 4.89994 cycles
cpu0_ITLB AVERAGE dMISS LATENCY: 0 cycles
cpu0_ITLB AVERAGE itMISS LATENCY: 0 cycles
cpu0_ITLB AVERAGE dtMISS LATENCY: 0 cycles
cpu0_ITLB PAGE CROSSINGS (TLB HIT):         0 
cpu0_ITLB PAGE CROSSINGS (TLB MISS):         0 
cpu0_ITLB AVERAGE MISS LATENCY: 4.89994 cycles
cpu0_DTLB TOTAL       ACCESS:   28853350  HIT:   25165651  MISS:    3687699  iACCESS:          0  iHIT:          0  iMISS:          0  dACCESS:   28853350  dHIT:   25165651  dMISS:    3687699  itACCESS:          0  itHIT:          0  itMISS:          0  dtACCESS:          0  dtHIT:          0  dtMISS:          0
cpu0_DTLB LOAD         ACCESS:   28853350  HIT:   25165651  MISS:    3687699  iACCESS:          0  iHIT:          0  iMISS:          0  dACCESS:   28853350  dHIT:   25165651  dMISS:    3687699  itACCESS:          0  itHIT:          0  itMISS:          0  dtACCESS:          0  dtHIT:          0  dtMISS:          0
cpu0_DTLB RFO          ACCESS:          0  HIT:          0  MISS:          0  iACCESS:          0  iHIT:          0  iMISS:          0  dACCESS:          0  dHIT:          0  dMISS:          0  itACCESS:          0  itHIT:          0  itMISS:          0  dtACCESS:          0  dtHIT:          0  dtMISS:          0
cpu0_DTLB PREFETCH     ACCESS:          0  HIT:          0  MISS:          0  iACCESS:          0  iHIT:          0  iMISS:          0  dACCESS:          0  dHIT:          0  dMISS:          0  itACCESS:          0  itHIT:          0  itMISS:          0  dtACCESS:          0  dtHIT:          0  dtMISS:          0
cpu0_DTLB WRITE        ACCESS:          0  HIT:          0  MISS:          0  iACCESS:          0  iHIT:          0  iMISS:          0  dACCESS:          0  dHIT:          0  dMISS:          0  itACCESS:          0  itHIT:          0  itMISS:          0  dtACCESS:          0  dtHIT:          0  dtMISS:          0
cpu0_DTLB TRANSLATION  ACCESS:          0  HIT:          0  MISS:          0  iACCESS:          0  iHIT:          0  iMISS:          0  dACCESS:          0  dHIT:          0  dMISS:          0  itACCESS:          0  itHIT:          0  itMISS:          0  dtACCESS:          0  dtHIT:          0  dtMISS:          0
cpu0_DTLB PREFETCH  REQUESTED:          0  ISSUED:          0  CROSSED:          0  USEFUL:          0  USELESS:          0
cpu0_DTLB AVERAGE iMISS LATENCY: 0 cycles
cpu0_DTLB AVERAGE dMISS LATENCY: 18.7408 cycles
cpu0_DTLB AVERAGE itMISS LATENCY: 0 cycles
cpu0_DTLB AVERAGE dtMISS LATENCY: 0 cycles
cpu0_DTLB PAGE CROSSINGS (TLB HIT):         0 
cpu0_DTLB PAGE CROSSINGS (TLB MISS):         0 
cpu0_DTLB AVERAGE MISS LATENCY: 18.7408 cycles
cpu0_STLB TOTAL       ACCESS:    2618833  HIT:    2252387  MISS:     366446  iACCESS:     475825  iHIT:     430283  iMISS:      45542  dACCESS:    2143008  dHIT:    1822104  dMISS:     320904  itACCESS:          0  itHIT:          0  itMISS:          0  dtACCESS:          0  dtHIT:          0  dtMISS:          0
cpu0_STLB LOAD         ACCESS:    2618833  HIT:    2252387  MISS:     366446  iACCESS:     475825  iHIT:     430283  iMISS:      45542  dACCESS:    2143008  dHIT:    1822104  dMISS:     320904  itACCESS:          0  itHIT:          0  itMISS:          0  dtACCESS:          0  dtHIT:          0  dtMISS:          0
cpu0_STLB RFO          ACCESS:          0  HIT:          0  MISS:          0  iACCESS:          0  iHIT:          0  iMISS:          0  dACCESS:          0  dHIT:          0  dMISS:          0  itACCESS:          0  itHIT:          0  itMISS:          0  dtACCESS:          0  dtHIT:          0  dtMISS:          0
cpu0_STLB PREFETCH     ACCESS:          0  HIT:          0  MISS:          0  iACCESS:          0  iHIT:          0  iMISS:          0  dACCESS:          0  dHIT:          0  dMISS:          0  itACCESS:          0  itHIT:          0  itMISS:          0  dtACCESS:          0  dtHIT:          0  dtMISS:          0
cpu0_STLB WRITE        ACCESS:          0  HIT:          0  MISS:          0  iACCESS:          0  iHIT:          0  iMISS:          0  dACCESS:          0  dHIT:          0  dMISS:          0  itACCESS:          0  itHIT:          0  itMISS:          0  dtACCESS:          0  dtHIT:          0  dtMISS:          0
cpu0_STLB TRANSLATION  ACCESS:          0  HIT:          0  MISS:          0  iACCESS:          0  iHIT:          0  iMISS:          0  dACCESS:          0  dHIT:          0  dMISS:          0  itACCESS:          0  itHIT:          0  itMISS:          0  dtACCESS:          0  dtHIT:          0  dtMISS:          0
cpu0_STLB PREFETCH  REQUESTED:          0  ISSUED:          0  CROSSED:          0  USEFUL:          0  USELESS:          0
cpu0_STLB AVERAGE iMISS LATENCY: 20.5974 cycles
cpu0_STLB AVERAGE dMISS LATENCY: 141.453 cycles
cpu0_STLB AVERAGE itMISS LATENCY: 0 cycles
cpu0_STLB AVERAGE dtMISS LATENCY: 0 cycles
cpu0_STLB PAGE CROSSINGS (TLB HIT):         0 
cpu0_STLB PAGE CROSSINGS (TLB MISS):         0 
cpu0_STLB AVERAGE MISS LATENCY: 162.05 cycles
cpu0_L1D TOTAL       ACCESS:   45015277  HIT:   39081599  MISS:    5933678  iACCESS:          0  iHIT:          0  iMISS:          0  dACCESS:   44445376  dHIT:   39054508  dMISS:    5390868  itACCESS:      55970  itHIT:       3733  itMISS:      52237  dtACCESS:     513931  dtHIT:      23358  dtMISS:     490573
cpu0_L1D LOAD         ACCESS:   20283093  HIT:   17851207  MISS:    2431886  iACCESS:          0  iHIT:          0  iMISS:          0  dACCESS:   20283093  dHIT:   17851207  dMISS:    2431886  itACCESS:          0  itHIT:          0  itMISS:          0  dtACCESS:          0  dtHIT:          0  dtMISS:          0
cpu0_L1D RFO          ACCESS:          0  HIT:          0  MISS:          0  iACCESS:          0  iHIT:          0  iMISS:          0  dACCESS:          0  dHIT:          0  dMISS:          0  itACCESS:          0  itHIT:          0  itMISS:          0  dtACCESS:          0  dtHIT:          0  dtMISS:          0
cpu0_L1D PREFETCH     ACCESS:   14012863  HIT:   11646427  MISS:    2366436  iACCESS:          0  iHIT:          0  iMISS:          0  dACCESS:   14012863  dHIT:   11646427  dMISS:    2366436  itACCESS:          0  itHIT:          0  itMISS:          0  dtACCESS:          0  dtHIT:          0  dtMISS:          0
cpu0_L1D WRITE        ACCESS:   10149420  HIT:    9556874  MISS:     592546  iACCESS:          0  iHIT:          0  iMISS:          0  dACCESS:   10149420  dHIT:    9556874  dMISS:     592546  itACCESS:          0  itHIT:          0  itMISS:          0  dtACCESS:          0  dtHIT:          0  dtMISS:          0
cpu0_L1D TRANSLATION  ACCESS:     569901  HIT:      27091  MISS:     542810  iACCESS:          0  iHIT:          0  iMISS:          0  dACCESS:          0  dHIT:          0  dMISS:          0  itACCESS:      55970  itHIT:       3733  itMISS:      52237  dtACCESS:     513931  dtHIT:      23358  dtMISS:     490573
cpu0_L1D PREFETCH  REQUESTED:   20283093  ISSUED:   18481884  CROSSED:          0  USEFUL:     359926  USELESS:     947913
cpu0_L1D AVERAGE iMISS LATENCY: 0 cycles
cpu0_L1D AVERAGE dMISS LATENCY: 47.0705 cycles
cpu0_L1D AVERAGE itMISS LATENCY: 1.18943 cycles
cpu0_L1D AVERAGE dtMISS LATENCY: 7.8888 cycles
cpu0_L1D PAGE CROSSINGS (TLB HIT):         0 
cpu0_L1D PAGE CROSSINGS (TLB MISS):         0 
cpu0_L1D AVERAGE MISS LATENCY: 56.1487 cycles
cpu0_L2C TOTAL       ACCESS:    8721076  HIT:    2597948  MISS:    6123128  iACCESS:    3843227  iHIT:    1485112  iMISS:    2358115  dACCESS:    4367690  dHIT:     882143  dMISS:    3485547  itACCESS:      51351  itHIT:      11858  itMISS:      39493  dtACCESS:     458808  dtHIT:     218835  dtMISS:     239973
cpu0_L2C LOAD         ACCESS:    2108537  HIT:     504957  MISS:    1603580  iACCESS:     872773  iHIT:     303660  iMISS:     569113  dACCESS:    1235764  dHIT:     201297  dMISS:    1034467  itACCESS:          0  itHIT:          0  itMISS:          0  dtACCESS:          0  dtHIT:          0  dtMISS:          0
cpu0_L2C RFO          ACCESS:     218458  HIT:      32029  MISS:     186429  iACCESS:          0  iHIT:          0  iMISS:          0  dACCESS:     218458  dHIT:      32029  dMISS:     186429  itACCESS:          0  itHIT:          0  itMISS:          0  dtACCESS:          0  dtHIT:          0  dtMISS:          0
cpu0_L2C PREFETCH     ACCESS:    5535840  HIT:    1703044  MISS:    3832796  iACCESS:    2970454  iHIT:    1181452  iMISS:    1789002  dACCESS:    2565386  dHIT:     521592  dMISS:    2043794  itACCESS:          0  itHIT:          0  itMISS:          0  dtACCESS:          0  dtHIT:          0  dtMISS:          0
cpu0_L2C WRITE        ACCESS:     348082  HIT:     127225  MISS:     220857  iACCESS:          0  iHIT:          0  iMISS:          0  dACCESS:     348082  dHIT:     127225  dMISS:     220857  itACCESS:          0  itHIT:          0  itMISS:          0  dtACCESS:          0  dtHIT:          0  dtMISS:          0
cpu0_L2C TRANSLATION  ACCESS:     510159  HIT:     230693  MISS:     279466  iACCESS:          0  iHIT:          0  iMISS:          0  dACCESS:          0  dHIT:          0  dMISS:          0  itACCESS:      51351  itHIT:      11858  itMISS:      39493  dtACCESS:     458808  dtHIT:     218835  dtMISS:     239973
cpu0_L2C PREFETCH  REQUESTED:    1522234  ISSUED:    1522231  CROSSED:          0  USEFUL:     388178  USELESS:     413007
cpu0_L2C AVERAGE iMISS LATENCY: 23.0517 cycles
cpu0_L2C AVERAGE dMISS LATENCY: 53.0702 cycles
cpu0_L2C AVERAGE itMISS LATENCY: 1.07041 cycles
cpu0_L2C AVERAGE dtMISS LATENCY: 6.92751 cycles
cpu0_L2C PAGE CROSSINGS (TLB HIT):         0 
cpu0_L2C PAGE CROSSINGS (TLB MISS):         0 
cpu0_L2C AVERAGE MISS LATENCY: 84.1197 cycles
LLC TOTAL       ACCESS:    6004046  HIT:    3694471  MISS:    2309575  iACCESS:    2284477  iHIT:    1671974  iMISS:     612503  dACCESS:    3440103  dHIT:    1973887  dMISS:    1466216  itACCESS:      39493  itHIT:       6974  itMISS:      32519  dtACCESS:     239973  dtHIT:      41636  dtMISS:     198337
LLC LOAD         ACCESS:    1594990  HIT:    1007479  MISS:     587511  iACCESS:     567703  iHIT:     440159  iMISS:     127544  dACCESS:    1027287  dHIT:     567320  dMISS:     459967  itACCESS:          0  itHIT:          0  itMISS:          0  dtACCESS:          0  dtHIT:          0  dtMISS:          0
LLC RFO          ACCESS:     186400  HIT:      97120  MISS:      89280  iACCESS:          0  iHIT:          0  iMISS:          0  dACCESS:     186400  dHIT:      97120  dMISS:      89280  itACCESS:          0  itHIT:          0  itMISS:          0  dtACCESS:          0  dtHIT:          0  dtMISS:          0
LLC PREFETCH     ACCESS:    3664157  HIT:    2266920  MISS:    1397237  iACCESS:    1716774  iHIT:    1231815  iMISS:     484959  dACCESS:    1947383  dHIT:    1035105  dMISS:     912278  itACCESS:          0  itHIT:          0  itMISS:          0  dtACCESS:          0  dtHIT:          0  dtMISS:          0
LLC WRITE        ACCESS:     279033  HIT:     274342  MISS:       4691  iACCESS:          0  iHIT:          0  iMISS:          0  dACCESS:     279033  dHIT:     274342  dMISS:       4691  itACCESS:          0  itHIT:          0  itMISS:          0  dtACCESS:          0  dtHIT:          0  dtMISS:          0
LLC TRANSLATION  ACCESS:     279466  HIT:      48610  MISS:     230856  iACCESS:          0  iHIT:          0  iMISS:          0  dACCESS:          0  dHIT:          0  dMISS:          0  itACCESS:      39493  itHIT:       6974  itMISS:      32519  dtACCESS:     239973  dtHIT:      41636  dtMISS:     198337
LLC PREFETCH  REQUESTED:          0  ISSUED:          0  CROSSED:          0  USEFUL:          0  USELESS:          0
LLC AVERAGE iMISS LATENCY: 41.9265 cycles
LLC AVERAGE dMISS LATENCY: 115.253 cycles
LLC AVERAGE itMISS LATENCY: 2.50008 cycles
LLC AVERAGE dtMISS LATENCY: 16.3139 cycles
LLC PAGE CROSSINGS (TLB HIT):         0 
LLC PAGE CROSSINGS (TLB MISS):         0 
LLC AVERAGE MISS LATENCY: 175.993 cycles

PageTableWalker TOTAL       ACCESS:     181495  
PageTableWalker AVERAGE LATENCY: 6.05314 cycles
PageTableWalker TOTAL LATENCY: 1098614 cycles

DRAM Statistics
Channel 0
 RQ ROW_BUFFER_HIT:     467404
  ROW_BUFFER_MISS:    1818646
 AVG DBUS CONGESTED CYCLE:    3.64995
 WQ ROW_BUFFER_HIT:      64419
  ROW_BUFFER_MISS:      66006  FULL:          0

