last_page:0x200000000000000
VMEM_RES_CAP:0x100000
PAGE_SIZE:4096
LOG2_PAGE_SIZE:12
LOG2_PAGE_TABLE_SIZE:9
page_table_levels:5
WARNING: physical memory size is smaller than virtual memory size
FDiP enabled with aggresivity 16

*** ChampSim Multicore Out-of-Order Simulator ***

Warmup Instructions: 50000000
Simulation Instructions: 100000000
Number of CPUs: 1
Small page size: 4096
Large page size: 2097152

CPU 0 Bimodal branch predictor
Basic BTB sets: 1024 ways: 8 indirect buffer size: 4096 RAS size: 64
Instruction page size distrubution: 0
Loading instruction page size distribution from /home/bsc/bsc018186/scratch/itp_asplos25_AE/dump/smt_srv12_ap_srv727_ap_1024i.pdst
Data page size distrubution: 0
Loading data page size distribution from /home/bsc/bsc018186/scratch/itp_asplos25_AE/dump/smt_srv12_ap_srv727_ap_1024i.pdst
cpu0_L2C IP-based stride prefetcher
cpu0_L2C is using PTP replacement policy:
	TLB_STRESS_THRESHOLD:0
	PTE_EVICTION_RATIO:0
cpu0_L1D next line prefetcher
cpu0_L1I next line prefetcher
Off-chip DRAM Size: 4 GiB Channels: 1 Width: 64-bit Data Rate: 3200 MT/s
Heartbeat CPU 0 instructions: 10000000 cycles: 2500794 heartbeat IPC: 3.99874 cumulative IPC: 3.99874 (Simulation time: 0 hr 0 min 41 sec) 
Heartbeat CPU 0 instructions: 20000003 cycles: 5001124 heartbeat IPC: 3.99948 cumulative IPC: 3.99911 (Simulation time: 0 hr 1 min 23 sec) 
Heartbeat CPU 0 instructions: 30000000 cycles: 7501743 heartbeat IPC: 3.99901 cumulative IPC: 3.99908 (Simulation time: 0 hr 2 min 7 sec) 
Heartbeat CPU 0 instructions: 40000000 cycles: 10001938 heartbeat IPC: 3.99969 cumulative IPC: 3.99923 (Simulation time: 0 hr 2 min 51 sec) 
Heartbeat CPU 0 instructions: 50000002 cycles: 12502168 heartbeat IPC: 3.99964 cumulative IPC: 3.99931 (Simulation time: 0 hr 3 min 35 sec) 
Warmup finished CPU 0 instructions: 50000002 cycles: 12502169 cumulative IPC: 3.99931 (Simulation time: 0 hr 3 min 35 sec) 

Warmup complete CPU 0 instructions: 50000002 cycles: 12502169 (Simulation time: 0 hr 3 min 35 sec) 

Heartbeat CPU 0 instructions: 60000004 cycles: 43111521 heartbeat IPC: 0.326698 cumulative IPC: 0.326698 (Simulation time: 0 hr 5 min 6 sec) 
Heartbeat CPU 0 instructions: 70000004 cycles: 73979624 heartbeat IPC: 0.32396 cumulative IPC: 0.325323 (Simulation time: 0 hr 6 min 35 sec) 
Heartbeat CPU 0 instructions: 80000001 cycles: 105819251 heartbeat IPC: 0.314074 cumulative IPC: 0.321485 (Simulation time: 0 hr 8 min 5 sec) 
Heartbeat CPU 0 instructions: 90000002 cycles: 133075264 heartbeat IPC: 0.366892 cumulative IPC: 0.331749 (Simulation time: 0 hr 9 min 27 sec) 
Heartbeat CPU 0 instructions: 100000000 cycles: 164164212 heartbeat IPC: 0.321658 cumulative IPC: 0.329681 (Simulation time: 0 hr 10 min 55 sec) 
Heartbeat CPU 0 instructions: 110000000 cycles: 196169219 heartbeat IPC: 0.312452 cumulative IPC: 0.326679 (Simulation time: 0 hr 12 min 25 sec) 
Heartbeat CPU 0 instructions: 120000002 cycles: 226287628 heartbeat IPC: 0.332023 cumulative IPC: 0.327432 (Simulation time: 0 hr 13 min 51 sec) 
Heartbeat CPU 0 instructions: 130000000 cycles: 257347734 heartbeat IPC: 0.321957 cumulative IPC: 0.326737 (Simulation time: 0 hr 15 min 19 sec) 
Heartbeat CPU 0 instructions: 140000000 cycles: 289163384 heartbeat IPC: 0.314311 cumulative IPC: 0.325308 (Simulation time: 0 hr 16 min 48 sec) 
Heartbeat CPU 0 instructions: 150000002 cycles: 320204674 heartbeat IPC: 0.322152 cumulative IPC: 0.32499 (Simulation time: 0 hr 18 min 16 sec) 
Simulation finished CPU 0 instructions: 100000000 cycles: 307702506 cumulative IPC: 0.32499 (Simulation time: 0 hr 18 min 16 sec) 

Simulation complete CPU 0 instructions: 100000000 cycles: 307702506 (Simulation time: 0 hr 18 min 16 sec) 


ChampSim completed all CPUs

Saving instructions large page distribution to /home/bsc/bsc018186/scratch/itp_asplos25_AE/dump/smt_srv12_ap_srv727_ap_1024i.pdst...
Saving data large page distribution to /home/bsc/bsc018186/scratch/itp_asplos25_AE/dump/smt_srv12_ap_srv727_ap_1024i.pdst...
=== Simulation ===
CPU 0 runs /gpfs/projects/bsc18/MN4/bsc18/romol/ChampSim/traces/qualcomm_srv/smt_srv12_ap_srv727_ap_1024i.champsimtrace.xz

Region of Interest Statistics

CPU 0 cumulative IPC: 0.32499 instructions: 100000000 cycles: 307702506
CPU 0 Branch Prediction Accuracy: 74.6726% MPKI: 45.8504 Average ROB Occupancy at Mispredict: 10.5567
Branch type MPKI
BRANCH_DIRECT_JUMP: 1.44036
BRANCH_INDIRECT: 23.3874
BRANCH_CONDITIONAL: 13.5391
BRANCH_DIRECT_CALL: 2.79709
BRANCH_INDIRECT_CALL: 1.12405
BRANCH_RETURN: 3.56237

Instructions large pages: 0
Instructions small pages: 11302
Large page distribution for instructions: 0%

Data large pages: 0
Data small pages: 9440
Large page distribution for data: 0%

cpu0_L1I TOTAL       ACCESS:   39116503  HIT:   30465306  MISS:    8651197  iACCESS:   39116503  iHIT:   30465306  iMISS:    8651197  dACCESS:          0  dHIT:          0  dMISS:          0  itACCESS:          0  itHIT:          0  itMISS:          0  dtACCESS:          0  dtHIT:          0  dtMISS:          0
cpu0_L1I LOAD         ACCESS:   11613236  HIT:    9268307  MISS:    2344929  iACCESS:   11613236  iHIT:    9268307  iMISS:    2344929  dACCESS:          0  dHIT:          0  dMISS:          0  itACCESS:          0  itHIT:          0  itMISS:          0  dtACCESS:          0  dtHIT:          0  dtMISS:          0
cpu0_L1I RFO          ACCESS:          0  HIT:          0  MISS:          0  iACCESS:          0  iHIT:          0  iMISS:          0  dACCESS:          0  dHIT:          0  dMISS:          0  itACCESS:          0  itHIT:          0  itMISS:          0  dtACCESS:          0  dtHIT:          0  dtMISS:          0
cpu0_L1I PREFETCH     ACCESS:   27503267  HIT:   21196999  MISS:    6306268  iACCESS:   27503267  iHIT:   21196999  iMISS:    6306268  dACCESS:          0  dHIT:          0  dMISS:          0  itACCESS:          0  itHIT:          0  itMISS:          0  dtACCESS:          0  dtHIT:          0  dtMISS:          0
cpu0_L1I WRITE        ACCESS:          0  HIT:          0  MISS:          0  iACCESS:          0  iHIT:          0  iMISS:          0  dACCESS:          0  dHIT:          0  dMISS:          0  itACCESS:          0  itHIT:          0  itMISS:          0  dtACCESS:          0  dtHIT:          0  dtMISS:          0
cpu0_L1I TRANSLATION  ACCESS:          0  HIT:          0  MISS:          0  iACCESS:          0  iHIT:          0  iMISS:          0  dACCESS:          0  dHIT:          0  dMISS:          0  itACCESS:          0  itHIT:          0  itMISS:          0  dtACCESS:          0  dtHIT:          0  dtMISS:          0
cpu0_L1I PREFETCH  REQUESTED:   30231351  ISSUED:   30231344  CROSSED:          0  USEFUL:    2208563  USELESS:     771464
cpu0_L1I AVERAGE iMISS LATENCY: 25.2773 cycles
cpu0_L1I AVERAGE dMISS LATENCY: 0 cycles
cpu0_L1I AVERAGE itMISS LATENCY: 0 cycles
cpu0_L1I AVERAGE dtMISS LATENCY: 0 cycles
cpu0_L1I PAGE CROSSINGS (TLB HIT):         0 
cpu0_L1I PAGE CROSSINGS (TLB MISS):         0 
cpu0_L1I AVERAGE MISS LATENCY: 25.2773 cycles
cpu0_ITLB TOTAL       ACCESS:   33220839  HIT:   30987030  MISS:    2233809  iACCESS:   33220839  iHIT:   30987030  iMISS:    2233809  dACCESS:          0  dHIT:          0  dMISS:          0  itACCESS:          0  itHIT:          0  itMISS:          0  dtACCESS:          0  dtHIT:          0  dtMISS:          0
cpu0_ITLB LOAD         ACCESS:   33220839  HIT:   30987030  MISS:    2233809  iACCESS:   33220839  iHIT:   30987030  iMISS:    2233809  dACCESS:          0  dHIT:          0  dMISS:          0  itACCESS:          0  itHIT:          0  itMISS:          0  dtACCESS:          0  dtHIT:          0  dtMISS:          0
cpu0_ITLB RFO          ACCESS:          0  HIT:          0  MISS:          0  iACCESS:          0  iHIT:          0  iMISS:          0  dACCESS:          0  dHIT:          0  dMISS:          0  itACCESS:          0  itHIT:          0  itMISS:          0  dtACCESS:          0  dtHIT:          0  dtMISS:          0
cpu0_ITLB PREFETCH     ACCESS:          0  HIT:          0  MISS:          0  iACCESS:          0  iHIT:          0  iMISS:          0  dACCESS:          0  dHIT:          0  dMISS:          0  itACCESS:          0  itHIT:          0  itMISS:          0  dtACCESS:          0  dtHIT:          0  dtMISS:          0
cpu0_ITLB WRITE        ACCESS:          0  HIT:          0  MISS:          0  iACCESS:          0  iHIT:          0  iMISS:          0  dACCESS:          0  dHIT:          0  dMISS:          0  itACCESS:          0  itHIT:          0  itMISS:          0  dtACCESS:          0  dtHIT:          0  dtMISS:          0
cpu0_ITLB TRANSLATION  ACCESS:          0  HIT:          0  MISS:          0  iACCESS:          0  iHIT:          0  iMISS:          0  dACCESS:          0  dHIT:          0  dMISS:          0  itACCESS:          0  itHIT:          0  itMISS:          0  dtACCESS:          0  dtHIT:          0  dtMISS:          0
cpu0_ITLB PREFETCH  REQUESTED:          0  ISSUED:          0  CROSSED:          0  USEFUL:     393681  USELESS:      80146
cpu0_ITLB AVERAGE iMISS LATENCY: 10.91 cycles
cpu0_ITLB AVERAGE dMISS LATENCY: 0 cycles
cpu0_ITLB AVERAGE itMISS LATENCY: 0 cycles
cpu0_ITLB AVERAGE dtMISS LATENCY: 0 cycles
cpu0_ITLB PAGE CROSSINGS (TLB HIT):         0 
cpu0_ITLB PAGE CROSSINGS (TLB MISS):         0 
cpu0_ITLB AVERAGE MISS LATENCY: 10.91 cycles
cpu0_DTLB TOTAL       ACCESS:   28983708  HIT:   25488059  MISS:    3495649  iACCESS:          0  iHIT:          0  iMISS:          0  dACCESS:   28983708  dHIT:   25488059  dMISS:    3495649  itACCESS:          0  itHIT:          0  itMISS:          0  dtACCESS:          0  dtHIT:          0  dtMISS:          0
cpu0_DTLB LOAD         ACCESS:   28983708  HIT:   25488059  MISS:    3495649  iACCESS:          0  iHIT:          0  iMISS:          0  dACCESS:   28983708  dHIT:   25488059  dMISS:    3495649  itACCESS:          0  itHIT:          0  itMISS:          0  dtACCESS:          0  dtHIT:          0  dtMISS:          0
cpu0_DTLB RFO          ACCESS:          0  HIT:          0  MISS:          0  iACCESS:          0  iHIT:          0  iMISS:          0  dACCESS:          0  dHIT:          0  dMISS:          0  itACCESS:          0  itHIT:          0  itMISS:          0  dtACCESS:          0  dtHIT:          0  dtMISS:          0
cpu0_DTLB PREFETCH     ACCESS:          0  HIT:          0  MISS:          0  iACCESS:          0  iHIT:          0  iMISS:          0  dACCESS:          0  dHIT:          0  dMISS:          0  itACCESS:          0  itHIT:          0  itMISS:          0  dtACCESS:          0  dtHIT:          0  dtMISS:          0
cpu0_DTLB WRITE        ACCESS:          0  HIT:          0  MISS:          0  iACCESS:          0  iHIT:          0  iMISS:          0  dACCESS:          0  dHIT:          0  dMISS:          0  itACCESS:          0  itHIT:          0  itMISS:          0  dtACCESS:          0  dtHIT:          0  dtMISS:          0
cpu0_DTLB TRANSLATION  ACCESS:          0  HIT:          0  MISS:          0  iACCESS:          0  iHIT:          0  iMISS:          0  dACCESS:          0  dHIT:          0  dMISS:          0  itACCESS:          0  itHIT:          0  itMISS:          0  dtACCESS:          0  dtHIT:          0  dtMISS:          0
cpu0_DTLB PREFETCH  REQUESTED:          0  ISSUED:          0  CROSSED:          0  USEFUL:          0  USELESS:          0
cpu0_DTLB AVERAGE iMISS LATENCY: 0 cycles
cpu0_DTLB AVERAGE dMISS LATENCY: 26.0862 cycles
cpu0_DTLB AVERAGE itMISS LATENCY: 0 cycles
cpu0_DTLB AVERAGE dtMISS LATENCY: 0 cycles
cpu0_DTLB PAGE CROSSINGS (TLB HIT):         0 
cpu0_DTLB PAGE CROSSINGS (TLB MISS):         0 
cpu0_DTLB AVERAGE MISS LATENCY: 26.0862 cycles
cpu0_STLB TOTAL       ACCESS:    2538012  HIT:    2156379  MISS:     381633  iACCESS:     473832  iHIT:     353603  iMISS:     120229  dACCESS:    2064180  dHIT:    1802776  dMISS:     261404  itACCESS:          0  itHIT:          0  itMISS:          0  dtACCESS:          0  dtHIT:          0  dtMISS:          0
cpu0_STLB LOAD         ACCESS:    2538012  HIT:    2156379  MISS:     381633  iACCESS:     473832  iHIT:     353603  iMISS:     120229  dACCESS:    2064180  dHIT:    1802776  dMISS:     261404  itACCESS:          0  itHIT:          0  itMISS:          0  dtACCESS:          0  dtHIT:          0  dtMISS:          0
cpu0_STLB RFO          ACCESS:          0  HIT:          0  MISS:          0  iACCESS:          0  iHIT:          0  iMISS:          0  dACCESS:          0  dHIT:          0  dMISS:          0  itACCESS:          0  itHIT:          0  itMISS:          0  dtACCESS:          0  dtHIT:          0  dtMISS:          0
cpu0_STLB PREFETCH     ACCESS:          0  HIT:          0  MISS:          0  iACCESS:          0  iHIT:          0  iMISS:          0  dACCESS:          0  dHIT:          0  dMISS:          0  itACCESS:          0  itHIT:          0  itMISS:          0  dtACCESS:          0  dtHIT:          0  dtMISS:          0
cpu0_STLB WRITE        ACCESS:          0  HIT:          0  MISS:          0  iACCESS:          0  iHIT:          0  iMISS:          0  dACCESS:          0  dHIT:          0  dMISS:          0  itACCESS:          0  itHIT:          0  itMISS:          0  dtACCESS:          0  dtHIT:          0  dtMISS:          0
cpu0_STLB TRANSLATION  ACCESS:          0  HIT:          0  MISS:          0  iACCESS:          0  iHIT:          0  iMISS:          0  dACCESS:          0  dHIT:          0  dMISS:          0  itACCESS:          0  itHIT:          0  itMISS:          0  dtACCESS:          0  dtHIT:          0  dtMISS:          0
cpu0_STLB PREFETCH  REQUESTED:          0  ISSUED:          0  CROSSED:          0  USEFUL:          0  USELESS:          0
cpu0_STLB AVERAGE iMISS LATENCY: 53.9083 cycles
cpu0_STLB AVERAGE dMISS LATENCY: 195.383 cycles
cpu0_STLB AVERAGE itMISS LATENCY: 0 cycles
cpu0_STLB AVERAGE dtMISS LATENCY: 0 cycles
cpu0_STLB PAGE CROSSINGS (TLB HIT):         0 
cpu0_STLB PAGE CROSSINGS (TLB MISS):         0 
cpu0_STLB AVERAGE MISS LATENCY: 249.291 cycles
cpu0_L1D TOTAL       ACCESS:   45360091  HIT:   39343113  MISS:    6016978  iACCESS:          0  iHIT:          0  iMISS:          0  dACCESS:   44792586  dHIT:   39309839  dMISS:    5482747  itACCESS:     134257  itHIT:      14943  itMISS:     119314  dtACCESS:     433248  dtHIT:      18331  dtMISS:     414917
cpu0_L1D LOAD         ACCESS:   20499748  HIT:   18039801  MISS:    2459947  iACCESS:          0  iHIT:          0  iMISS:          0  dACCESS:   20499748  dHIT:   18039801  dMISS:    2459947  itACCESS:          0  itHIT:          0  itMISS:          0  dtACCESS:          0  dtHIT:          0  dtMISS:          0
cpu0_L1D RFO          ACCESS:          0  HIT:          0  MISS:          0  iACCESS:          0  iHIT:          0  iMISS:          0  dACCESS:          0  dHIT:          0  dMISS:          0  itACCESS:          0  itHIT:          0  itMISS:          0  dtACCESS:          0  dtHIT:          0  dtMISS:          0
cpu0_L1D PREFETCH     ACCESS:   14121643  HIT:   11682986  MISS:    2438657  iACCESS:          0  iHIT:          0  iMISS:          0  dACCESS:   14121643  dHIT:   11682986  dMISS:    2438657  itACCESS:          0  itHIT:          0  itMISS:          0  dtACCESS:          0  dtHIT:          0  dtMISS:          0
cpu0_L1D WRITE        ACCESS:   10171195  HIT:    9587052  MISS:     584143  iACCESS:          0  iHIT:          0  iMISS:          0  dACCESS:   10171195  dHIT:    9587052  dMISS:     584143  itACCESS:          0  itHIT:          0  itMISS:          0  dtACCESS:          0  dtHIT:          0  dtMISS:          0
cpu0_L1D TRANSLATION  ACCESS:     567505  HIT:      33274  MISS:     534231  iACCESS:          0  iHIT:          0  iMISS:          0  dACCESS:          0  dHIT:          0  dMISS:          0  itACCESS:     134257  itHIT:      14943  itMISS:     119314  dtACCESS:     433248  dtHIT:      18331  dtMISS:     414917
cpu0_L1D PREFETCH  REQUESTED:   20499748  ISSUED:   18574082  CROSSED:          0  USEFUL:     361630  USELESS:     934938
cpu0_L1D AVERAGE iMISS LATENCY: 0 cycles
cpu0_L1D AVERAGE dMISS LATENCY: 48.2714 cycles
cpu0_L1D AVERAGE itMISS LATENCY: 3.21743 cycles
cpu0_L1D AVERAGE dtMISS LATENCY: 11.604 cycles
cpu0_L1D PAGE CROSSINGS (TLB HIT):         0 
cpu0_L1D PAGE CROSSINGS (TLB MISS):         0 
cpu0_L1D AVERAGE MISS LATENCY: 63.0928 cycles
cpu0_L2C TOTAL       ACCESS:    8650898  HIT:    4172297  MISS:    4478601  iACCESS:    3784491  iHIT:    2276730  iMISS:    1507761  dACCESS:    4373598  dHIT:    1836593  dMISS:    2537005  itACCESS:     118869  itHIT:      20865  itMISS:      98004  dtACCESS:     373940  dtHIT:      38109  dtMISS:     335831
cpu0_L2C LOAD         ACCESS:    2054061  HIT:    1003497  MISS:    1050564  iACCESS:     841782  iHIT:     529875  iMISS:     311907  dACCESS:    1212279  dHIT:     473622  dMISS:     738657  itACCESS:          0  itHIT:          0  itMISS:          0  dtACCESS:          0  dtHIT:          0  dtMISS:          0
cpu0_L2C RFO          ACCESS:     215303  HIT:      81103  MISS:     134200  iACCESS:          0  iHIT:          0  iMISS:          0  dACCESS:     215303  dHIT:      81103  dMISS:     134200  itACCESS:          0  itHIT:          0  itMISS:          0  dtACCESS:          0  dtHIT:          0  dtMISS:          0
cpu0_L2C PREFETCH     ACCESS:    5547544  HIT:    2692354  MISS:    2855190  iACCESS:    2942709  iHIT:    1746855  iMISS:    1195854  dACCESS:    2604835  dHIT:     945499  dMISS:    1659336  itACCESS:          0  itHIT:          0  itMISS:          0  dtACCESS:          0  dtHIT:          0  dtMISS:          0
cpu0_L2C WRITE        ACCESS:     341181  HIT:     336369  MISS:       4812  iACCESS:          0  iHIT:          0  iMISS:          0  dACCESS:     341181  dHIT:     336369  dMISS:       4812  itACCESS:          0  itHIT:          0  itMISS:          0  dtACCESS:          0  dtHIT:          0  dtMISS:          0
cpu0_L2C TRANSLATION  ACCESS:     492809  HIT:      58974  MISS:     433835  iACCESS:          0  iHIT:          0  iMISS:          0  dACCESS:          0  dHIT:          0  dMISS:          0  itACCESS:     118869  itHIT:      20865  itMISS:      98004  dtACCESS:     373940  dtHIT:      38109  dtMISS:     335831
cpu0_L2C PREFETCH  REQUESTED:    1542357  ISSUED:    1542355  CROSSED:          0  USEFUL:     361279  USELESS:     330692
cpu0_L2C AVERAGE iMISS LATENCY: 41.7939 cycles
cpu0_L2C AVERAGE dMISS LATENCY: 81.2888 cycles
cpu0_L2C AVERAGE itMISS LATENCY: 4.06107 cycles
cpu0_L2C AVERAGE dtMISS LATENCY: 14.7588 cycles
cpu0_L2C PAGE CROSSINGS (TLB HIT):         0 
cpu0_L2C PAGE CROSSINGS (TLB MISS):         0 
cpu0_L2C AVERAGE MISS LATENCY: 141.903 cycles
LLC TOTAL       ACCESS:    4458965  HIT:    1250107  MISS:    3208858  iACCESS:    1415235  iHIT:     402852  iMISS:    1012383  dACCESS:    2609895  dHIT:     809669  dMISS:    1800226  itACCESS:      98004  itHIT:       6772  itMISS:      91232  dtACCESS:     335831  dtHIT:      30814  dtMISS:     305017
LLC LOAD         ACCESS:    1044227  HIT:     312669  MISS:     731558  iACCESS:     310779  iHIT:      95496  iMISS:     215283  dACCESS:     733448  dHIT:     217173  dMISS:     516275  itACCESS:          0  itHIT:          0  itMISS:          0  dtACCESS:          0  dtHIT:          0  dtMISS:          0
LLC RFO          ACCESS:     134192  HIT:      38544  MISS:      95648  iACCESS:          0  iHIT:          0  iMISS:          0  dACCESS:     134192  dHIT:      38544  dMISS:      95648  itACCESS:          0  itHIT:          0  itMISS:          0  dtACCESS:          0  dtHIT:          0  dtMISS:          0
LLC PREFETCH     ACCESS:    2637449  HIT:     662900  MISS:    1974549  iACCESS:    1104456  iHIT:     307356  iMISS:     797100  dACCESS:    1532993  dHIT:     355544  dMISS:    1177449  itACCESS:          0  itHIT:          0  itMISS:          0  dtACCESS:          0  dtHIT:          0  dtMISS:          0
LLC WRITE        ACCESS:     209262  HIT:     198408  MISS:      10854  iACCESS:          0  iHIT:          0  iMISS:          0  dACCESS:     209262  dHIT:     198408  dMISS:      10854  itACCESS:          0  itHIT:          0  itMISS:          0  dtACCESS:          0  dtHIT:          0  dtMISS:          0
LLC TRANSLATION  ACCESS:     433835  HIT:      37586  MISS:     396249  iACCESS:          0  iHIT:          0  iMISS:          0  dACCESS:          0  dHIT:          0  dMISS:          0  itACCESS:      98004  itHIT:       6772  itMISS:      91232  dtACCESS:     335831  dtHIT:      30814  dtMISS:     305017
LLC PREFETCH  REQUESTED:          0  ISSUED:          0  CROSSED:          0  USEFUL:          0  USELESS:          0
LLC AVERAGE iMISS LATENCY: 49.6369 cycles
LLC AVERAGE dMISS LATENCY: 99.7591 cycles
LLC AVERAGE itMISS LATENCY: 5.0622 cycles
LLC AVERAGE dtMISS LATENCY: 18.5287 cycles
LLC PAGE CROSSINGS (TLB HIT):         0 
LLC PAGE CROSSINGS (TLB MISS):         0 
LLC AVERAGE MISS LATENCY: 172.987 cycles

PageTableWalker TOTAL       ACCESS:     186748  
PageTableWalker AVERAGE LATENCY: 6.4798 cycles
PageTableWalker TOTAL LATENCY: 1210089 cycles

DRAM Statistics
Channel 0
 RQ ROW_BUFFER_HIT:     680657
  ROW_BUFFER_MISS:    2496142
 AVG DBUS CONGESTED CYCLE:    3.65154
 WQ ROW_BUFFER_HIT:      67608
  ROW_BUFFER_MISS:      56758  FULL:          0

