last_page:0x200000000000000
VMEM_RES_CAP:0x100000
PAGE_SIZE:4096
LOG2_PAGE_SIZE:12
LOG2_PAGE_TABLE_SIZE:9
page_table_levels:5
WARNING: physical memory size is smaller than virtual memory size
FDiP enabled with aggresivity 16

*** ChampSim Multicore Out-of-Order Simulator ***

Warmup Instructions: 50000000
Simulation Instructions: 100000000
Number of CPUs: 1
Small page size: 4096
Large page size: 2097152

CPU 0 Bimodal branch predictor
Basic BTB sets: 1024 ways: 8 indirect buffer size: 4096 RAS size: 64
Instruction page size distrubution: 0
Loading instruction page size distribution from /home/bsc/bsc018186/scratch/itp_asplos25_AE/dump/smt_srv537_ap_srv128_ap_1024i.pdst
Data page size distrubution: 0
Loading data page size distribution from /home/bsc/bsc018186/scratch/itp_asplos25_AE/dump/smt_srv537_ap_srv128_ap_1024i.pdst
cpu0_L2C IP-based stride prefetcher
cpu0_L2C is using xPTP/LRU
	TLB_LOWER_STRESS_THRESHOLD:1
	TLB_UPPER_STRESS_THRESHOLD:4
	MIN_EVICTION_POSITION:4
cpu0_L1D next line prefetcher
cpu0_STLB using iTP with max lru@8
cpu0_STLB using iTP with instr@0 and data@2
Init sat counter with 3 bits (max:50).
cpu0_L1I next line prefetcher
Off-chip DRAM Size: 4 GiB Channels: 1 Width: 64-bit Data Rate: 3200 MT/s
Heartbeat CPU 0 instructions: 10000003 cycles: 2500367 heartbeat IPC: 3.99942 cumulative IPC: 3.99942 (Simulation time: 0 hr 0 min 37 sec) 
Heartbeat CPU 0 instructions: 20000002 cycles: 5080123 heartbeat IPC: 3.87634 cumulative IPC: 3.93692 (Simulation time: 0 hr 1 min 17 sec) 
Heartbeat CPU 0 instructions: 30000000 cycles: 7630660 heartbeat IPC: 3.92075 cumulative IPC: 3.93151 (Simulation time: 0 hr 1 min 58 sec) 
Heartbeat CPU 0 instructions: 40000001 cycles: 10170642 heartbeat IPC: 3.93704 cumulative IPC: 3.93289 (Simulation time: 0 hr 2 min 39 sec) 
Heartbeat CPU 0 instructions: 50000003 cycles: 12670863 heartbeat IPC: 3.99965 cumulative IPC: 3.94607 (Simulation time: 0 hr 3 min 18 sec) 
Warmup finished CPU 0 instructions: 50000003 cycles: 12670864 cumulative IPC: 3.94607 (Simulation time: 0 hr 3 min 18 sec) 

Warmup complete CPU 0 instructions: 50000003 cycles: 12670864 (Simulation time: 0 hr 3 min 18 sec) 

Heartbeat CPU 0 instructions: 60000000 cycles: 39938056 heartbeat IPC: 0.366741 cumulative IPC: 0.366741 (Simulation time: 0 hr 4 min 38 sec) 
Heartbeat CPU 0 instructions: 70000000 cycles: 66592078 heartbeat IPC: 0.375178 cumulative IPC: 0.370912 (Simulation time: 0 hr 5 min 57 sec) 
Heartbeat CPU 0 instructions: 80000001 cycles: 93888380 heartbeat IPC: 0.366351 cumulative IPC: 0.369379 (Simulation time: 0 hr 7 min 17 sec) 
Heartbeat CPU 0 instructions: 90000000 cycles: 119340250 heartbeat IPC: 0.392899 cumulative IPC: 0.374991 (Simulation time: 0 hr 8 min 34 sec) 
Heartbeat CPU 0 instructions: 100000003 cycles: 146693207 heartbeat IPC: 0.365592 cumulative IPC: 0.373073 (Simulation time: 0 hr 9 min 54 sec) 
Heartbeat CPU 0 instructions: 110000000 cycles: 174161814 heartbeat IPC: 0.364052 cumulative IPC: 0.371538 (Simulation time: 0 hr 11 min 15 sec) 
Heartbeat CPU 0 instructions: 120000000 cycles: 201322773 heartbeat IPC: 0.368176 cumulative IPC: 0.371054 (Simulation time: 0 hr 12 min 35 sec) 
Heartbeat CPU 0 instructions: 130000000 cycles: 227436320 heartbeat IPC: 0.382943 cumulative IPC: 0.3725 (Simulation time: 0 hr 13 min 53 sec) 
Heartbeat CPU 0 instructions: 140000000 cycles: 253768244 heartbeat IPC: 0.379768 cumulative IPC: 0.373294 (Simulation time: 0 hr 15 min 12 sec) 
Heartbeat CPU 0 instructions: 150000002 cycles: 281014879 heartbeat IPC: 0.367018 cumulative IPC: 0.372656 (Simulation time: 0 hr 16 min 33 sec) 
Simulation finished CPU 0 instructions: 100000004 cycles: 268344017 cumulative IPC: 0.372656 (Simulation time: 0 hr 16 min 33 sec) 

Simulation complete CPU 0 instructions: 100000004 cycles: 268344017 (Simulation time: 0 hr 16 min 33 sec) 


ChampSim completed all CPUs

Saving instructions large page distribution to /home/bsc/bsc018186/scratch/itp_asplos25_AE/dump/smt_srv537_ap_srv128_ap_1024i.pdst...
Saving data large page distribution to /home/bsc/bsc018186/scratch/itp_asplos25_AE/dump/smt_srv537_ap_srv128_ap_1024i.pdst...
=== Simulation ===
CPU 0 runs /gpfs/projects/bsc18/MN4/bsc18/romol/ChampSim/traces/qualcomm_srv/smt_srv537_ap_srv128_ap_1024i.champsimtrace.xz

Region of Interest Statistics

CPU 0 cumulative IPC: 0.372656 instructions: 100000004 cycles: 268344017
CPU 0 Branch Prediction Accuracy: 75.2714% MPKI: 44.6924 Average ROB Occupancy at Mispredict: 10.5549
Branch type MPKI
BRANCH_DIRECT_JUMP: 1.38374
BRANCH_INDIRECT: 23.0341
BRANCH_CONDITIONAL: 13.0606
BRANCH_DIRECT_CALL: 2.6741
BRANCH_INDIRECT_CALL: 1.02154
BRANCH_RETURN: 3.5183

Instructions large pages: 0
Instructions small pages: 10363
Large page distribution for instructions: 0%

Data large pages: 0
Data small pages: 8912
Large page distribution for data: 0%

cpu0_L1I TOTAL       ACCESS:   39388123  HIT:   30372980  MISS:    9015143  iACCESS:   39388123  iHIT:   30372980  iMISS:    9015143  dACCESS:          0  dHIT:          0  dMISS:          0  itACCESS:          0  itHIT:          0  itMISS:          0  dtACCESS:          0  dtHIT:          0  dtMISS:          0
cpu0_L1I LOAD         ACCESS:   11757394  HIT:    9304703  MISS:    2452691  iACCESS:   11757394  iHIT:    9304703  iMISS:    2452691  dACCESS:          0  dHIT:          0  dMISS:          0  itACCESS:          0  itHIT:          0  itMISS:          0  dtACCESS:          0  dtHIT:          0  dtMISS:          0
cpu0_L1I RFO          ACCESS:          0  HIT:          0  MISS:          0  iACCESS:          0  iHIT:          0  iMISS:          0  dACCESS:          0  dHIT:          0  dMISS:          0  itACCESS:          0  itHIT:          0  itMISS:          0  dtACCESS:          0  dtHIT:          0  dtMISS:          0
cpu0_L1I PREFETCH     ACCESS:   27630729  HIT:   21068277  MISS:    6562452  iACCESS:   27630729  iHIT:   21068277  iMISS:    6562452  dACCESS:          0  dHIT:          0  dMISS:          0  itACCESS:          0  itHIT:          0  itMISS:          0  dtACCESS:          0  dtHIT:          0  dtMISS:          0
cpu0_L1I WRITE        ACCESS:          0  HIT:          0  MISS:          0  iACCESS:          0  iHIT:          0  iMISS:          0  dACCESS:          0  dHIT:          0  dMISS:          0  itACCESS:          0  itHIT:          0  itMISS:          0  dtACCESS:          0  dtHIT:          0  dtMISS:          0
cpu0_L1I TRANSLATION  ACCESS:          0  HIT:          0  MISS:          0  iACCESS:          0  iHIT:          0  iMISS:          0  dACCESS:          0  dHIT:          0  dMISS:          0  itACCESS:          0  itHIT:          0  itMISS:          0  dtACCESS:          0  dtHIT:          0  dtMISS:          0
cpu0_L1I PREFETCH  REQUESTED:   30342637  ISSUED:   30342330  CROSSED:          0  USEFUL:    2223426  USELESS:     769993
cpu0_L1I AVERAGE iMISS LATENCY: 22.4622 cycles
cpu0_L1I AVERAGE dMISS LATENCY: 0 cycles
cpu0_L1I AVERAGE itMISS LATENCY: 0 cycles
cpu0_L1I AVERAGE dtMISS LATENCY: 0 cycles
cpu0_L1I PAGE CROSSINGS (TLB HIT):         0 
cpu0_L1I PAGE CROSSINGS (TLB MISS):         0 
cpu0_L1I AVERAGE MISS LATENCY: 22.4622 cycles
cpu0_ITLB TOTAL       ACCESS:   33269523  HIT:   31020852  MISS:    2248671  iACCESS:   33269523  iHIT:   31020852  iMISS:    2248671  dACCESS:          0  dHIT:          0  dMISS:          0  itACCESS:          0  itHIT:          0  itMISS:          0  dtACCESS:          0  dtHIT:          0  dtMISS:          0
cpu0_ITLB LOAD         ACCESS:   33269523  HIT:   31020852  MISS:    2248671  iACCESS:   33269523  iHIT:   31020852  iMISS:    2248671  dACCESS:          0  dHIT:          0  dMISS:          0  itACCESS:          0  itHIT:          0  itMISS:          0  dtACCESS:          0  dtHIT:          0  dtMISS:          0
cpu0_ITLB RFO          ACCESS:          0  HIT:          0  MISS:          0  iACCESS:          0  iHIT:          0  iMISS:          0  dACCESS:          0  dHIT:          0  dMISS:          0  itACCESS:          0  itHIT:          0  itMISS:          0  dtACCESS:          0  dtHIT:          0  dtMISS:          0
cpu0_ITLB PREFETCH     ACCESS:          0  HIT:          0  MISS:          0  iACCESS:          0  iHIT:          0  iMISS:          0  dACCESS:          0  dHIT:          0  dMISS:          0  itACCESS:          0  itHIT:          0  itMISS:          0  dtACCESS:          0  dtHIT:          0  dtMISS:          0
cpu0_ITLB WRITE        ACCESS:          0  HIT:          0  MISS:          0  iACCESS:          0  iHIT:          0  iMISS:          0  dACCESS:          0  dHIT:          0  dMISS:          0  itACCESS:          0  itHIT:          0  itMISS:          0  dtACCESS:          0  dtHIT:          0  dtMISS:          0
cpu0_ITLB TRANSLATION  ACCESS:          0  HIT:          0  MISS:          0  iACCESS:          0  iHIT:          0  iMISS:          0  dACCESS:          0  dHIT:          0  dMISS:          0  itACCESS:          0  itHIT:          0  itMISS:          0  dtACCESS:          0  dtHIT:          0  dtMISS:          0
cpu0_ITLB PREFETCH  REQUESTED:          0  ISSUED:          0  CROSSED:          0  USEFUL:     393375  USELESS:      80080
cpu0_ITLB AVERAGE iMISS LATENCY: 6.04859 cycles
cpu0_ITLB AVERAGE dMISS LATENCY: 0 cycles
cpu0_ITLB AVERAGE itMISS LATENCY: 0 cycles
cpu0_ITLB AVERAGE dtMISS LATENCY: 0 cycles
cpu0_ITLB PAGE CROSSINGS (TLB HIT):         0 
cpu0_ITLB PAGE CROSSINGS (TLB MISS):         0 
cpu0_ITLB AVERAGE MISS LATENCY: 6.04859 cycles
cpu0_DTLB TOTAL       ACCESS:   28860563  HIT:   25496747  MISS:    3363816  iACCESS:          0  iHIT:          0  iMISS:          0  dACCESS:   28860563  dHIT:   25496747  dMISS:    3363816  itACCESS:          0  itHIT:          0  itMISS:          0  dtACCESS:          0  dtHIT:          0  dtMISS:          0
cpu0_DTLB LOAD         ACCESS:   28860563  HIT:   25496747  MISS:    3363816  iACCESS:          0  iHIT:          0  iMISS:          0  dACCESS:   28860563  dHIT:   25496747  dMISS:    3363816  itACCESS:          0  itHIT:          0  itMISS:          0  dtACCESS:          0  dtHIT:          0  dtMISS:          0
cpu0_DTLB RFO          ACCESS:          0  HIT:          0  MISS:          0  iACCESS:          0  iHIT:          0  iMISS:          0  dACCESS:          0  dHIT:          0  dMISS:          0  itACCESS:          0  itHIT:          0  itMISS:          0  dtACCESS:          0  dtHIT:          0  dtMISS:          0
cpu0_DTLB PREFETCH     ACCESS:          0  HIT:          0  MISS:          0  iACCESS:          0  iHIT:          0  iMISS:          0  dACCESS:          0  dHIT:          0  dMISS:          0  itACCESS:          0  itHIT:          0  itMISS:          0  dtACCESS:          0  dtHIT:          0  dtMISS:          0
cpu0_DTLB WRITE        ACCESS:          0  HIT:          0  MISS:          0  iACCESS:          0  iHIT:          0  iMISS:          0  dACCESS:          0  dHIT:          0  dMISS:          0  itACCESS:          0  itHIT:          0  itMISS:          0  dtACCESS:          0  dtHIT:          0  dtMISS:          0
cpu0_DTLB TRANSLATION  ACCESS:          0  HIT:          0  MISS:          0  iACCESS:          0  iHIT:          0  iMISS:          0  dACCESS:          0  dHIT:          0  dMISS:          0  itACCESS:          0  itHIT:          0  itMISS:          0  dtACCESS:          0  dtHIT:          0  dtMISS:          0
cpu0_DTLB PREFETCH  REQUESTED:          0  ISSUED:          0  CROSSED:          0  USEFUL:          0  USELESS:          0
cpu0_DTLB AVERAGE iMISS LATENCY: 0 cycles
cpu0_DTLB AVERAGE dMISS LATENCY: 19.2107 cycles
cpu0_DTLB AVERAGE itMISS LATENCY: 0 cycles
cpu0_DTLB AVERAGE dtMISS LATENCY: 0 cycles
cpu0_DTLB PAGE CROSSINGS (TLB HIT):         0 
cpu0_DTLB PAGE CROSSINGS (TLB MISS):         0 
cpu0_DTLB AVERAGE MISS LATENCY: 19.2107 cycles
cpu0_STLB TOTAL       ACCESS:    2410189  HIT:    2049658  MISS:     360531  iACCESS:     473459  iHIT:     412364  iMISS:      61095  dACCESS:    1936730  dHIT:    1637294  dMISS:     299436  itACCESS:          0  itHIT:          0  itMISS:          0  dtACCESS:          0  dtHIT:          0  dtMISS:          0
cpu0_STLB LOAD         ACCESS:    2410189  HIT:    2049658  MISS:     360531  iACCESS:     473459  iHIT:     412364  iMISS:      61095  dACCESS:    1936730  dHIT:    1637294  dMISS:     299436  itACCESS:          0  itHIT:          0  itMISS:          0  dtACCESS:          0  dtHIT:          0  dtMISS:          0
cpu0_STLB RFO          ACCESS:          0  HIT:          0  MISS:          0  iACCESS:          0  iHIT:          0  iMISS:          0  dACCESS:          0  dHIT:          0  dMISS:          0  itACCESS:          0  itHIT:          0  itMISS:          0  dtACCESS:          0  dtHIT:          0  dtMISS:          0
cpu0_STLB PREFETCH     ACCESS:          0  HIT:          0  MISS:          0  iACCESS:          0  iHIT:          0  iMISS:          0  dACCESS:          0  dHIT:          0  dMISS:          0  itACCESS:          0  itHIT:          0  itMISS:          0  dtACCESS:          0  dtHIT:          0  dtMISS:          0
cpu0_STLB WRITE        ACCESS:          0  HIT:          0  MISS:          0  iACCESS:          0  iHIT:          0  iMISS:          0  dACCESS:          0  dHIT:          0  dMISS:          0  itACCESS:          0  itHIT:          0  itMISS:          0  dtACCESS:          0  dtHIT:          0  dtMISS:          0
cpu0_STLB TRANSLATION  ACCESS:          0  HIT:          0  MISS:          0  iACCESS:          0  iHIT:          0  iMISS:          0  dACCESS:          0  dHIT:          0  dMISS:          0  itACCESS:          0  itHIT:          0  itMISS:          0  dtACCESS:          0  dtHIT:          0  dtMISS:          0
cpu0_STLB PREFETCH  REQUESTED:          0  ISSUED:          0  CROSSED:          0  USEFUL:          0  USELESS:          0
cpu0_STLB AVERAGE iMISS LATENCY: 27.3929 cycles
cpu0_STLB AVERAGE dMISS LATENCY: 135.968 cycles
cpu0_STLB AVERAGE itMISS LATENCY: 0 cycles
cpu0_STLB AVERAGE dtMISS LATENCY: 0 cycles
cpu0_STLB PAGE CROSSINGS (TLB HIT):         0 
cpu0_STLB PAGE CROSSINGS (TLB MISS):         0 
cpu0_STLB AVERAGE MISS LATENCY: 163.361 cycles
cpu0_L1D TOTAL       ACCESS:   44934682  HIT:   39214749  MISS:    5719933  iACCESS:          0  iHIT:          0  iMISS:          0  dACCESS:   44376520  dHIT:   39187382  dMISS:    5189138  itACCESS:      71177  itHIT:       5623  itMISS:      65554  dtACCESS:     486985  dtHIT:      21744  dtMISS:     465241
cpu0_L1D LOAD         ACCESS:   20225554  HIT:   17905985  MISS:    2319569  iACCESS:          0  iHIT:          0  iMISS:          0  dACCESS:   20225554  dHIT:   17905985  dMISS:    2319569  itACCESS:          0  itHIT:          0  itMISS:          0  dtACCESS:          0  dtHIT:          0  dtMISS:          0
cpu0_L1D RFO          ACCESS:          0  HIT:          0  MISS:          0  iACCESS:          0  iHIT:          0  iMISS:          0  dACCESS:          0  dHIT:          0  dMISS:          0  itACCESS:          0  itHIT:          0  itMISS:          0  dtACCESS:          0  dtHIT:          0  dtMISS:          0
cpu0_L1D PREFETCH     ACCESS:   13952952  HIT:   11665260  MISS:    2287692  iACCESS:          0  iHIT:          0  iMISS:          0  dACCESS:   13952952  dHIT:   11665260  dMISS:    2287692  itACCESS:          0  itHIT:          0  itMISS:          0  dtACCESS:          0  dtHIT:          0  dtMISS:          0
cpu0_L1D WRITE        ACCESS:   10198014  HIT:    9616137  MISS:     581877  iACCESS:          0  iHIT:          0  iMISS:          0  dACCESS:   10198014  dHIT:    9616137  dMISS:     581877  itACCESS:          0  itHIT:          0  itMISS:          0  dtACCESS:          0  dtHIT:          0  dtMISS:          0
cpu0_L1D TRANSLATION  ACCESS:     558162  HIT:      27367  MISS:     530795  iACCESS:          0  iHIT:          0  iMISS:          0  dACCESS:          0  dHIT:          0  dMISS:          0  itACCESS:      71177  itHIT:       5623  itMISS:      65554  dtACCESS:     486985  dtHIT:      21744  dtMISS:     465241
cpu0_L1D PREFETCH  REQUESTED:   20225554  ISSUED:   18404208  CROSSED:          0  USEFUL:     372973  USELESS:     913986
cpu0_L1D AVERAGE iMISS LATENCY: 0 cycles
cpu0_L1D AVERAGE dMISS LATENCY: 47.7844 cycles
cpu0_L1D AVERAGE itMISS LATENCY: 1.61614 cycles
cpu0_L1D AVERAGE dtMISS LATENCY: 7.72518 cycles
cpu0_L1D PAGE CROSSINGS (TLB HIT):         0 
cpu0_L1D PAGE CROSSINGS (TLB MISS):         0 
cpu0_L1D AVERAGE MISS LATENCY: 57.1257 cycles
cpu0_L2C TOTAL       ACCESS:    8653876  HIT:    2521666  MISS:    6132210  iACCESS:    3805558  iHIT:    1442035  iMISS:    2363523  dACCESS:    4351991  dHIT:     859077  dMISS:    3492914  itACCESS:      65544  itHIT:      13581  itMISS:      51963  dtACCESS:     430783  dtHIT:     206973  dtMISS:     223810
cpu0_L2C LOAD         ACCESS:    2054279  HIT:     490106  MISS:    1564173  iACCESS:     848511  iHIT:     292755  iMISS:     555756  dACCESS:    1205768  dHIT:     197351  dMISS:    1008417  itACCESS:          0  itHIT:          0  itMISS:          0  dtACCESS:          0  dtHIT:          0  dtMISS:          0
cpu0_L2C RFO          ACCESS:     215660  HIT:      29874  MISS:     185786  iACCESS:          0  iHIT:          0  iMISS:          0  dACCESS:     215660  dHIT:      29874  dMISS:     185786  itACCESS:          0  itHIT:          0  itMISS:          0  dtACCESS:          0  dtHIT:          0  dtMISS:          0
cpu0_L2C PREFETCH     ACCESS:    5541860  HIT:    1656639  MISS:    3885221  iACCESS:    2957047  iHIT:    1149280  iMISS:    1807767  dACCESS:    2584813  dHIT:     507359  dMISS:    2077454  itACCESS:          0  itHIT:          0  itMISS:          0  dtACCESS:          0  dtHIT:          0  dtMISS:          0
cpu0_L2C WRITE        ACCESS:     345750  HIT:     124493  MISS:     221257  iACCESS:          0  iHIT:          0  iMISS:          0  dACCESS:     345750  dHIT:     124493  dMISS:     221257  itACCESS:          0  itHIT:          0  itMISS:          0  dtACCESS:          0  dtHIT:          0  dtMISS:          0
cpu0_L2C TRANSLATION  ACCESS:     496327  HIT:     220554  MISS:     275773  iACCESS:          0  iHIT:          0  iMISS:          0  dACCESS:          0  dHIT:          0  dMISS:          0  itACCESS:      65544  itHIT:      13581  itMISS:      51963  dtACCESS:     430783  dtHIT:     206973  dtMISS:     223810
cpu0_L2C PREFETCH  REQUESTED:    1541238  ISSUED:    1541230  CROSSED:          0  USEFUL:     384011  USELESS:     442886
cpu0_L2C AVERAGE iMISS LATENCY: 27.7163 cycles
cpu0_L2C AVERAGE dMISS LATENCY: 54.8101 cycles
cpu0_L2C AVERAGE itMISS LATENCY: 1.40248 cycles
cpu0_L2C AVERAGE dtMISS LATENCY: 6.53388 cycles
cpu0_L2C PAGE CROSSINGS (TLB HIT):         0 
cpu0_L2C PAGE CROSSINGS (TLB MISS):         0 
cpu0_L2C AVERAGE MISS LATENCY: 90.4628 cycles
LLC TOTAL       ACCESS:    5969724  HIT:    3368871  MISS:    2600853  iACCESS:    2273015  iHIT:    1473457  iMISS:     799558  dACCESS:    3420936  dHIT:    1849496  dMISS:    1571440  itACCESS:      51963  itHIT:       9356  itMISS:      42607  dtACCESS:     223810  dtHIT:      36562  dtMISS:     187248
LLC LOAD         ACCESS:    1557094  HIT:     936718  MISS:     620376  iACCESS:     554581  iHIT:     386361  iMISS:     168220  dACCESS:    1002513  dHIT:     550357  dMISS:     452156  itACCESS:          0  itHIT:          0  itMISS:          0  dtACCESS:          0  dtHIT:          0  dtMISS:          0
LLC RFO          ACCESS:     185763  HIT:      93150  MISS:      92613  iACCESS:          0  iHIT:          0  iMISS:          0  dACCESS:     185763  dHIT:      93150  dMISS:      92613  itACCESS:          0  itHIT:          0  itMISS:          0  dtACCESS:          0  dtHIT:          0  dtMISS:          0
LLC PREFETCH     ACCESS:    3671354  HIT:    2017991  MISS:    1653363  iACCESS:    1718434  iHIT:    1087096  iMISS:     631338  dACCESS:    1952920  dHIT:     930895  dMISS:    1022025  itACCESS:          0  itHIT:          0  itMISS:          0  dtACCESS:          0  dtHIT:          0  dtMISS:          0
LLC WRITE        ACCESS:     279740  HIT:     275094  MISS:       4646  iACCESS:          0  iHIT:          0  iMISS:          0  dACCESS:     279740  dHIT:     275094  dMISS:       4646  itACCESS:          0  itHIT:          0  itMISS:          0  dtACCESS:          0  dtHIT:          0  dtMISS:          0
LLC TRANSLATION  ACCESS:     275773  HIT:      45918  MISS:     229855  iACCESS:          0  iHIT:          0  iMISS:          0  dACCESS:          0  dHIT:          0  dMISS:          0  itACCESS:      51963  itHIT:       9356  itMISS:      42607  dtACCESS:     223810  dtHIT:      36562  dtMISS:     187248
LLC PREFETCH  REQUESTED:          0  ISSUED:          0  CROSSED:          0  USEFUL:          0  USELESS:          0
LLC AVERAGE iMISS LATENCY: 48.3522 cycles
LLC AVERAGE dMISS LATENCY: 106.59 cycles
LLC AVERAGE itMISS LATENCY: 2.91222 cycles
LLC AVERAGE dtMISS LATENCY: 13.7054 cycles
LLC PAGE CROSSINGS (TLB HIT):         0 
LLC PAGE CROSSINGS (TLB MISS):         0 
LLC AVERAGE MISS LATENCY: 171.559 cycles

PageTableWalker TOTAL       ACCESS:     128242  
PageTableWalker AVERAGE LATENCY: 6.08912 cycles
PageTableWalker TOTAL LATENCY: 780880 cycles

DRAM Statistics
Channel 0
 RQ ROW_BUFFER_HIT:     573712
  ROW_BUFFER_MISS:    2005420
 AVG DBUS CONGESTED CYCLE:    3.65995
 WQ ROW_BUFFER_HIT:      65781
  ROW_BUFFER_MISS:      66206  FULL:          0

