last_page:0x200000000000000
VMEM_RES_CAP:0x100000
PAGE_SIZE:4096
LOG2_PAGE_SIZE:12
LOG2_PAGE_TABLE_SIZE:9
page_table_levels:5
WARNING: physical memory size is smaller than virtual memory size
FDiP enabled with aggresivity 16

*** ChampSim Multicore Out-of-Order Simulator ***

Warmup Instructions: 50000000
Simulation Instructions: 100000000
Number of CPUs: 1
Small page size: 4096
Large page size: 2097152

CPU 0 Bimodal branch predictor
Basic BTB sets: 1024 ways: 8 indirect buffer size: 4096 RAS size: 64
Instruction page size distrubution: 0
Loading instruction page size distribution from /home/bsc/bsc018186/scratch/itp_asplos25_AE/dump/smt_srv537_ap_srv194_ap_1024i.pdst
Data page size distrubution: 0
Loading data page size distribution from /home/bsc/bsc018186/scratch/itp_asplos25_AE/dump/smt_srv537_ap_srv194_ap_1024i.pdst
cpu0_L2C IP-based stride prefetcher
cpu0_L1D next line prefetcher
cpu0_L1I next line prefetcher
Off-chip DRAM Size: 4 GiB Channels: 1 Width: 64-bit Data Rate: 3200 MT/s
Heartbeat CPU 0 instructions: 10000003 cycles: 2500641 heartbeat IPC: 3.99898 cumulative IPC: 3.99898 (Simulation time: 0 hr 0 min 38 sec) 
Heartbeat CPU 0 instructions: 20000002 cycles: 5001193 heartbeat IPC: 3.99912 cumulative IPC: 3.99905 (Simulation time: 0 hr 1 min 18 sec) 
Heartbeat CPU 0 instructions: 30000003 cycles: 7501637 heartbeat IPC: 3.9993 cumulative IPC: 3.99913 (Simulation time: 0 hr 1 min 59 sec) 
Heartbeat CPU 0 instructions: 40000000 cycles: 10002520 heartbeat IPC: 3.99859 cumulative IPC: 3.999 (Simulation time: 0 hr 2 min 40 sec) 
Heartbeat CPU 0 instructions: 50000003 cycles: 12579870 heartbeat IPC: 3.87996 cumulative IPC: 3.97461 (Simulation time: 0 hr 3 min 20 sec) 
Warmup finished CPU 0 instructions: 50000003 cycles: 12579871 cumulative IPC: 3.97461 (Simulation time: 0 hr 3 min 20 sec) 

Warmup complete CPU 0 instructions: 50000003 cycles: 12579871 (Simulation time: 0 hr 3 min 20 sec) 

Heartbeat CPU 0 instructions: 60000004 cycles: 29701833 heartbeat IPC: 0.584046 cumulative IPC: 0.584046 (Simulation time: 0 hr 4 min 29 sec) 
Heartbeat CPU 0 instructions: 70000001 cycles: 51665153 heartbeat IPC: 0.455305 cumulative IPC: 0.511702 (Simulation time: 0 hr 5 min 44 sec) 
Heartbeat CPU 0 instructions: 80000003 cycles: 84010708 heartbeat IPC: 0.309162 cumulative IPC: 0.419987 (Simulation time: 0 hr 7 min 12 sec) 
Heartbeat CPU 0 instructions: 90000000 cycles: 115142392 heartbeat IPC: 0.321217 cumulative IPC: 0.390006 (Simulation time: 0 hr 8 min 38 sec) 
Heartbeat CPU 0 instructions: 100000003 cycles: 146280587 heartbeat IPC: 0.32115 cumulative IPC: 0.37397 (Simulation time: 0 hr 10 min 4 sec) 
Heartbeat CPU 0 instructions: 110000000 cycles: 177791763 heartbeat IPC: 0.317348 cumulative IPC: 0.36317 (Simulation time: 0 hr 11 min 32 sec) 
Heartbeat CPU 0 instructions: 120000003 cycles: 209590279 heartbeat IPC: 0.314481 cumulative IPC: 0.355312 (Simulation time: 0 hr 12 min 59 sec) 
Heartbeat CPU 0 instructions: 130000001 cycles: 240902307 heartbeat IPC: 0.319367 cumulative IPC: 0.350382 (Simulation time: 0 hr 14 min 30 sec) 
Heartbeat CPU 0 instructions: 140000004 cycles: 273326779 heartbeat IPC: 0.30841 cumulative IPC: 0.345163 (Simulation time: 0 hr 16 min 2 sec) 
Heartbeat CPU 0 instructions: 150000003 cycles: 305958674 heartbeat IPC: 0.306449 cumulative IPC: 0.340857 (Simulation time: 0 hr 17 min 32 sec) 
Simulation finished CPU 0 instructions: 100000000 cycles: 293378804 cumulative IPC: 0.340857 (Simulation time: 0 hr 17 min 32 sec) 

Simulation complete CPU 0 instructions: 100000000 cycles: 293378804 (Simulation time: 0 hr 17 min 32 sec) 


ChampSim completed all CPUs

Saving instructions large page distribution to /home/bsc/bsc018186/scratch/itp_asplos25_AE/dump/smt_srv537_ap_srv194_ap_1024i.pdst...
Saving data large page distribution to /home/bsc/bsc018186/scratch/itp_asplos25_AE/dump/smt_srv537_ap_srv194_ap_1024i.pdst...
=== Simulation ===
CPU 0 runs /gpfs/projects/bsc18/MN4/bsc18/romol/ChampSim/traces/qualcomm_srv/smt_srv537_ap_srv194_ap_1024i.champsimtrace.xz

Region of Interest Statistics

CPU 0 cumulative IPC: 0.340857 instructions: 100000000 cycles: 293378804
CPU 0 Branch Prediction Accuracy: 76.883% MPKI: 44.0864 Average ROB Occupancy at Mispredict: 10.5053
Branch type MPKI
BRANCH_DIRECT_JUMP: 1.38075
BRANCH_INDIRECT: 23.1592
BRANCH_CONDITIONAL: 12.3292
BRANCH_DIRECT_CALL: 2.63955
BRANCH_INDIRECT_CALL: 1.12196
BRANCH_RETURN: 3.45582

Instructions large pages: 0
Instructions small pages: 11612
Large page distribution for instructions: 0%

Data large pages: 0
Data small pages: 9842
Large page distribution for data: 0%

cpu0_L1I TOTAL       ACCESS:   39848617  HIT:   31531491  MISS:    8317126  iACCESS:   39848617  iHIT:   31531491  iMISS:    8317126  dACCESS:          0  dHIT:          0  dMISS:          0  itACCESS:          0  itHIT:          0  itMISS:          0  dtACCESS:          0  dtHIT:          0  dtMISS:          0
cpu0_L1I LOAD         ACCESS:   11463506  HIT:    9186455  MISS:    2277051  iACCESS:   11463506  iHIT:    9186455  iMISS:    2277051  dACCESS:          0  dHIT:          0  dMISS:          0  itACCESS:          0  itHIT:          0  itMISS:          0  dtACCESS:          0  dtHIT:          0  dtMISS:          0
cpu0_L1I RFO          ACCESS:          0  HIT:          0  MISS:          0  iACCESS:          0  iHIT:          0  iMISS:          0  dACCESS:          0  dHIT:          0  dMISS:          0  itACCESS:          0  itHIT:          0  itMISS:          0  dtACCESS:          0  dtHIT:          0  dtMISS:          0
cpu0_L1I PREFETCH     ACCESS:   28385111  HIT:   22345036  MISS:    6040075  iACCESS:   28385111  iHIT:   22345036  iMISS:    6040075  dACCESS:          0  dHIT:          0  dMISS:          0  itACCESS:          0  itHIT:          0  itMISS:          0  dtACCESS:          0  dtHIT:          0  dtMISS:          0
cpu0_L1I WRITE        ACCESS:          0  HIT:          0  MISS:          0  iACCESS:          0  iHIT:          0  iMISS:          0  dACCESS:          0  dHIT:          0  dMISS:          0  itACCESS:          0  itHIT:          0  itMISS:          0  dtACCESS:          0  dtHIT:          0  dtMISS:          0
cpu0_L1I TRANSLATION  ACCESS:          0  HIT:          0  MISS:          0  iACCESS:          0  iHIT:          0  iMISS:          0  dACCESS:          0  dHIT:          0  dMISS:          0  itACCESS:          0  itHIT:          0  itMISS:          0  dtACCESS:          0  dtHIT:          0  dtMISS:          0
cpu0_L1I PREFETCH  REQUESTED:   31038537  ISSUED:   31038486  CROSSED:          0  USEFUL:    2099467  USELESS:     753939
cpu0_L1I AVERAGE iMISS LATENCY: 25.1883 cycles
cpu0_L1I AVERAGE dMISS LATENCY: 0 cycles
cpu0_L1I AVERAGE itMISS LATENCY: 0 cycles
cpu0_L1I AVERAGE dtMISS LATENCY: 0 cycles
cpu0_L1I PAGE CROSSINGS (TLB HIT):         0 
cpu0_L1I PAGE CROSSINGS (TLB MISS):         0 
cpu0_L1I AVERAGE MISS LATENCY: 25.1883 cycles
cpu0_ITLB TOTAL       ACCESS:   33719853  HIT:   31542189  MISS:    2177664  iACCESS:   33719853  iHIT:   31542189  iMISS:    2177664  dACCESS:          0  dHIT:          0  dMISS:          0  itACCESS:          0  itHIT:          0  itMISS:          0  dtACCESS:          0  dtHIT:          0  dtMISS:          0
cpu0_ITLB LOAD         ACCESS:   33719853  HIT:   31542189  MISS:    2177664  iACCESS:   33719853  iHIT:   31542189  iMISS:    2177664  dACCESS:          0  dHIT:          0  dMISS:          0  itACCESS:          0  itHIT:          0  itMISS:          0  dtACCESS:          0  dtHIT:          0  dtMISS:          0
cpu0_ITLB RFO          ACCESS:          0  HIT:          0  MISS:          0  iACCESS:          0  iHIT:          0  iMISS:          0  dACCESS:          0  dHIT:          0  dMISS:          0  itACCESS:          0  itHIT:          0  itMISS:          0  dtACCESS:          0  dtHIT:          0  dtMISS:          0
cpu0_ITLB PREFETCH     ACCESS:          0  HIT:          0  MISS:          0  iACCESS:          0  iHIT:          0  iMISS:          0  dACCESS:          0  dHIT:          0  dMISS:          0  itACCESS:          0  itHIT:          0  itMISS:          0  dtACCESS:          0  dtHIT:          0  dtMISS:          0
cpu0_ITLB WRITE        ACCESS:          0  HIT:          0  MISS:          0  iACCESS:          0  iHIT:          0  iMISS:          0  dACCESS:          0  dHIT:          0  dMISS:          0  itACCESS:          0  itHIT:          0  itMISS:          0  dtACCESS:          0  dtHIT:          0  dtMISS:          0
cpu0_ITLB TRANSLATION  ACCESS:          0  HIT:          0  MISS:          0  iACCESS:          0  iHIT:          0  iMISS:          0  dACCESS:          0  dHIT:          0  dMISS:          0  itACCESS:          0  itHIT:          0  itMISS:          0  dtACCESS:          0  dtHIT:          0  dtMISS:          0
cpu0_ITLB PREFETCH  REQUESTED:          0  ISSUED:          0  CROSSED:          0  USEFUL:     380779  USELESS:      82244
cpu0_ITLB AVERAGE iMISS LATENCY: 10.5627 cycles
cpu0_ITLB AVERAGE dMISS LATENCY: 0 cycles
cpu0_ITLB AVERAGE itMISS LATENCY: 0 cycles
cpu0_ITLB AVERAGE dtMISS LATENCY: 0 cycles
cpu0_ITLB PAGE CROSSINGS (TLB HIT):         0 
cpu0_ITLB PAGE CROSSINGS (TLB MISS):         0 
cpu0_ITLB AVERAGE MISS LATENCY: 10.5627 cycles
cpu0_DTLB TOTAL       ACCESS:   30312176  HIT:   25250938  MISS:    5061238  iACCESS:          0  iHIT:          0  iMISS:          0  dACCESS:   30312176  dHIT:   25250938  dMISS:    5061238  itACCESS:          0  itHIT:          0  itMISS:          0  dtACCESS:          0  dtHIT:          0  dtMISS:          0
cpu0_DTLB LOAD         ACCESS:   30312176  HIT:   25250938  MISS:    5061238  iACCESS:          0  iHIT:          0  iMISS:          0  dACCESS:   30312176  dHIT:   25250938  dMISS:    5061238  itACCESS:          0  itHIT:          0  itMISS:          0  dtACCESS:          0  dtHIT:          0  dtMISS:          0
cpu0_DTLB RFO          ACCESS:          0  HIT:          0  MISS:          0  iACCESS:          0  iHIT:          0  iMISS:          0  dACCESS:          0  dHIT:          0  dMISS:          0  itACCESS:          0  itHIT:          0  itMISS:          0  dtACCESS:          0  dtHIT:          0  dtMISS:          0
cpu0_DTLB PREFETCH     ACCESS:          0  HIT:          0  MISS:          0  iACCESS:          0  iHIT:          0  iMISS:          0  dACCESS:          0  dHIT:          0  dMISS:          0  itACCESS:          0  itHIT:          0  itMISS:          0  dtACCESS:          0  dtHIT:          0  dtMISS:          0
cpu0_DTLB WRITE        ACCESS:          0  HIT:          0  MISS:          0  iACCESS:          0  iHIT:          0  iMISS:          0  dACCESS:          0  dHIT:          0  dMISS:          0  itACCESS:          0  itHIT:          0  itMISS:          0  dtACCESS:          0  dtHIT:          0  dtMISS:          0
cpu0_DTLB TRANSLATION  ACCESS:          0  HIT:          0  MISS:          0  iACCESS:          0  iHIT:          0  iMISS:          0  dACCESS:          0  dHIT:          0  dMISS:          0  itACCESS:          0  itHIT:          0  itMISS:          0  dtACCESS:          0  dtHIT:          0  dtMISS:          0
cpu0_DTLB PREFETCH  REQUESTED:          0  ISSUED:          0  CROSSED:          0  USEFUL:          0  USELESS:          0
cpu0_DTLB AVERAGE iMISS LATENCY: 0 cycles
cpu0_DTLB AVERAGE dMISS LATENCY: 17.6066 cycles
cpu0_DTLB AVERAGE itMISS LATENCY: 0 cycles
cpu0_DTLB AVERAGE dtMISS LATENCY: 0 cycles
cpu0_DTLB PAGE CROSSINGS (TLB HIT):         0 
cpu0_DTLB PAGE CROSSINGS (TLB MISS):         0 
cpu0_DTLB AVERAGE MISS LATENCY: 17.6066 cycles
cpu0_STLB TOTAL       ACCESS:    3175837  HIT:    2825129  MISS:     350708  iACCESS:     463025  iHIT:     347746  iMISS:     115279  dACCESS:    2712812  dHIT:    2477383  dMISS:     235429  itACCESS:          0  itHIT:          0  itMISS:          0  dtACCESS:          0  dtHIT:          0  dtMISS:          0
cpu0_STLB LOAD         ACCESS:    3175837  HIT:    2825129  MISS:     350708  iACCESS:     463025  iHIT:     347746  iMISS:     115279  dACCESS:    2712812  dHIT:    2477383  dMISS:     235429  itACCESS:          0  itHIT:          0  itMISS:          0  dtACCESS:          0  dtHIT:          0  dtMISS:          0
cpu0_STLB RFO          ACCESS:          0  HIT:          0  MISS:          0  iACCESS:          0  iHIT:          0  iMISS:          0  dACCESS:          0  dHIT:          0  dMISS:          0  itACCESS:          0  itHIT:          0  itMISS:          0  dtACCESS:          0  dtHIT:          0  dtMISS:          0
cpu0_STLB PREFETCH     ACCESS:          0  HIT:          0  MISS:          0  iACCESS:          0  iHIT:          0  iMISS:          0  dACCESS:          0  dHIT:          0  dMISS:          0  itACCESS:          0  itHIT:          0  itMISS:          0  dtACCESS:          0  dtHIT:          0  dtMISS:          0
cpu0_STLB WRITE        ACCESS:          0  HIT:          0  MISS:          0  iACCESS:          0  iHIT:          0  iMISS:          0  dACCESS:          0  dHIT:          0  dMISS:          0  itACCESS:          0  itHIT:          0  itMISS:          0  dtACCESS:          0  dtHIT:          0  dtMISS:          0
cpu0_STLB TRANSLATION  ACCESS:          0  HIT:          0  MISS:          0  iACCESS:          0  iHIT:          0  iMISS:          0  dACCESS:          0  dHIT:          0  dMISS:          0  itACCESS:          0  itHIT:          0  itMISS:          0  dtACCESS:          0  dtHIT:          0  dtMISS:          0
cpu0_STLB PREFETCH  REQUESTED:          0  ISSUED:          0  CROSSED:          0  USEFUL:          0  USELESS:          0
cpu0_STLB AVERAGE iMISS LATENCY: 55.0164 cycles
cpu0_STLB AVERAGE dMISS LATENCY: 191.516 cycles
cpu0_STLB AVERAGE itMISS LATENCY: 0 cycles
cpu0_STLB AVERAGE dtMISS LATENCY: 0 cycles
cpu0_STLB PAGE CROSSINGS (TLB HIT):         0 
cpu0_STLB PAGE CROSSINGS (TLB MISS):         0 
cpu0_STLB AVERAGE MISS LATENCY: 246.532 cycles
cpu0_L1D TOTAL       ACCESS:   47327470  HIT:   39765937  MISS:    7561533  iACCESS:          0  iHIT:          0  iMISS:          0  dACCESS:   46811349  dHIT:   39735782  dMISS:    7075567  itACCESS:     128052  itHIT:      14632  itMISS:     113420  dtACCESS:     388069  dtHIT:      15523  dtMISS:     372546
cpu0_L1D LOAD         ACCESS:   22016980  HIT:   18231786  MISS:    3785194  iACCESS:          0  iHIT:          0  iMISS:          0  dACCESS:   22016980  dHIT:   18231786  dMISS:    3785194  itACCESS:          0  itHIT:          0  itMISS:          0  dtACCESS:          0  dtHIT:          0  dtMISS:          0
cpu0_L1D RFO          ACCESS:          0  HIT:          0  MISS:          0  iACCESS:          0  iHIT:          0  iMISS:          0  dACCESS:          0  dHIT:          0  dMISS:          0  itACCESS:          0  itHIT:          0  itMISS:          0  dtACCESS:          0  dtHIT:          0  dtMISS:          0
cpu0_L1D PREFETCH     ACCESS:   14709047  HIT:   12016023  MISS:    2693024  iACCESS:          0  iHIT:          0  iMISS:          0  dACCESS:   14709047  dHIT:   12016023  dMISS:    2693024  itACCESS:          0  itHIT:          0  itMISS:          0  dtACCESS:          0  dtHIT:          0  dtMISS:          0
cpu0_L1D WRITE        ACCESS:   10085322  HIT:    9487973  MISS:     597349  iACCESS:          0  iHIT:          0  iMISS:          0  dACCESS:   10085322  dHIT:    9487973  dMISS:     597349  itACCESS:          0  itHIT:          0  itMISS:          0  dtACCESS:          0  dtHIT:          0  dtMISS:          0
cpu0_L1D TRANSLATION  ACCESS:     516121  HIT:      30155  MISS:     485966  iACCESS:          0  iHIT:          0  iMISS:          0  dACCESS:          0  dHIT:          0  dMISS:          0  itACCESS:     128052  itHIT:      14632  itMISS:     113420  dtACCESS:     388069  dtHIT:      15523  dtMISS:     372546
cpu0_L1D PREFETCH  REQUESTED:   22016980  ISSUED:   18789331  CROSSED:          0  USEFUL:     344191  USELESS:    1018938
cpu0_L1D AVERAGE iMISS LATENCY: 0 cycles
cpu0_L1D AVERAGE dMISS LATENCY: 38.1828 cycles
cpu0_L1D AVERAGE itMISS LATENCY: 2.40794 cycles
cpu0_L1D AVERAGE dtMISS LATENCY: 8.32229 cycles
cpu0_L1D PAGE CROSSINGS (TLB HIT):         0 
cpu0_L1D PAGE CROSSINGS (TLB MISS):         0 
cpu0_L1D AVERAGE MISS LATENCY: 48.913 cycles
cpu0_L2C TOTAL       ACCESS:    9590579  HIT:    5415857  MISS:    4174722  iACCESS:    3644168  iHIT:    2207311  iMISS:    1436857  dACCESS:    5496069  dHIT:    3154251  dMISS:    2341818  itACCESS:     113219  itHIT:      19829  itMISS:      93390  dtACCESS:     337123  dtHIT:      34466  dtMISS:     302657
cpu0_L2C LOAD         ACCESS:    3181821  HIT:    2198432  MISS:     983389  iACCESS:     823698  iHIT:     528918  iMISS:     294780  dACCESS:    2358123  dHIT:    1669514  dMISS:     688609  itACCESS:          0  itHIT:          0  itMISS:          0  dtACCESS:          0  dtHIT:          0  dtMISS:          0
cpu0_L2C RFO          ACCESS:     239510  HIT:     111308  MISS:     128202  iACCESS:          0  iHIT:          0  iMISS:          0  dACCESS:     239510  dHIT:     111308  dMISS:     128202  itACCESS:          0  itHIT:          0  itMISS:          0  dtACCESS:          0  dtHIT:          0  dtMISS:          0
cpu0_L2C PREFETCH     ACCESS:    5382126  HIT:    2718855  MISS:    2663271  iACCESS:    2820470  iHIT:    1678393  iMISS:    1142077  dACCESS:    2561656  dHIT:    1040462  dMISS:    1521194  itACCESS:          0  itHIT:          0  itMISS:          0  dtACCESS:          0  dtHIT:          0  dtMISS:          0
cpu0_L2C WRITE        ACCESS:     336780  HIT:     332967  MISS:       3813  iACCESS:          0  iHIT:          0  iMISS:          0  dACCESS:     336780  dHIT:     332967  dMISS:       3813  itACCESS:          0  itHIT:          0  itMISS:          0  dtACCESS:          0  dtHIT:          0  dtMISS:          0
cpu0_L2C TRANSLATION  ACCESS:     450342  HIT:      54295  MISS:     396047  iACCESS:          0  iHIT:          0  iMISS:          0  dACCESS:          0  dHIT:          0  dMISS:          0  itACCESS:     113219  itHIT:      19829  itMISS:      93390  dtACCESS:     337123  dtHIT:      34466  dtMISS:     302657
cpu0_L2C PREFETCH  REQUESTED:    1415809  ISSUED:    1415804  CROSSED:          0  USEFUL:     329011  USELESS:     305173
cpu0_L2C AVERAGE iMISS LATENCY: 42.9078 cycles
cpu0_L2C AVERAGE dMISS LATENCY: 80.6124 cycles
cpu0_L2C AVERAGE itMISS LATENCY: 4.09419 cycles
cpu0_L2C AVERAGE dtMISS LATENCY: 14.2702 cycles
cpu0_L2C PAGE CROSSINGS (TLB HIT):         0 
cpu0_L2C PAGE CROSSINGS (TLB MISS):         0 
cpu0_L2C AVERAGE MISS LATENCY: 141.885 cycles
LLC TOTAL       ACCESS:    4166267  HIT:    1176453  MISS:    2989814  iACCESS:    1354882  iHIT:     396382  iMISS:     958500  dACCESS:    2415338  dHIT:     744412  dMISS:    1670926  itACCESS:      93390  itHIT:       8187  itMISS:      85203  dtACCESS:     302657  dtHIT:      27472  dtMISS:     275185
LLC LOAD         ACCESS:     976209  HIT:     286447  MISS:     689762  iACCESS:     293727  iHIT:      91409  iMISS:     202318  dACCESS:     682482  dHIT:     195038  dMISS:     487444  itACCESS:          0  itHIT:          0  itMISS:          0  dtACCESS:          0  dtHIT:          0  dtMISS:          0
LLC RFO          ACCESS:     128202  HIT:      35532  MISS:      92670  iACCESS:          0  iHIT:          0  iMISS:          0  dACCESS:     128202  dHIT:      35532  dMISS:      92670  itACCESS:          0  itHIT:          0  itMISS:          0  dtACCESS:          0  dtHIT:          0  dtMISS:          0
LLC PREFETCH     ACCESS:    2470234  HIT:     633460  MISS:    1836774  iACCESS:    1061155  iHIT:     304973  iMISS:     756182  dACCESS:    1409079  dHIT:     328487  dMISS:    1080592  itACCESS:          0  itHIT:          0  itMISS:          0  dtACCESS:          0  dtHIT:          0  dtMISS:          0
LLC WRITE        ACCESS:     195575  HIT:     185355  MISS:      10220  iACCESS:          0  iHIT:          0  iMISS:          0  dACCESS:     195575  dHIT:     185355  dMISS:      10220  itACCESS:          0  itHIT:          0  itMISS:          0  dtACCESS:          0  dtHIT:          0  dtMISS:          0
LLC TRANSLATION  ACCESS:     396047  HIT:      35659  MISS:     360388  iACCESS:          0  iHIT:          0  iMISS:          0  dACCESS:          0  dHIT:          0  dMISS:          0  itACCESS:      93390  itHIT:       8187  itMISS:      85203  dtACCESS:     302657  dtHIT:      27472  dtMISS:     275185
LLC PREFETCH  REQUESTED:          0  ISSUED:          0  CROSSED:          0  USEFUL:          0  USELESS:          0
LLC AVERAGE iMISS LATENCY: 50.9813 cycles
LLC AVERAGE dMISS LATENCY: 98.7198 cycles
LLC AVERAGE itMISS LATENCY: 5.09747 cycles
LLC AVERAGE dtMISS LATENCY: 17.9236 cycles
LLC PAGE CROSSINGS (TLB HIT):         0 
LLC PAGE CROSSINGS (TLB MISS):         0 
LLC AVERAGE MISS LATENCY: 172.722 cycles

PageTableWalker TOTAL       ACCESS:     169891  
PageTableWalker AVERAGE LATENCY: 6.52566 cycles
PageTableWalker TOTAL LATENCY: 1108650 cycles

DRAM Statistics
Channel 0
 RQ ROW_BUFFER_HIT:     613697
  ROW_BUFFER_MISS:    2348264
 AVG DBUS CONGESTED CYCLE:    3.65131
 WQ ROW_BUFFER_HIT:      62912
  ROW_BUFFER_MISS:      54782  FULL:          0

