last_page:0x200000000000000
VMEM_RES_CAP:0x100000
PAGE_SIZE:4096
LOG2_PAGE_SIZE:12
LOG2_PAGE_TABLE_SIZE:9
page_table_levels:5
WARNING: physical memory size is smaller than virtual memory size
FDiP enabled with aggresivity 16

*** ChampSim Multicore Out-of-Order Simulator ***

Warmup Instructions: 50000000
Simulation Instructions: 100000000
Number of CPUs: 1
Small page size: 4096
Large page size: 2097152

CPU 0 Bimodal branch predictor
Basic BTB sets: 1024 ways: 8 indirect buffer size: 4096 RAS size: 64
Instruction page size distrubution: 0
Loading instruction page size distribution from /home/bsc/bsc018186/scratch/itp_asplos25_AE/dump/smt_srv12_ap_srv128_ap_1024i.pdst
Data page size distrubution: 0
Loading data page size distribution from /home/bsc/bsc018186/scratch/itp_asplos25_AE/dump/smt_srv12_ap_srv128_ap_1024i.pdst
cpu0_L2C IP-based stride prefetcher
cpu0_L2C is using PTP replacement policy:
	TLB_STRESS_THRESHOLD:0
	PTE_EVICTION_RATIO:0
cpu0_L1D next line prefetcher
cpu0_L1I next line prefetcher
Off-chip DRAM Size: 4 GiB Channels: 1 Width: 64-bit Data Rate: 3200 MT/s
Heartbeat CPU 0 instructions: 10000001 cycles: 2500803 heartbeat IPC: 3.99872 cumulative IPC: 3.99872 (Simulation time: 0 hr 0 min 45 sec) 
Heartbeat CPU 0 instructions: 20000002 cycles: 5081275 heartbeat IPC: 3.87527 cumulative IPC: 3.93603 (Simulation time: 0 hr 1 min 32 sec) 
Heartbeat CPU 0 instructions: 30000000 cycles: 7666672 heartbeat IPC: 3.86788 cumulative IPC: 3.91305 (Simulation time: 0 hr 2 min 22 sec) 
Heartbeat CPU 0 instructions: 40000000 cycles: 10210180 heartbeat IPC: 3.93158 cumulative IPC: 3.91766 (Simulation time: 0 hr 3 min 11 sec) 
Heartbeat CPU 0 instructions: 50000001 cycles: 12710582 heartbeat IPC: 3.99936 cumulative IPC: 3.93374 (Simulation time: 0 hr 3 min 59 sec) 
Warmup finished CPU 0 instructions: 50000001 cycles: 12710583 cumulative IPC: 3.93373 (Simulation time: 0 hr 3 min 59 sec) 

Warmup complete CPU 0 instructions: 50000001 cycles: 12710583 (Simulation time: 0 hr 3 min 59 sec) 

Heartbeat CPU 0 instructions: 60000000 cycles: 44184796 heartbeat IPC: 0.317721 cumulative IPC: 0.317721 (Simulation time: 0 hr 5 min 39 sec) 
Heartbeat CPU 0 instructions: 70000000 cycles: 75113530 heartbeat IPC: 0.323324 cumulative IPC: 0.320498 (Simulation time: 0 hr 7 min 19 sec) 
Heartbeat CPU 0 instructions: 80000001 cycles: 107250791 heartbeat IPC: 0.311166 cumulative IPC: 0.317326 (Simulation time: 0 hr 9 min 2 sec) 
Heartbeat CPU 0 instructions: 90000000 cycles: 133840718 heartbeat IPC: 0.376083 cumulative IPC: 0.330224 (Simulation time: 0 hr 10 min 35 sec) 
Heartbeat CPU 0 instructions: 100000001 cycles: 165178152 heartbeat IPC: 0.319108 cumulative IPC: 0.327939 (Simulation time: 0 hr 12 min 15 sec) 
Heartbeat CPU 0 instructions: 110000000 cycles: 196127429 heartbeat IPC: 0.32311 cumulative IPC: 0.327124 (Simulation time: 0 hr 13 min 57 sec) 
Heartbeat CPU 0 instructions: 120000000 cycles: 226950168 heartbeat IPC: 0.324436 cumulative IPC: 0.326737 (Simulation time: 0 hr 15 min 33 sec) 
Heartbeat CPU 0 instructions: 130000000 cycles: 257923647 heartbeat IPC: 0.322857 cumulative IPC: 0.326247 (Simulation time: 0 hr 17 min 2 sec) 
Heartbeat CPU 0 instructions: 140000000 cycles: 288806491 heartbeat IPC: 0.323805 cumulative IPC: 0.325974 (Simulation time: 0 hr 18 min 29 sec) 
Heartbeat CPU 0 instructions: 150000002 cycles: 320655881 heartbeat IPC: 0.313978 cumulative IPC: 0.324734 (Simulation time: 0 hr 19 min 59 sec) 
Simulation finished CPU 0 instructions: 100000001 cycles: 307945299 cumulative IPC: 0.324734 (Simulation time: 0 hr 19 min 59 sec) 

Simulation complete CPU 0 instructions: 100000001 cycles: 307945299 (Simulation time: 0 hr 19 min 59 sec) 


ChampSim completed all CPUs

Saving instructions large page distribution to /home/bsc/bsc018186/scratch/itp_asplos25_AE/dump/smt_srv12_ap_srv128_ap_1024i.pdst...
Saving data large page distribution to /home/bsc/bsc018186/scratch/itp_asplos25_AE/dump/smt_srv12_ap_srv128_ap_1024i.pdst...
=== Simulation ===
CPU 0 runs /gpfs/projects/bsc18/MN4/bsc18/romol/ChampSim/traces/qualcomm_srv/smt_srv12_ap_srv128_ap_1024i.champsimtrace.xz

Region of Interest Statistics

CPU 0 cumulative IPC: 0.324734 instructions: 100000001 cycles: 307945299
CPU 0 Branch Prediction Accuracy: 74.5693% MPKI: 46.1111 Average ROB Occupancy at Mispredict: 10.447
Branch type MPKI
BRANCH_DIRECT_JUMP: 1.47274
BRANCH_INDIRECT: 23.5034
BRANCH_CONDITIONAL: 13.5821
BRANCH_DIRECT_CALL: 2.82673
BRANCH_INDIRECT_CALL: 1.14497
BRANCH_RETURN: 3.5812

Instructions large pages: 0
Instructions small pages: 11454
Large page distribution for instructions: 0%

Data large pages: 0
Data small pages: 9589
Large page distribution for data: 0%

cpu0_L1I TOTAL       ACCESS:   39311312  HIT:   30624614  MISS:    8686698  iACCESS:   39311312  iHIT:   30624614  iMISS:    8686698  dACCESS:          0  dHIT:          0  dMISS:          0  itACCESS:          0  itHIT:          0  itMISS:          0  dtACCESS:          0  dtHIT:          0  dtMISS:          0
cpu0_L1I LOAD         ACCESS:   11688363  HIT:    9333664  MISS:    2354699  iACCESS:   11688363  iHIT:    9333664  iMISS:    2354699  dACCESS:          0  dHIT:          0  dMISS:          0  itACCESS:          0  itHIT:          0  itMISS:          0  dtACCESS:          0  dtHIT:          0  dtMISS:          0
cpu0_L1I RFO          ACCESS:          0  HIT:          0  MISS:          0  iACCESS:          0  iHIT:          0  iMISS:          0  dACCESS:          0  dHIT:          0  dMISS:          0  itACCESS:          0  itHIT:          0  itMISS:          0  dtACCESS:          0  dtHIT:          0  dtMISS:          0
cpu0_L1I PREFETCH     ACCESS:   27622949  HIT:   21290950  MISS:    6331999  iACCESS:   27622949  iHIT:   21290950  iMISS:    6331999  dACCESS:          0  dHIT:          0  dMISS:          0  itACCESS:          0  itHIT:          0  itMISS:          0  dtACCESS:          0  dtHIT:          0  dtMISS:          0
cpu0_L1I WRITE        ACCESS:          0  HIT:          0  MISS:          0  iACCESS:          0  iHIT:          0  iMISS:          0  dACCESS:          0  dHIT:          0  dMISS:          0  itACCESS:          0  itHIT:          0  itMISS:          0  dtACCESS:          0  dtHIT:          0  dtMISS:          0
cpu0_L1I TRANSLATION  ACCESS:          0  HIT:          0  MISS:          0  iACCESS:          0  iHIT:          0  iMISS:          0  dACCESS:          0  dHIT:          0  dMISS:          0  itACCESS:          0  itHIT:          0  itMISS:          0  dtACCESS:          0  dtHIT:          0  dtMISS:          0
cpu0_L1I PREFETCH  REQUESTED:   30384185  ISSUED:   30384118  CROSSED:          0  USEFUL:    2219371  USELESS:     776224
cpu0_L1I AVERAGE iMISS LATENCY: 25.2428 cycles
cpu0_L1I AVERAGE dMISS LATENCY: 0 cycles
cpu0_L1I AVERAGE itMISS LATENCY: 0 cycles
cpu0_L1I AVERAGE dtMISS LATENCY: 0 cycles
cpu0_L1I PAGE CROSSINGS (TLB HIT):         0 
cpu0_L1I PAGE CROSSINGS (TLB MISS):         0 
cpu0_L1I AVERAGE MISS LATENCY: 25.2428 cycles
cpu0_ITLB TOTAL       ACCESS:   33379085  HIT:   31134070  MISS:    2245015  iACCESS:   33379085  iHIT:   31134070  iMISS:    2245015  dACCESS:          0  dHIT:          0  dMISS:          0  itACCESS:          0  itHIT:          0  itMISS:          0  dtACCESS:          0  dtHIT:          0  dtMISS:          0
cpu0_ITLB LOAD         ACCESS:   33379085  HIT:   31134070  MISS:    2245015  iACCESS:   33379085  iHIT:   31134070  iMISS:    2245015  dACCESS:          0  dHIT:          0  dMISS:          0  itACCESS:          0  itHIT:          0  itMISS:          0  dtACCESS:          0  dtHIT:          0  dtMISS:          0
cpu0_ITLB RFO          ACCESS:          0  HIT:          0  MISS:          0  iACCESS:          0  iHIT:          0  iMISS:          0  dACCESS:          0  dHIT:          0  dMISS:          0  itACCESS:          0  itHIT:          0  itMISS:          0  dtACCESS:          0  dtHIT:          0  dtMISS:          0
cpu0_ITLB PREFETCH     ACCESS:          0  HIT:          0  MISS:          0  iACCESS:          0  iHIT:          0  iMISS:          0  dACCESS:          0  dHIT:          0  dMISS:          0  itACCESS:          0  itHIT:          0  itMISS:          0  dtACCESS:          0  dtHIT:          0  dtMISS:          0
cpu0_ITLB WRITE        ACCESS:          0  HIT:          0  MISS:          0  iACCESS:          0  iHIT:          0  iMISS:          0  dACCESS:          0  dHIT:          0  dMISS:          0  itACCESS:          0  itHIT:          0  itMISS:          0  dtACCESS:          0  dtHIT:          0  dtMISS:          0
cpu0_ITLB TRANSLATION  ACCESS:          0  HIT:          0  MISS:          0  iACCESS:          0  iHIT:          0  iMISS:          0  dACCESS:          0  dHIT:          0  dMISS:          0  itACCESS:          0  itHIT:          0  itMISS:          0  dtACCESS:          0  dtHIT:          0  dtMISS:          0
cpu0_ITLB PREFETCH  REQUESTED:          0  ISSUED:          0  CROSSED:          0  USEFUL:     396447  USELESS:      80783
cpu0_ITLB AVERAGE iMISS LATENCY: 10.9443 cycles
cpu0_ITLB AVERAGE dMISS LATENCY: 0 cycles
cpu0_ITLB AVERAGE itMISS LATENCY: 0 cycles
cpu0_ITLB AVERAGE dtMISS LATENCY: 0 cycles
cpu0_ITLB PAGE CROSSINGS (TLB HIT):         0 
cpu0_ITLB PAGE CROSSINGS (TLB MISS):         0 
cpu0_ITLB AVERAGE MISS LATENCY: 10.9443 cycles
cpu0_DTLB TOTAL       ACCESS:   28981054  HIT:   25515106  MISS:    3465948  iACCESS:          0  iHIT:          0  iMISS:          0  dACCESS:   28981054  dHIT:   25515106  dMISS:    3465948  itACCESS:          0  itHIT:          0  itMISS:          0  dtACCESS:          0  dtHIT:          0  dtMISS:          0
cpu0_DTLB LOAD         ACCESS:   28981054  HIT:   25515106  MISS:    3465948  iACCESS:          0  iHIT:          0  iMISS:          0  dACCESS:   28981054  dHIT:   25515106  dMISS:    3465948  itACCESS:          0  itHIT:          0  itMISS:          0  dtACCESS:          0  dtHIT:          0  dtMISS:          0
cpu0_DTLB RFO          ACCESS:          0  HIT:          0  MISS:          0  iACCESS:          0  iHIT:          0  iMISS:          0  dACCESS:          0  dHIT:          0  dMISS:          0  itACCESS:          0  itHIT:          0  itMISS:          0  dtACCESS:          0  dtHIT:          0  dtMISS:          0
cpu0_DTLB PREFETCH     ACCESS:          0  HIT:          0  MISS:          0  iACCESS:          0  iHIT:          0  iMISS:          0  dACCESS:          0  dHIT:          0  dMISS:          0  itACCESS:          0  itHIT:          0  itMISS:          0  dtACCESS:          0  dtHIT:          0  dtMISS:          0
cpu0_DTLB WRITE        ACCESS:          0  HIT:          0  MISS:          0  iACCESS:          0  iHIT:          0  iMISS:          0  dACCESS:          0  dHIT:          0  dMISS:          0  itACCESS:          0  itHIT:          0  itMISS:          0  dtACCESS:          0  dtHIT:          0  dtMISS:          0
cpu0_DTLB TRANSLATION  ACCESS:          0  HIT:          0  MISS:          0  iACCESS:          0  iHIT:          0  iMISS:          0  dACCESS:          0  dHIT:          0  dMISS:          0  itACCESS:          0  itHIT:          0  itMISS:          0  dtACCESS:          0  dtHIT:          0  dtMISS:          0
cpu0_DTLB PREFETCH  REQUESTED:          0  ISSUED:          0  CROSSED:          0  USEFUL:          0  USELESS:          0
cpu0_DTLB AVERAGE iMISS LATENCY: 0 cycles
cpu0_DTLB AVERAGE dMISS LATENCY: 26.0493 cycles
cpu0_DTLB AVERAGE itMISS LATENCY: 0 cycles
cpu0_DTLB AVERAGE dtMISS LATENCY: 0 cycles
cpu0_DTLB PAGE CROSSINGS (TLB HIT):         0 
cpu0_DTLB PAGE CROSSINGS (TLB MISS):         0 
cpu0_DTLB AVERAGE MISS LATENCY: 26.0493 cycles
cpu0_STLB TOTAL       ACCESS:    2527679  HIT:    2147170  MISS:     380509  iACCESS:     477235  iHIT:     356179  iMISS:     121056  dACCESS:    2050444  dHIT:    1790991  dMISS:     259453  itACCESS:          0  itHIT:          0  itMISS:          0  dtACCESS:          0  dtHIT:          0  dtMISS:          0
cpu0_STLB LOAD         ACCESS:    2527679  HIT:    2147170  MISS:     380509  iACCESS:     477235  iHIT:     356179  iMISS:     121056  dACCESS:    2050444  dHIT:    1790991  dMISS:     259453  itACCESS:          0  itHIT:          0  itMISS:          0  dtACCESS:          0  dtHIT:          0  dtMISS:          0
cpu0_STLB RFO          ACCESS:          0  HIT:          0  MISS:          0  iACCESS:          0  iHIT:          0  iMISS:          0  dACCESS:          0  dHIT:          0  dMISS:          0  itACCESS:          0  itHIT:          0  itMISS:          0  dtACCESS:          0  dtHIT:          0  dtMISS:          0
cpu0_STLB PREFETCH     ACCESS:          0  HIT:          0  MISS:          0  iACCESS:          0  iHIT:          0  iMISS:          0  dACCESS:          0  dHIT:          0  dMISS:          0  itACCESS:          0  itHIT:          0  itMISS:          0  dtACCESS:          0  dtHIT:          0  dtMISS:          0
cpu0_STLB WRITE        ACCESS:          0  HIT:          0  MISS:          0  iACCESS:          0  iHIT:          0  iMISS:          0  dACCESS:          0  dHIT:          0  dMISS:          0  itACCESS:          0  itHIT:          0  itMISS:          0  dtACCESS:          0  dtHIT:          0  dtMISS:          0
cpu0_STLB TRANSLATION  ACCESS:          0  HIT:          0  MISS:          0  iACCESS:          0  iHIT:          0  iMISS:          0  dACCESS:          0  dHIT:          0  dMISS:          0  itACCESS:          0  itHIT:          0  itMISS:          0  dtACCESS:          0  dtHIT:          0  dtMISS:          0
cpu0_STLB PREFETCH  REQUESTED:          0  ISSUED:          0  CROSSED:          0  USEFUL:          0  USELESS:          0
cpu0_STLB AVERAGE iMISS LATENCY: 54.5222 cycles
cpu0_STLB AVERAGE dMISS LATENCY: 193.896 cycles
cpu0_STLB AVERAGE itMISS LATENCY: 0 cycles
cpu0_STLB AVERAGE dtMISS LATENCY: 0 cycles
cpu0_STLB PAGE CROSSINGS (TLB HIT):         0 
cpu0_STLB PAGE CROSSINGS (TLB MISS):         0 
cpu0_STLB AVERAGE MISS LATENCY: 248.418 cycles
cpu0_L1D TOTAL       ACCESS:   45009563  HIT:   39376602  MISS:    5632961  iACCESS:          0  iHIT:          0  iMISS:          0  dACCESS:   44448645  dHIT:   39343280  dMISS:    5105365  itACCESS:     136561  itHIT:      15182  itMISS:     121379  dtACCESS:     424357  dtHIT:      18140  dtMISS:     406217
cpu0_L1D LOAD         ACCESS:   20307534  HIT:   18034088  MISS:    2273446  iACCESS:          0  iHIT:          0  iMISS:          0  dACCESS:   20307534  dHIT:   18034088  dMISS:    2273446  itACCESS:          0  itHIT:          0  itMISS:          0  dtACCESS:          0  dtHIT:          0  dtMISS:          0
cpu0_L1D RFO          ACCESS:          0  HIT:          0  MISS:          0  iACCESS:          0  iHIT:          0  iMISS:          0  dACCESS:          0  dHIT:          0  dMISS:          0  itACCESS:          0  itHIT:          0  itMISS:          0  dtACCESS:          0  dtHIT:          0  dtMISS:          0
cpu0_L1D PREFETCH     ACCESS:   13953063  HIT:   11701907  MISS:    2251156  iACCESS:          0  iHIT:          0  iMISS:          0  dACCESS:   13953063  dHIT:   11701907  dMISS:    2251156  itACCESS:          0  itHIT:          0  itMISS:          0  dtACCESS:          0  dtHIT:          0  dtMISS:          0
cpu0_L1D WRITE        ACCESS:   10188048  HIT:    9607285  MISS:     580763  iACCESS:          0  iHIT:          0  iMISS:          0  dACCESS:   10188048  dHIT:    9607285  dMISS:     580763  itACCESS:          0  itHIT:          0  itMISS:          0  dtACCESS:          0  dtHIT:          0  dtMISS:          0
cpu0_L1D TRANSLATION  ACCESS:     560918  HIT:      33322  MISS:     527596  iACCESS:          0  iHIT:          0  iMISS:          0  dACCESS:          0  dHIT:          0  dMISS:          0  itACCESS:     136561  itHIT:      15182  itMISS:     121379  dtACCESS:     424357  dtHIT:      18140  dtMISS:     406217
cpu0_L1D PREFETCH  REQUESTED:   20307534  ISSUED:   18548020  CROSSED:          0  USEFUL:     361661  USELESS:     929798
cpu0_L1D AVERAGE iMISS LATENCY: 0 cycles
cpu0_L1D AVERAGE dMISS LATENCY: 50.8024 cycles
cpu0_L1D AVERAGE itMISS LATENCY: 3.46455 cycles
cpu0_L1D AVERAGE dtMISS LATENCY: 12.2592 cycles
cpu0_L1D PAGE CROSSINGS (TLB HIT):         0 
cpu0_L1D PAGE CROSSINGS (TLB MISS):         0 
cpu0_L1D AVERAGE MISS LATENCY: 66.5261 cycles
cpu0_L2C TOTAL       ACCESS:    8653024  HIT:    4155714  MISS:    4497310  iACCESS:    3804550  iHIT:    2280756  iMISS:    1523794  dACCESS:    4357905  dHIT:    1816938  dMISS:    2540967  itACCESS:     119729  itHIT:      20749  itMISS:      98980  dtACCESS:     370840  dtHIT:      37271  dtMISS:     333569
cpu0_L2C LOAD         ACCESS:    2048383  HIT:     996707  MISS:    1051676  iACCESS:     846223  iHIT:     532223  iMISS:     314000  dACCESS:    1202160  dHIT:     464484  dMISS:     737676  itACCESS:          0  itHIT:          0  itMISS:          0  dtACCESS:          0  dtHIT:          0  dtMISS:          0
cpu0_L2C RFO          ACCESS:     215321  HIT:      81483  MISS:     133838  iACCESS:          0  iHIT:          0  iMISS:          0  dACCESS:     215321  dHIT:      81483  dMISS:     133838  itACCESS:          0  itHIT:          0  itMISS:          0  dtACCESS:          0  dtHIT:          0  dtMISS:          0
cpu0_L2C PREFETCH     ACCESS:    5558502  HIT:    2682890  MISS:    2875612  iACCESS:    2958327  iHIT:    1748533  iMISS:    1209794  dACCESS:    2600175  dHIT:     934357  dMISS:    1665818  itACCESS:          0  itHIT:          0  itMISS:          0  dtACCESS:          0  dtHIT:          0  dtMISS:          0
cpu0_L2C WRITE        ACCESS:     340249  HIT:     336614  MISS:       3635  iACCESS:          0  iHIT:          0  iMISS:          0  dACCESS:     340249  dHIT:     336614  dMISS:       3635  itACCESS:          0  itHIT:          0  itMISS:          0  dtACCESS:          0  dtHIT:          0  dtMISS:          0
cpu0_L2C TRANSLATION  ACCESS:     490569  HIT:      58020  MISS:     432549  iACCESS:          0  iHIT:          0  iMISS:          0  dACCESS:          0  dHIT:          0  dMISS:          0  itACCESS:     119729  itHIT:      20749  itMISS:      98980  dtACCESS:     370840  dtHIT:      37271  dtMISS:     333569
cpu0_L2C PREFETCH  REQUESTED:    1544811  ISSUED:    1544809  CROSSED:          0  USEFUL:     365620  USELESS:     334395
cpu0_L2C AVERAGE iMISS LATENCY: 41.7125 cycles
cpu0_L2C AVERAGE dMISS LATENCY: 79.8967 cycles
cpu0_L2C AVERAGE itMISS LATENCY: 4.07703 cycles
cpu0_L2C AVERAGE dtMISS LATENCY: 14.534 cycles
cpu0_L2C PAGE CROSSINGS (TLB HIT):         0 
cpu0_L2C PAGE CROSSINGS (TLB MISS):         0 
cpu0_L2C AVERAGE MISS LATENCY: 140.221 cycles
LLC TOTAL       ACCESS:    4480670  HIT:    1282494  MISS:    3198176  iACCESS:    1431299  iHIT:     418481  iMISS:    1012818  dACCESS:    2616822  dHIT:     825032  dMISS:    1791790  itACCESS:      98980  itHIT:       7192  itMISS:      91788  dtACCESS:     333569  dtHIT:      31789  dtMISS:     301780
LLC LOAD         ACCESS:    1045272  HIT:     315928  MISS:     729344  iACCESS:     312842  iHIT:      98179  iMISS:     214663  dACCESS:     732430  dHIT:     217749  dMISS:     514681  itACCESS:          0  itHIT:          0  itMISS:          0  dtACCESS:          0  dtHIT:          0  dtMISS:          0
LLC RFO          ACCESS:     133824  HIT:      38307  MISS:      95517  iACCESS:          0  iHIT:          0  iMISS:          0  dACCESS:     133824  dHIT:      38307  dMISS:      95517  itACCESS:          0  itHIT:          0  itMISS:          0  dtACCESS:          0  dtHIT:          0  dtMISS:          0
LLC PREFETCH     ACCESS:    2658285  HIT:     688847  MISS:    1969438  iACCESS:    1118457  iHIT:     320302  iMISS:     798155  dACCESS:    1539828  dHIT:     368545  dMISS:    1171283  itACCESS:          0  itHIT:          0  itMISS:          0  dtACCESS:          0  dtHIT:          0  dtMISS:          0
LLC WRITE        ACCESS:     210740  HIT:     200431  MISS:      10309  iACCESS:          0  iHIT:          0  iMISS:          0  dACCESS:     210740  dHIT:     200431  dMISS:      10309  itACCESS:          0  itHIT:          0  itMISS:          0  dtACCESS:          0  dtHIT:          0  dtMISS:          0
LLC TRANSLATION  ACCESS:     432549  HIT:      38981  MISS:     393568  iACCESS:          0  iHIT:          0  iMISS:          0  dACCESS:          0  dHIT:          0  dMISS:          0  itACCESS:      98980  itHIT:       7192  itMISS:      91788  dtACCESS:     333569  dtHIT:      31789  dtMISS:     301780
LLC PREFETCH  REQUESTED:          0  ISSUED:          0  CROSSED:          0  USEFUL:          0  USELESS:          0
LLC AVERAGE iMISS LATENCY: 49.8358 cycles
LLC AVERAGE dMISS LATENCY: 98.3148 cycles
LLC AVERAGE itMISS LATENCY: 5.11924 cycles
LLC AVERAGE dtMISS LATENCY: 18.3754 cycles
LLC PAGE CROSSINGS (TLB HIT):         0 
LLC PAGE CROSSINGS (TLB MISS):         0 
LLC AVERAGE MISS LATENCY: 171.646 cycles

PageTableWalker TOTAL       ACCESS:     139657  
PageTableWalker AVERAGE LATENCY: 6.46916 cycles
PageTableWalker TOTAL LATENCY: 903463 cycles

DRAM Statistics
Channel 0
 RQ ROW_BUFFER_HIT:     692233
  ROW_BUFFER_MISS:    2477761
 AVG DBUS CONGESTED CYCLE:    3.65006
 WQ ROW_BUFFER_HIT:      67657
  ROW_BUFFER_MISS:      55816  FULL:          0

