last_page:0x200000000000000
VMEM_RES_CAP:0x100000
PAGE_SIZE:4096
LOG2_PAGE_SIZE:12
LOG2_PAGE_TABLE_SIZE:9
page_table_levels:5
WARNING: physical memory size is smaller than virtual memory size
FDiP enabled with aggresivity 16

*** ChampSim Multicore Out-of-Order Simulator ***

Warmup Instructions: 50000000
Simulation Instructions: 100000000
Number of CPUs: 1
Small page size: 4096
Large page size: 2097152

CPU 0 Bimodal branch predictor
Basic BTB sets: 1024 ways: 8 indirect buffer size: 4096 RAS size: 64
Instruction page size distrubution: 0
Loading instruction page size distribution from /home/bsc/bsc018186/scratch/itp_asplos25_AE/dump/smt_srv85_ap_srv298_ap_1024i.pdst
Data page size distrubution: 0
Loading data page size distribution from /home/bsc/bsc018186/scratch/itp_asplos25_AE/dump/smt_srv85_ap_srv298_ap_1024i.pdst
cpu0_L2C IP-based stride prefetcher
cpu0_L1D next line prefetcher
CHiRPing...
cpu0_L1I next line prefetcher
Off-chip DRAM Size: 4 GiB Channels: 1 Width: 64-bit Data Rate: 3200 MT/s
Heartbeat CPU 0 instructions: 10000003 cycles: 2500295 heartbeat IPC: 3.99953 cumulative IPC: 3.99953 (Simulation time: 0 hr 0 min 40 sec) 
Heartbeat CPU 0 instructions: 20000002 cycles: 5000621 heartbeat IPC: 3.99948 cumulative IPC: 3.99951 (Simulation time: 0 hr 1 min 22 sec) 
Heartbeat CPU 0 instructions: 30000003 cycles: 7500836 heartbeat IPC: 3.99966 cumulative IPC: 3.99956 (Simulation time: 0 hr 2 min 5 sec) 
Heartbeat CPU 0 instructions: 40000000 cycles: 10001065 heartbeat IPC: 3.99964 cumulative IPC: 3.99958 (Simulation time: 0 hr 2 min 48 sec) 
Heartbeat CPU 0 instructions: 50000002 cycles: 12501459 heartbeat IPC: 3.99938 cumulative IPC: 3.99954 (Simulation time: 0 hr 3 min 31 sec) 
Warmup finished CPU 0 instructions: 50000002 cycles: 12501460 cumulative IPC: 3.99954 (Simulation time: 0 hr 3 min 31 sec) 

Warmup complete CPU 0 instructions: 50000002 cycles: 12501460 (Simulation time: 0 hr 3 min 31 sec) 

Heartbeat CPU 0 instructions: 60000003 cycles: 38989023 heartbeat IPC: 0.377536 cumulative IPC: 0.377536 (Simulation time: 0 hr 4 min 54 sec) 
Heartbeat CPU 0 instructions: 70000001 cycles: 64952437 heartbeat IPC: 0.385158 cumulative IPC: 0.381309 (Simulation time: 0 hr 6 min 16 sec) 
Heartbeat CPU 0 instructions: 80000000 cycles: 91075393 heartbeat IPC: 0.382806 cumulative IPC: 0.381806 (Simulation time: 0 hr 7 min 38 sec) 
Heartbeat CPU 0 instructions: 90000002 cycles: 117986527 heartbeat IPC: 0.371594 cumulative IPC: 0.379201 (Simulation time: 0 hr 9 min 2 sec) 
Heartbeat CPU 0 instructions: 100000000 cycles: 144509268 heartbeat IPC: 0.377035 cumulative IPC: 0.378766 (Simulation time: 0 hr 10 min 25 sec) 
Heartbeat CPU 0 instructions: 110000001 cycles: 171580402 heartbeat IPC: 0.369398 cumulative IPC: 0.377172 (Simulation time: 0 hr 11 min 48 sec) 
Heartbeat CPU 0 instructions: 120000000 cycles: 197786265 heartbeat IPC: 0.381594 cumulative IPC: 0.377797 (Simulation time: 0 hr 13 min 10 sec) 
Heartbeat CPU 0 instructions: 130000003 cycles: 225714304 heartbeat IPC: 0.358064 cumulative IPC: 0.375212 (Simulation time: 0 hr 14 min 37 sec) 
Heartbeat CPU 0 instructions: 140000004 cycles: 252513501 heartbeat IPC: 0.373146 cumulative IPC: 0.374982 (Simulation time: 0 hr 16 min 2 sec) 
Heartbeat CPU 0 instructions: 150000002 cycles: 280047662 heartbeat IPC: 0.363186 cumulative IPC: 0.373768 (Simulation time: 0 hr 17 min 28 sec) 
Simulation finished CPU 0 instructions: 100000000 cycles: 267546203 cumulative IPC: 0.373768 (Simulation time: 0 hr 17 min 28 sec) 

Simulation complete CPU 0 instructions: 100000000 cycles: 267546203 (Simulation time: 0 hr 17 min 28 sec) 


ChampSim completed all CPUs

Saving instructions large page distribution to /home/bsc/bsc018186/scratch/itp_asplos25_AE/dump/smt_srv85_ap_srv298_ap_1024i.pdst...
Saving data large page distribution to /home/bsc/bsc018186/scratch/itp_asplos25_AE/dump/smt_srv85_ap_srv298_ap_1024i.pdst...
=== Simulation ===
CPU 0 runs /gpfs/projects/bsc18/MN4/bsc18/romol/ChampSim/traces/qualcomm_srv/smt_srv85_ap_srv298_ap_1024i.champsimtrace.xz

Region of Interest Statistics

CPU 0 cumulative IPC: 0.373768 instructions: 100000000 cycles: 267546203
CPU 0 Branch Prediction Accuracy: 75.772% MPKI: 43.5968 Average ROB Occupancy at Mispredict: 10.9324
Branch type MPKI
BRANCH_DIRECT_JUMP: 1.31238
BRANCH_INDIRECT: 22.8552
BRANCH_CONDITIONAL: 12.5628
BRANCH_DIRECT_CALL: 2.48015
BRANCH_INDIRECT_CALL: 0.940351
BRANCH_RETURN: 3.44597

Instructions large pages: 0
Instructions small pages: 13541
Large page distribution for instructions: 0%

Data large pages: 0
Data small pages: 12237
Large page distribution for data: 0%

cpu0_L1I TOTAL       ACCESS:   39663016  HIT:   30392358  MISS:    9270658  iACCESS:   39663016  iHIT:   30392358  iMISS:    9270658  dACCESS:          0  dHIT:          0  dMISS:          0  itACCESS:          0  itHIT:          0  itMISS:          0  dtACCESS:          0  dtHIT:          0  dtMISS:          0
cpu0_L1I LOAD         ACCESS:   11927756  HIT:    9404360  MISS:    2523396  iACCESS:   11927756  iHIT:    9404360  iMISS:    2523396  dACCESS:          0  dHIT:          0  dMISS:          0  itACCESS:          0  itHIT:          0  itMISS:          0  dtACCESS:          0  dtHIT:          0  dtMISS:          0
cpu0_L1I RFO          ACCESS:          0  HIT:          0  MISS:          0  iACCESS:          0  iHIT:          0  iMISS:          0  dACCESS:          0  dHIT:          0  dMISS:          0  itACCESS:          0  itHIT:          0  itMISS:          0  dtACCESS:          0  dtHIT:          0  dtMISS:          0
cpu0_L1I PREFETCH     ACCESS:   27735260  HIT:   20987998  MISS:    6747262  iACCESS:   27735260  iHIT:   20987998  iMISS:    6747262  dACCESS:          0  dHIT:          0  dMISS:          0  itACCESS:          0  itHIT:          0  itMISS:          0  dtACCESS:          0  dtHIT:          0  dtMISS:          0
cpu0_L1I WRITE        ACCESS:          0  HIT:          0  MISS:          0  iACCESS:          0  iHIT:          0  iMISS:          0  dACCESS:          0  dHIT:          0  dMISS:          0  itACCESS:          0  itHIT:          0  itMISS:          0  dtACCESS:          0  dtHIT:          0  dtMISS:          0
cpu0_L1I TRANSLATION  ACCESS:          0  HIT:          0  MISS:          0  iACCESS:          0  iHIT:          0  iMISS:          0  dACCESS:          0  dHIT:          0  dMISS:          0  itACCESS:          0  itHIT:          0  itMISS:          0  dtACCESS:          0  dtHIT:          0  dtMISS:          0
cpu0_L1I PREFETCH  REQUESTED:   30425560  ISSUED:   30423914  CROSSED:          0  USEFUL:    2217218  USELESS:     763685
cpu0_L1I AVERAGE iMISS LATENCY: 22.7616 cycles
cpu0_L1I AVERAGE dMISS LATENCY: 0 cycles
cpu0_L1I AVERAGE itMISS LATENCY: 0 cycles
cpu0_L1I AVERAGE dtMISS LATENCY: 0 cycles
cpu0_L1I PAGE CROSSINGS (TLB HIT):         0 
cpu0_L1I PAGE CROSSINGS (TLB MISS):         0 
cpu0_L1I AVERAGE MISS LATENCY: 22.7616 cycles
cpu0_ITLB TOTAL       ACCESS:   33248422  HIT:   31026322  MISS:    2222100  iACCESS:   33248422  iHIT:   31026322  iMISS:    2222100  dACCESS:          0  dHIT:          0  dMISS:          0  itACCESS:          0  itHIT:          0  itMISS:          0  dtACCESS:          0  dtHIT:          0  dtMISS:          0
cpu0_ITLB LOAD         ACCESS:   33248422  HIT:   31026322  MISS:    2222100  iACCESS:   33248422  iHIT:   31026322  iMISS:    2222100  dACCESS:          0  dHIT:          0  dMISS:          0  itACCESS:          0  itHIT:          0  itMISS:          0  dtACCESS:          0  dtHIT:          0  dtMISS:          0
cpu0_ITLB RFO          ACCESS:          0  HIT:          0  MISS:          0  iACCESS:          0  iHIT:          0  iMISS:          0  dACCESS:          0  dHIT:          0  dMISS:          0  itACCESS:          0  itHIT:          0  itMISS:          0  dtACCESS:          0  dtHIT:          0  dtMISS:          0
cpu0_ITLB PREFETCH     ACCESS:          0  HIT:          0  MISS:          0  iACCESS:          0  iHIT:          0  iMISS:          0  dACCESS:          0  dHIT:          0  dMISS:          0  itACCESS:          0  itHIT:          0  itMISS:          0  dtACCESS:          0  dtHIT:          0  dtMISS:          0
cpu0_ITLB WRITE        ACCESS:          0  HIT:          0  MISS:          0  iACCESS:          0  iHIT:          0  iMISS:          0  dACCESS:          0  dHIT:          0  dMISS:          0  itACCESS:          0  itHIT:          0  itMISS:          0  dtACCESS:          0  dtHIT:          0  dtMISS:          0
cpu0_ITLB TRANSLATION  ACCESS:          0  HIT:          0  MISS:          0  iACCESS:          0  iHIT:          0  iMISS:          0  dACCESS:          0  dHIT:          0  dMISS:          0  itACCESS:          0  itHIT:          0  itMISS:          0  dtACCESS:          0  dtHIT:          0  dtMISS:          0
cpu0_ITLB PREFETCH  REQUESTED:          0  ISSUED:          0  CROSSED:          0  USEFUL:     388775  USELESS:      78020
cpu0_ITLB AVERAGE iMISS LATENCY: 7.48857 cycles
cpu0_ITLB AVERAGE dMISS LATENCY: 0 cycles
cpu0_ITLB AVERAGE itMISS LATENCY: 0 cycles
cpu0_ITLB AVERAGE dtMISS LATENCY: 0 cycles
cpu0_ITLB PAGE CROSSINGS (TLB HIT):         0 
cpu0_ITLB PAGE CROSSINGS (TLB MISS):         0 
cpu0_ITLB AVERAGE MISS LATENCY: 7.48857 cycles
cpu0_DTLB TOTAL       ACCESS:   28834819  HIT:   25134675  MISS:    3700144  iACCESS:          0  iHIT:          0  iMISS:          0  dACCESS:   28834819  dHIT:   25134675  dMISS:    3700144  itACCESS:          0  itHIT:          0  itMISS:          0  dtACCESS:          0  dtHIT:          0  dtMISS:          0
cpu0_DTLB LOAD         ACCESS:   28834819  HIT:   25134675  MISS:    3700144  iACCESS:          0  iHIT:          0  iMISS:          0  dACCESS:   28834819  dHIT:   25134675  dMISS:    3700144  itACCESS:          0  itHIT:          0  itMISS:          0  dtACCESS:          0  dtHIT:          0  dtMISS:          0
cpu0_DTLB RFO          ACCESS:          0  HIT:          0  MISS:          0  iACCESS:          0  iHIT:          0  iMISS:          0  dACCESS:          0  dHIT:          0  dMISS:          0  itACCESS:          0  itHIT:          0  itMISS:          0  dtACCESS:          0  dtHIT:          0  dtMISS:          0
cpu0_DTLB PREFETCH     ACCESS:          0  HIT:          0  MISS:          0  iACCESS:          0  iHIT:          0  iMISS:          0  dACCESS:          0  dHIT:          0  dMISS:          0  itACCESS:          0  itHIT:          0  itMISS:          0  dtACCESS:          0  dtHIT:          0  dtMISS:          0
cpu0_DTLB WRITE        ACCESS:          0  HIT:          0  MISS:          0  iACCESS:          0  iHIT:          0  iMISS:          0  dACCESS:          0  dHIT:          0  dMISS:          0  itACCESS:          0  itHIT:          0  itMISS:          0  dtACCESS:          0  dtHIT:          0  dtMISS:          0
cpu0_DTLB TRANSLATION  ACCESS:          0  HIT:          0  MISS:          0  iACCESS:          0  iHIT:          0  iMISS:          0  dACCESS:          0  dHIT:          0  dMISS:          0  itACCESS:          0  itHIT:          0  itMISS:          0  dtACCESS:          0  dtHIT:          0  dtMISS:          0
cpu0_DTLB PREFETCH  REQUESTED:          0  ISSUED:          0  CROSSED:          0  USEFUL:          0  USELESS:          0
cpu0_DTLB AVERAGE iMISS LATENCY: 0 cycles
cpu0_DTLB AVERAGE dMISS LATENCY: 16.2525 cycles
cpu0_DTLB AVERAGE itMISS LATENCY: 0 cycles
cpu0_DTLB AVERAGE dtMISS LATENCY: 0 cycles
cpu0_DTLB PAGE CROSSINGS (TLB HIT):         0 
cpu0_DTLB PAGE CROSSINGS (TLB MISS):         0 
cpu0_DTLB AVERAGE MISS LATENCY: 16.2525 cycles
cpu0_STLB TOTAL       ACCESS:    2613196  HIT:    2248700  MISS:     364496  iACCESS:     466799  iHIT:     359527  iMISS:     107272  dACCESS:    2146397  dHIT:    1889173  dMISS:     257224  itACCESS:          0  itHIT:          0  itMISS:          0  dtACCESS:          0  dtHIT:          0  dtMISS:          0
cpu0_STLB LOAD         ACCESS:    2613196  HIT:    2248700  MISS:     364496  iACCESS:     466799  iHIT:     359527  iMISS:     107272  dACCESS:    2146397  dHIT:    1889173  dMISS:     257224  itACCESS:          0  itHIT:          0  itMISS:          0  dtACCESS:          0  dtHIT:          0  dtMISS:          0
cpu0_STLB RFO          ACCESS:          0  HIT:          0  MISS:          0  iACCESS:          0  iHIT:          0  iMISS:          0  dACCESS:          0  dHIT:          0  dMISS:          0  itACCESS:          0  itHIT:          0  itMISS:          0  dtACCESS:          0  dtHIT:          0  dtMISS:          0
cpu0_STLB PREFETCH     ACCESS:          0  HIT:          0  MISS:          0  iACCESS:          0  iHIT:          0  iMISS:          0  dACCESS:          0  dHIT:          0  dMISS:          0  itACCESS:          0  itHIT:          0  itMISS:          0  dtACCESS:          0  dtHIT:          0  dtMISS:          0
cpu0_STLB WRITE        ACCESS:          0  HIT:          0  MISS:          0  iACCESS:          0  iHIT:          0  iMISS:          0  dACCESS:          0  dHIT:          0  dMISS:          0  itACCESS:          0  itHIT:          0  itMISS:          0  dtACCESS:          0  dtHIT:          0  dtMISS:          0
cpu0_STLB TRANSLATION  ACCESS:          0  HIT:          0  MISS:          0  iACCESS:          0  iHIT:          0  iMISS:          0  dACCESS:          0  dHIT:          0  dMISS:          0  itACCESS:          0  itHIT:          0  itMISS:          0  dtACCESS:          0  dtHIT:          0  dtMISS:          0
cpu0_STLB PREFETCH  REQUESTED:          0  ISSUED:          0  CROSSED:          0  USEFUL:          0  USELESS:          0
cpu0_STLB AVERAGE iMISS LATENCY: 35.4449 cycles
cpu0_STLB AVERAGE dMISS LATENCY: 117.677 cycles
cpu0_STLB AVERAGE itMISS LATENCY: 0 cycles
cpu0_STLB AVERAGE dtMISS LATENCY: 0 cycles
cpu0_STLB PAGE CROSSINGS (TLB HIT):         0 
cpu0_STLB PAGE CROSSINGS (TLB MISS):         0 
cpu0_STLB AVERAGE MISS LATENCY: 153.122 cycles
cpu0_L1D TOTAL       ACCESS:   44577118  HIT:   39148230  MISS:    5428888  iACCESS:          0  iHIT:          0  iMISS:          0  dACCESS:   44036765  dHIT:   39113895  dMISS:    4922870  itACCESS:     120925  itHIT:      14428  itMISS:     106497  dtACCESS:     419428  dtHIT:      19907  dtMISS:     399521
cpu0_L1D LOAD         ACCESS:   20075087  HIT:   17863881  MISS:    2211206  iACCESS:          0  iHIT:          0  iMISS:          0  dACCESS:   20075087  dHIT:   17863881  dMISS:    2211206  itACCESS:          0  itHIT:          0  itMISS:          0  dtACCESS:          0  dtHIT:          0  dtMISS:          0
cpu0_L1D RFO          ACCESS:          0  HIT:          0  MISS:          0  iACCESS:          0  iHIT:          0  iMISS:          0  dACCESS:          0  dHIT:          0  dMISS:          0  itACCESS:          0  itHIT:          0  itMISS:          0  dtACCESS:          0  dtHIT:          0  dtMISS:          0
cpu0_L1D PREFETCH     ACCESS:   13796375  HIT:   11647708  MISS:    2148667  iACCESS:          0  iHIT:          0  iMISS:          0  dACCESS:   13796375  dHIT:   11647708  dMISS:    2148667  itACCESS:          0  itHIT:          0  itMISS:          0  dtACCESS:          0  dtHIT:          0  dtMISS:          0
cpu0_L1D WRITE        ACCESS:   10165303  HIT:    9602306  MISS:     562997  iACCESS:          0  iHIT:          0  iMISS:          0  dACCESS:   10165303  dHIT:    9602306  dMISS:     562997  itACCESS:          0  itHIT:          0  itMISS:          0  dtACCESS:          0  dtHIT:          0  dtMISS:          0
cpu0_L1D TRANSLATION  ACCESS:     540353  HIT:      34335  MISS:     506018  iACCESS:          0  iHIT:          0  iMISS:          0  dACCESS:          0  dHIT:          0  dMISS:          0  itACCESS:     120925  itHIT:      14428  itMISS:     106497  dtACCESS:     419428  dtHIT:      19907  dtMISS:     399521
cpu0_L1D PREFETCH  REQUESTED:   20075087  ISSUED:   18399913  CROSSED:          0  USEFUL:     358636  USELESS:     934172
cpu0_L1D AVERAGE iMISS LATENCY: 0 cycles
cpu0_L1D AVERAGE dMISS LATENCY: 50.9061 cycles
cpu0_L1D AVERAGE itMISS LATENCY: 2.19285 cycles
cpu0_L1D AVERAGE dtMISS LATENCY: 6.94182 cycles
cpu0_L1D PAGE CROSSINGS (TLB HIT):         0 
cpu0_L1D PAGE CROSSINGS (TLB MISS):         0 
cpu0_L1D AVERAGE MISS LATENCY: 60.0408 cycles
cpu0_L2C TOTAL       ACCESS:    8599355  HIT:    1550667  MISS:    7048688  iACCESS:    3791486  iHIT:     815724  iMISS:    2975762  dACCESS:    4333088  dHIT:     540716  dMISS:    3792372  itACCESS:     105790  itHIT:      35988  itMISS:      69802  dtACCESS:     368991  dtHIT:     158239  dtMISS:     210752
cpu0_L2C LOAD         ACCESS:    2061183  HIT:     212516  MISS:    1848667  iACCESS:     848400  iHIT:     115178  iMISS:     733222  dACCESS:    1212783  dHIT:      97338  dMISS:    1115445  itACCESS:          0  itHIT:          0  itMISS:          0  dtACCESS:          0  dtHIT:          0  dtMISS:          0
cpu0_L2C RFO          ACCESS:     210613  HIT:      30077  MISS:     180536  iACCESS:          0  iHIT:          0  iMISS:          0  dACCESS:     210613  dHIT:      30077  dMISS:     180536  itACCESS:          0  itHIT:          0  itMISS:          0  dtACCESS:          0  dtHIT:          0  dtMISS:          0
cpu0_L2C PREFETCH     ACCESS:    5504021  HIT:    1011593  MISS:    4492428  iACCESS:    2943086  iHIT:     700546  iMISS:    2242540  dACCESS:    2560935  dHIT:     311047  dMISS:    2249888  itACCESS:          0  itHIT:          0  itMISS:          0  dtACCESS:          0  dtHIT:          0  dtMISS:          0
cpu0_L2C WRITE        ACCESS:     348757  HIT:     102254  MISS:     246503  iACCESS:          0  iHIT:          0  iMISS:          0  dACCESS:     348757  dHIT:     102254  dMISS:     246503  itACCESS:          0  itHIT:          0  itMISS:          0  dtACCESS:          0  dtHIT:          0  dtMISS:          0
cpu0_L2C TRANSLATION  ACCESS:     474781  HIT:     194227  MISS:     280554  iACCESS:          0  iHIT:          0  iMISS:          0  dACCESS:          0  dHIT:          0  dMISS:          0  itACCESS:     105790  itHIT:      35988  itMISS:      69802  dtACCESS:     368991  dtHIT:     158239  dtMISS:     210752
cpu0_L2C PREFETCH  REQUESTED:    1516017  ISSUED:    1516016  CROSSED:          0  USEFUL:     414122  USELESS:     487260
cpu0_L2C AVERAGE iMISS LATENCY: 25.2482 cycles
cpu0_L2C AVERAGE dMISS LATENCY: 48.0428 cycles
cpu0_L2C AVERAGE itMISS LATENCY: 1.54358 cycles
cpu0_L2C AVERAGE dtMISS LATENCY: 4.84328 cycles
cpu0_L2C PAGE CROSSINGS (TLB HIT):         0 
cpu0_L2C PAGE CROSSINGS (TLB MISS):         0 
cpu0_L2C AVERAGE MISS LATENCY: 79.6779 cycles
LLC TOTAL       ACCESS:    6865376  HIT:    4325408  MISS:    2539968  iACCESS:    2884402  iHIT:    2106211  iMISS:     778191  dACCESS:    3700420  dHIT:    2151172  dMISS:    1549248  itACCESS:      69802  itHIT:      16481  itMISS:      53321  dtACCESS:     210752  dtHIT:      51544  dtMISS:     159208
LLC LOAD         ACCESS:    1842711  HIT:    1226987  MISS:     615724  iACCESS:     731853  iHIT:     568460  iMISS:     163393  dACCESS:    1110858  dHIT:     658527  dMISS:     452331  itACCESS:          0  itHIT:          0  itMISS:          0  dtACCESS:          0  dtHIT:          0  dtMISS:          0
LLC RFO          ACCESS:     180520  HIT:      95445  MISS:      85075  iACCESS:          0  iHIT:          0  iMISS:          0  dACCESS:     180520  dHIT:      95445  dMISS:      85075  itACCESS:          0  itHIT:          0  itMISS:          0  dtACCESS:          0  dtHIT:          0  dtMISS:          0
LLC PREFETCH     ACCESS:    4286329  HIT:    2667001  MISS:    1619328  iACCESS:    2152549  iHIT:    1537751  iMISS:     614798  dACCESS:    2133780  dHIT:    1129250  dMISS:    1004530  itACCESS:          0  itHIT:          0  itMISS:          0  dtACCESS:          0  dtHIT:          0  dtMISS:          0
LLC WRITE        ACCESS:     275262  HIT:     267950  MISS:       7312  iACCESS:          0  iHIT:          0  iMISS:          0  dACCESS:     275262  dHIT:     267950  dMISS:       7312  itACCESS:          0  itHIT:          0  itMISS:          0  dtACCESS:          0  dtHIT:          0  dtMISS:          0
LLC TRANSLATION  ACCESS:     280554  HIT:      68025  MISS:     212529  iACCESS:          0  iHIT:          0  iMISS:          0  dACCESS:          0  dHIT:          0  dMISS:          0  itACCESS:      69802  itHIT:      16481  itMISS:      53321  dtACCESS:     210752  dtHIT:      51544  dtMISS:     159208
LLC PREFETCH  REQUESTED:          0  ISSUED:          0  CROSSED:          0  USEFUL:          0  USELESS:          0
LLC AVERAGE iMISS LATENCY: 48.0309 cycles
LLC AVERAGE dMISS LATENCY: 107.804 cycles
LLC AVERAGE itMISS LATENCY: 3.74225 cycles
LLC AVERAGE dtMISS LATENCY: 11.8071 cycles
LLC PAGE CROSSINGS (TLB HIT):         0 
LLC PAGE CROSSINGS (TLB MISS):         0 
LLC AVERAGE MISS LATENCY: 171.385 cycles

PageTableWalker TOTAL       ACCESS:     185324  
PageTableWalker AVERAGE LATENCY: 5.87393 cycles
PageTableWalker TOTAL LATENCY: 1088579 cycles

DRAM Statistics
Channel 0
 RQ ROW_BUFFER_HIT:     565405
  ROW_BUFFER_MISS:    1957037
 AVG DBUS CONGESTED CYCLE:    3.64914
 WQ ROW_BUFFER_HIT:      64053
  ROW_BUFFER_MISS:      61454  FULL:          0

