last_page:0x200000000000000
VMEM_RES_CAP:0x100000
PAGE_SIZE:4096
LOG2_PAGE_SIZE:12
LOG2_PAGE_TABLE_SIZE:9
page_table_levels:5
WARNING: physical memory size is smaller than virtual memory size
FDiP enabled with aggresivity 16

*** ChampSim Multicore Out-of-Order Simulator ***

Warmup Instructions: 50000000
Simulation Instructions: 100000000
Number of CPUs: 1
Small page size: 4096
Large page size: 2097152

CPU 0 Bimodal branch predictor
Basic BTB sets: 1024 ways: 8 indirect buffer size: 4096 RAS size: 64
Instruction page size distrubution: 0
Loading instruction page size distribution from /home/bsc/bsc018186/scratch/itp_asplos25_AE/dump/smt_srv537_ap_srv346_ap_1024i.pdst
Data page size distrubution: 0
Loading data page size distribution from /home/bsc/bsc018186/scratch/itp_asplos25_AE/dump/smt_srv537_ap_srv346_ap_1024i.pdst
cpu0_L2C IP-based stride prefetcher
cpu0_L1D next line prefetcher
cpu0_L1I next line prefetcher
Off-chip DRAM Size: 4 GiB Channels: 1 Width: 64-bit Data Rate: 3200 MT/s
Heartbeat CPU 0 instructions: 10000003 cycles: 2500420 heartbeat IPC: 3.99933 cumulative IPC: 3.99933 (Simulation time: 0 hr 0 min 43 sec) 
Heartbeat CPU 0 instructions: 20000003 cycles: 5000682 heartbeat IPC: 3.99959 cumulative IPC: 3.99946 (Simulation time: 0 hr 1 min 28 sec) 
Heartbeat CPU 0 instructions: 30000000 cycles: 7500795 heartbeat IPC: 3.99982 cumulative IPC: 3.99958 (Simulation time: 0 hr 2 min 13 sec) 
Heartbeat CPU 0 instructions: 40000001 cycles: 10001087 heartbeat IPC: 3.99954 cumulative IPC: 3.99957 (Simulation time: 0 hr 2 min 59 sec) 
Heartbeat CPU 0 instructions: 50000002 cycles: 12501274 heartbeat IPC: 3.99971 cumulative IPC: 3.9996 (Simulation time: 0 hr 3 min 43 sec) 
Warmup finished CPU 0 instructions: 50000002 cycles: 12501275 cumulative IPC: 3.9996 (Simulation time: 0 hr 3 min 43 sec) 

Warmup complete CPU 0 instructions: 50000002 cycles: 12501275 (Simulation time: 0 hr 3 min 43 sec) 

Heartbeat CPU 0 instructions: 60000000 cycles: 41196965 heartbeat IPC: 0.348485 cumulative IPC: 0.348485 (Simulation time: 0 hr 5 min 13 sec) 
Heartbeat CPU 0 instructions: 70000003 cycles: 70055622 heartbeat IPC: 0.346517 cumulative IPC: 0.347498 (Simulation time: 0 hr 6 min 46 sec) 
Heartbeat CPU 0 instructions: 80000003 cycles: 98790855 heartbeat IPC: 0.348005 cumulative IPC: 0.347667 (Simulation time: 0 hr 8 min 16 sec) 
Heartbeat CPU 0 instructions: 90000000 cycles: 125904780 heartbeat IPC: 0.368815 cumulative IPC: 0.352723 (Simulation time: 0 hr 9 min 46 sec) 
Heartbeat CPU 0 instructions: 100000003 cycles: 154370967 heartbeat IPC: 0.351295 cumulative IPC: 0.352437 (Simulation time: 0 hr 11 min 17 sec) 
Heartbeat CPU 0 instructions: 110000001 cycles: 183905799 heartbeat IPC: 0.338584 cumulative IPC: 0.35005 (Simulation time: 0 hr 12 min 47 sec) 
Heartbeat CPU 0 instructions: 120000000 cycles: 211940362 heartbeat IPC: 0.356703 cumulative IPC: 0.350985 (Simulation time: 0 hr 14 min 12 sec) 
Heartbeat CPU 0 instructions: 130000002 cycles: 239631551 heartbeat IPC: 0.361126 cumulative IPC: 0.352221 (Simulation time: 0 hr 15 min 37 sec) 
Heartbeat CPU 0 instructions: 140000003 cycles: 268222303 heartbeat IPC: 0.349764 cumulative IPC: 0.351947 (Simulation time: 0 hr 17 min 1 sec) 
Heartbeat CPU 0 instructions: 150000002 cycles: 296767664 heartbeat IPC: 0.35032 cumulative IPC: 0.351783 (Simulation time: 0 hr 18 min 26 sec) 
Simulation finished CPU 0 instructions: 100000000 cycles: 284266390 cumulative IPC: 0.351783 (Simulation time: 0 hr 18 min 26 sec) 

Simulation complete CPU 0 instructions: 100000000 cycles: 284266390 (Simulation time: 0 hr 18 min 26 sec) 


ChampSim completed all CPUs

Saving instructions large page distribution to /home/bsc/bsc018186/scratch/itp_asplos25_AE/dump/smt_srv537_ap_srv346_ap_1024i.pdst...
Saving data large page distribution to /home/bsc/bsc018186/scratch/itp_asplos25_AE/dump/smt_srv537_ap_srv346_ap_1024i.pdst...
=== Simulation ===
CPU 0 runs /gpfs/projects/bsc18/MN4/bsc18/romol/ChampSim/traces/qualcomm_srv/smt_srv537_ap_srv346_ap_1024i.champsimtrace.xz

Region of Interest Statistics

CPU 0 cumulative IPC: 0.351783 instructions: 100000000 cycles: 284266390
CPU 0 Branch Prediction Accuracy: 76.0378% MPKI: 43.1546 Average ROB Occupancy at Mispredict: 11.2864
Branch type MPKI
BRANCH_DIRECT_JUMP: 1.29276
BRANCH_INDIRECT: 22.4335
BRANCH_CONDITIONAL: 12.5778
BRANCH_DIRECT_CALL: 2.48924
BRANCH_INDIRECT_CALL: 0.936221
BRANCH_RETURN: 3.42511

Instructions large pages: 0
Instructions small pages: 13507
Large page distribution for instructions: 0%

Data large pages: 0
Data small pages: 12202
Large page distribution for data: 0%

cpu0_L1I TOTAL       ACCESS:   39061800  HIT:   30364879  MISS:    8696921  iACCESS:   39061800  iHIT:   30364879  iMISS:    8696921  dACCESS:          0  dHIT:          0  dMISS:          0  itACCESS:          0  itHIT:          0  itMISS:          0  dtACCESS:          0  dtHIT:          0  dtMISS:          0
cpu0_L1I LOAD         ACCESS:   11744550  HIT:    9368564  MISS:    2375986  iACCESS:   11744550  iHIT:    9368564  iMISS:    2375986  dACCESS:          0  dHIT:          0  dMISS:          0  itACCESS:          0  itHIT:          0  itMISS:          0  dtACCESS:          0  dtHIT:          0  dtMISS:          0
cpu0_L1I RFO          ACCESS:          0  HIT:          0  MISS:          0  iACCESS:          0  iHIT:          0  iMISS:          0  dACCESS:          0  dHIT:          0  dMISS:          0  itACCESS:          0  itHIT:          0  itMISS:          0  dtACCESS:          0  dtHIT:          0  dtMISS:          0
cpu0_L1I PREFETCH     ACCESS:   27317250  HIT:   20996315  MISS:    6320935  iACCESS:   27317250  iHIT:   20996315  iMISS:    6320935  dACCESS:          0  dHIT:          0  dMISS:          0  itACCESS:          0  itHIT:          0  itMISS:          0  dtACCESS:          0  dtHIT:          0  dtMISS:          0
cpu0_L1I WRITE        ACCESS:          0  HIT:          0  MISS:          0  iACCESS:          0  iHIT:          0  iMISS:          0  dACCESS:          0  dHIT:          0  dMISS:          0  itACCESS:          0  itHIT:          0  itMISS:          0  dtACCESS:          0  dtHIT:          0  dtMISS:          0
cpu0_L1I TRANSLATION  ACCESS:          0  HIT:          0  MISS:          0  iACCESS:          0  iHIT:          0  iMISS:          0  dACCESS:          0  dHIT:          0  dMISS:          0  itACCESS:          0  itHIT:          0  itMISS:          0  dtACCESS:          0  dtHIT:          0  dtMISS:          0
cpu0_L1I PREFETCH  REQUESTED:   30201209  ISSUED:   30201177  CROSSED:          0  USEFUL:    2203150  USELESS:     756296
cpu0_L1I AVERAGE iMISS LATENCY: 22.6954 cycles
cpu0_L1I AVERAGE dMISS LATENCY: 0 cycles
cpu0_L1I AVERAGE itMISS LATENCY: 0 cycles
cpu0_L1I AVERAGE dtMISS LATENCY: 0 cycles
cpu0_L1I PAGE CROSSINGS (TLB HIT):         0 
cpu0_L1I PAGE CROSSINGS (TLB MISS):         0 
cpu0_L1I AVERAGE MISS LATENCY: 22.6954 cycles
cpu0_ITLB TOTAL       ACCESS:   32967334  HIT:   30761148  MISS:    2206186  iACCESS:   32967334  iHIT:   30761148  iMISS:    2206186  dACCESS:          0  dHIT:          0  dMISS:          0  itACCESS:          0  itHIT:          0  itMISS:          0  dtACCESS:          0  dtHIT:          0  dtMISS:          0
cpu0_ITLB LOAD         ACCESS:   32967334  HIT:   30761148  MISS:    2206186  iACCESS:   32967334  iHIT:   30761148  iMISS:    2206186  dACCESS:          0  dHIT:          0  dMISS:          0  itACCESS:          0  itHIT:          0  itMISS:          0  dtACCESS:          0  dtHIT:          0  dtMISS:          0
cpu0_ITLB RFO          ACCESS:          0  HIT:          0  MISS:          0  iACCESS:          0  iHIT:          0  iMISS:          0  dACCESS:          0  dHIT:          0  dMISS:          0  itACCESS:          0  itHIT:          0  itMISS:          0  dtACCESS:          0  dtHIT:          0  dtMISS:          0
cpu0_ITLB PREFETCH     ACCESS:          0  HIT:          0  MISS:          0  iACCESS:          0  iHIT:          0  iMISS:          0  dACCESS:          0  dHIT:          0  dMISS:          0  itACCESS:          0  itHIT:          0  itMISS:          0  dtACCESS:          0  dtHIT:          0  dtMISS:          0
cpu0_ITLB WRITE        ACCESS:          0  HIT:          0  MISS:          0  iACCESS:          0  iHIT:          0  iMISS:          0  dACCESS:          0  dHIT:          0  dMISS:          0  itACCESS:          0  itHIT:          0  itMISS:          0  dtACCESS:          0  dtHIT:          0  dtMISS:          0
cpu0_ITLB TRANSLATION  ACCESS:          0  HIT:          0  MISS:          0  iACCESS:          0  iHIT:          0  iMISS:          0  dACCESS:          0  dHIT:          0  dMISS:          0  itACCESS:          0  itHIT:          0  itMISS:          0  dtACCESS:          0  dtHIT:          0  dtMISS:          0
cpu0_ITLB PREFETCH  REQUESTED:          0  ISSUED:          0  CROSSED:          0  USEFUL:     384260  USELESS:      77307
cpu0_ITLB AVERAGE iMISS LATENCY: 9.46903 cycles
cpu0_ITLB AVERAGE dMISS LATENCY: 0 cycles
cpu0_ITLB AVERAGE itMISS LATENCY: 0 cycles
cpu0_ITLB AVERAGE dtMISS LATENCY: 0 cycles
cpu0_ITLB PAGE CROSSINGS (TLB HIT):         0 
cpu0_ITLB PAGE CROSSINGS (TLB MISS):         0 
cpu0_ITLB AVERAGE MISS LATENCY: 9.46903 cycles
cpu0_DTLB TOTAL       ACCESS:   28734228  HIT:   25318059  MISS:    3416169  iACCESS:          0  iHIT:          0  iMISS:          0  dACCESS:   28734228  dHIT:   25318059  dMISS:    3416169  itACCESS:          0  itHIT:          0  itMISS:          0  dtACCESS:          0  dtHIT:          0  dtMISS:          0
cpu0_DTLB LOAD         ACCESS:   28734228  HIT:   25318059  MISS:    3416169  iACCESS:          0  iHIT:          0  iMISS:          0  dACCESS:   28734228  dHIT:   25318059  dMISS:    3416169  itACCESS:          0  itHIT:          0  itMISS:          0  dtACCESS:          0  dtHIT:          0  dtMISS:          0
cpu0_DTLB RFO          ACCESS:          0  HIT:          0  MISS:          0  iACCESS:          0  iHIT:          0  iMISS:          0  dACCESS:          0  dHIT:          0  dMISS:          0  itACCESS:          0  itHIT:          0  itMISS:          0  dtACCESS:          0  dtHIT:          0  dtMISS:          0
cpu0_DTLB PREFETCH     ACCESS:          0  HIT:          0  MISS:          0  iACCESS:          0  iHIT:          0  iMISS:          0  dACCESS:          0  dHIT:          0  dMISS:          0  itACCESS:          0  itHIT:          0  itMISS:          0  dtACCESS:          0  dtHIT:          0  dtMISS:          0
cpu0_DTLB WRITE        ACCESS:          0  HIT:          0  MISS:          0  iACCESS:          0  iHIT:          0  iMISS:          0  dACCESS:          0  dHIT:          0  dMISS:          0  itACCESS:          0  itHIT:          0  itMISS:          0  dtACCESS:          0  dtHIT:          0  dtMISS:          0
cpu0_DTLB TRANSLATION  ACCESS:          0  HIT:          0  MISS:          0  iACCESS:          0  iHIT:          0  iMISS:          0  dACCESS:          0  dHIT:          0  dMISS:          0  itACCESS:          0  itHIT:          0  itMISS:          0  dtACCESS:          0  dtHIT:          0  dtMISS:          0
cpu0_DTLB PREFETCH  REQUESTED:          0  ISSUED:          0  CROSSED:          0  USEFUL:          0  USELESS:          0
cpu0_DTLB AVERAGE iMISS LATENCY: 0 cycles
cpu0_DTLB AVERAGE dMISS LATENCY: 24.8826 cycles
cpu0_DTLB AVERAGE itMISS LATENCY: 0 cycles
cpu0_DTLB AVERAGE dtMISS LATENCY: 0 cycles
cpu0_DTLB PAGE CROSSINGS (TLB HIT):         0 
cpu0_DTLB PAGE CROSSINGS (TLB MISS):         0 
cpu0_DTLB AVERAGE MISS LATENCY: 24.8826 cycles
cpu0_STLB TOTAL       ACCESS:    2413982  HIT:    2065944  MISS:     348038  iACCESS:     461578  iHIT:     354860  iMISS:     106718  dACCESS:    1952404  dHIT:    1711084  dMISS:     241320  itACCESS:          0  itHIT:          0  itMISS:          0  dtACCESS:          0  dtHIT:          0  dtMISS:          0
cpu0_STLB LOAD         ACCESS:    2413982  HIT:    2065944  MISS:     348038  iACCESS:     461578  iHIT:     354860  iMISS:     106718  dACCESS:    1952404  dHIT:    1711084  dMISS:     241320  itACCESS:          0  itHIT:          0  itMISS:          0  dtACCESS:          0  dtHIT:          0  dtMISS:          0
cpu0_STLB RFO          ACCESS:          0  HIT:          0  MISS:          0  iACCESS:          0  iHIT:          0  iMISS:          0  dACCESS:          0  dHIT:          0  dMISS:          0  itACCESS:          0  itHIT:          0  itMISS:          0  dtACCESS:          0  dtHIT:          0  dtMISS:          0
cpu0_STLB PREFETCH     ACCESS:          0  HIT:          0  MISS:          0  iACCESS:          0  iHIT:          0  iMISS:          0  dACCESS:          0  dHIT:          0  dMISS:          0  itACCESS:          0  itHIT:          0  itMISS:          0  dtACCESS:          0  dtHIT:          0  dtMISS:          0
cpu0_STLB WRITE        ACCESS:          0  HIT:          0  MISS:          0  iACCESS:          0  iHIT:          0  iMISS:          0  dACCESS:          0  dHIT:          0  dMISS:          0  itACCESS:          0  itHIT:          0  itMISS:          0  dtACCESS:          0  dtHIT:          0  dtMISS:          0
cpu0_STLB TRANSLATION  ACCESS:          0  HIT:          0  MISS:          0  iACCESS:          0  iHIT:          0  iMISS:          0  dACCESS:          0  dHIT:          0  dMISS:          0  itACCESS:          0  itHIT:          0  itMISS:          0  dtACCESS:          0  dtHIT:          0  dtMISS:          0
cpu0_STLB PREFETCH  REQUESTED:          0  ISSUED:          0  CROSSED:          0  USEFUL:          0  USELESS:          0
cpu0_STLB AVERAGE iMISS LATENCY: 49.4331 cycles
cpu0_STLB AVERAGE dMISS LATENCY: 199.145 cycles
cpu0_STLB AVERAGE itMISS LATENCY: 0 cycles
cpu0_STLB AVERAGE dtMISS LATENCY: 0 cycles
cpu0_STLB PAGE CROSSINGS (TLB HIT):         0 
cpu0_STLB PAGE CROSSINGS (TLB MISS):         0 
cpu0_STLB AVERAGE MISS LATENCY: 248.578 cycles
cpu0_L1D TOTAL       ACCESS:   44265374  HIT:   39075208  MISS:    5190166  iACCESS:          0  iHIT:          0  iMISS:          0  dACCESS:   43750088  dHIT:   39041231  dMISS:    4708857  itACCESS:     118688  itHIT:      15523  itMISS:     103165  dtACCESS:     396598  dtHIT:      18454  dtMISS:     378144
cpu0_L1D LOAD         ACCESS:   19953760  HIT:   17854662  MISS:    2099098  iACCESS:          0  iHIT:          0  iMISS:          0  dACCESS:   19953760  dHIT:   17854662  dMISS:    2099098  itACCESS:          0  itHIT:          0  itMISS:          0  dtACCESS:          0  dtHIT:          0  dtMISS:          0
cpu0_L1D RFO          ACCESS:          0  HIT:          0  MISS:          0  iACCESS:          0  iHIT:          0  iMISS:          0  dACCESS:          0  dHIT:          0  dMISS:          0  itACCESS:          0  itHIT:          0  itMISS:          0  dtACCESS:          0  dtHIT:          0  dtMISS:          0
cpu0_L1D PREFETCH     ACCESS:   13633943  HIT:   11562310  MISS:    2071633  iACCESS:          0  iHIT:          0  iMISS:          0  dACCESS:   13633943  dHIT:   11562310  dMISS:    2071633  itACCESS:          0  itHIT:          0  itMISS:          0  dtACCESS:          0  dtHIT:          0  dtMISS:          0
cpu0_L1D WRITE        ACCESS:   10162385  HIT:    9624259  MISS:     538126  iACCESS:          0  iHIT:          0  iMISS:          0  dACCESS:   10162385  dHIT:    9624259  dMISS:     538126  itACCESS:          0  itHIT:          0  itMISS:          0  dtACCESS:          0  dtHIT:          0  dtMISS:          0
cpu0_L1D TRANSLATION  ACCESS:     515286  HIT:      33977  MISS:     481309  iACCESS:          0  iHIT:          0  iMISS:          0  dACCESS:          0  dHIT:          0  dMISS:          0  itACCESS:     118688  itHIT:      15523  itMISS:     103165  dtACCESS:     396598  dtHIT:      18454  dtMISS:     378144
cpu0_L1D PREFETCH  REQUESTED:   19953760  ISSUED:   18217378  CROSSED:          0  USEFUL:     369211  USELESS:     905842
cpu0_L1D AVERAGE iMISS LATENCY: 0 cycles
cpu0_L1D AVERAGE dMISS LATENCY: 50.7639 cycles
cpu0_L1D AVERAGE itMISS LATENCY: 3.11976 cycles
cpu0_L1D AVERAGE dtMISS LATENCY: 12.3393 cycles
cpu0_L1D PAGE CROSSINGS (TLB HIT):         0 
cpu0_L1D PAGE CROSSINGS (TLB MISS):         0 
cpu0_L1D AVERAGE MISS LATENCY: 66.2229 cycles
cpu0_L2C TOTAL       ACCESS:    8501843  HIT:    4230179  MISS:    4271664  iACCESS:    3769152  iHIT:    2344102  iMISS:    1425050  dACCESS:    4280712  dHIT:    1830770  dMISS:    2449942  itACCESS:     103078  itHIT:      19801  itMISS:      83277  dtACCESS:     348901  dtHIT:      35506  dtMISS:     313395
cpu0_L2C LOAD         ACCESS:    2040175  HIT:    1027134  MISS:    1013041  iACCESS:     849103  iHIT:     554584  iMISS:     294519  dACCESS:    1191072  dHIT:     472550  dMISS:     718522  itACCESS:          0  itHIT:          0  itMISS:          0  dtACCESS:          0  dtHIT:          0  dtMISS:          0
cpu0_L2C RFO          ACCESS:     208525  HIT:      80714  MISS:     127811  iACCESS:          0  iHIT:          0  iMISS:          0  dACCESS:     208525  dHIT:      80714  dMISS:     127811  itACCESS:          0  itHIT:          0  itMISS:          0  dtACCESS:          0  dtHIT:          0  dtMISS:          0
cpu0_L2C PREFETCH     ACCESS:    5455671  HIT:    2725494  MISS:    2730177  iACCESS:    2920049  iHIT:    1789518  iMISS:    1130531  dACCESS:    2535622  dHIT:     935976  dMISS:    1599646  itACCESS:          0  itHIT:          0  itMISS:          0  dtACCESS:          0  dtHIT:          0  dtMISS:          0
cpu0_L2C WRITE        ACCESS:     345493  HIT:     341530  MISS:       3963  iACCESS:          0  iHIT:          0  iMISS:          0  dACCESS:     345493  dHIT:     341530  dMISS:       3963  itACCESS:          0  itHIT:          0  itMISS:          0  dtACCESS:          0  dtHIT:          0  dtMISS:          0
cpu0_L2C TRANSLATION  ACCESS:     451979  HIT:      55307  MISS:     396672  iACCESS:          0  iHIT:          0  iMISS:          0  dACCESS:          0  dHIT:          0  dMISS:          0  itACCESS:     103078  itHIT:      19801  itMISS:      83277  dtACCESS:     348901  dtHIT:      35506  dtMISS:     313395
cpu0_L2C PREFETCH  REQUESTED:    1505431  ISSUED:    1505431  CROSSED:          0  USEFUL:     358335  USELESS:     315083
cpu0_L2C AVERAGE iMISS LATENCY: 38.628 cycles
cpu0_L2C AVERAGE dMISS LATENCY: 76.6435 cycles
cpu0_L2C AVERAGE itMISS LATENCY: 3.55324 cycles
cpu0_L2C AVERAGE dtMISS LATENCY: 14.1793 cycles
cpu0_L2C PAGE CROSSINGS (TLB HIT):         0 
cpu0_L2C PAGE CROSSINGS (TLB MISS):         0 
cpu0_L2C AVERAGE MISS LATENCY: 133.004 cycles
LLC TOTAL       ACCESS:    4272517  HIT:    1400850  MISS:    2871667  iACCESS:    1334401  iHIT:     449571  iMISS:     884830  dACCESS:    2541444  dHIT:     912369  dMISS:    1629075  itACCESS:      83277  itHIT:       7495  itMISS:      75782  dtACCESS:     313395  dtHIT:      31415  dtMISS:     281980
LLC LOAD         ACCESS:    1008279  HIT:     350781  MISS:     657498  iACCESS:     293358  iHIT:     105366  iMISS:     187992  dACCESS:     714921  dHIT:     245415  dMISS:     469506  itACCESS:          0  itHIT:          0  itMISS:          0  dtACCESS:          0  dtHIT:          0  dtMISS:          0
LLC RFO          ACCESS:     127802  HIT:      41539  MISS:      86263  iACCESS:          0  iHIT:          0  iMISS:          0  dACCESS:     127802  dHIT:      41539  dMISS:      86263  itACCESS:          0  itHIT:          0  itMISS:          0  dtACCESS:          0  dtHIT:          0  dtMISS:          0
LLC PREFETCH     ACCESS:    2525913  HIT:     766432  MISS:    1759481  iACCESS:    1041043  iHIT:     344205  iMISS:     696838  dACCESS:    1484870  dHIT:     422227  dMISS:    1062643  itACCESS:          0  itHIT:          0  itMISS:          0  dtACCESS:          0  dtHIT:          0  dtMISS:          0
LLC WRITE        ACCESS:     213851  HIT:     203188  MISS:      10663  iACCESS:          0  iHIT:          0  iMISS:          0  dACCESS:     213851  dHIT:     203188  dMISS:      10663  itACCESS:          0  itHIT:          0  itMISS:          0  dtACCESS:          0  dtHIT:          0  dtMISS:          0
LLC TRANSLATION  ACCESS:     396672  HIT:      38910  MISS:     357762  iACCESS:          0  iHIT:          0  iMISS:          0  dACCESS:          0  dHIT:          0  dMISS:          0  itACCESS:      83277  itHIT:       7495  itMISS:      75782  dtACCESS:     313395  dtHIT:      31415  dtMISS:     281980
LLC PREFETCH  REQUESTED:          0  ISSUED:          0  CROSSED:          0  USEFUL:          0  USELESS:          0
LLC AVERAGE iMISS LATENCY: 48.3156 cycles
LLC AVERAGE dMISS LATENCY: 98.6247 cycles
LLC AVERAGE itMISS LATENCY: 4.71073 cycles
LLC AVERAGE dtMISS LATENCY: 18.9342 cycles
LLC PAGE CROSSINGS (TLB HIT):         0 
LLC PAGE CROSSINGS (TLB MISS):         0 
LLC AVERAGE MISS LATENCY: 170.586 cycles

PageTableWalker TOTAL       ACCESS:     171537  
PageTableWalker AVERAGE LATENCY: 6.56457 cycles
PageTableWalker TOTAL LATENCY: 1126066 cycles

DRAM Statistics
Channel 0
 RQ ROW_BUFFER_HIT:     623319
  ROW_BUFFER_MISS:    2228006
 AVG DBUS CONGESTED CYCLE:    3.64595
 WQ ROW_BUFFER_HIT:      62549
  ROW_BUFFER_MISS:      54036  FULL:          0

