last_page:0x200000000000000
VMEM_RES_CAP:0x100000
PAGE_SIZE:4096
LOG2_PAGE_SIZE:12
LOG2_PAGE_TABLE_SIZE:9
page_table_levels:5
WARNING: physical memory size is smaller than virtual memory size
FDiP enabled with aggresivity 16

*** ChampSim Multicore Out-of-Order Simulator ***

Warmup Instructions: 50000000
Simulation Instructions: 100000000
Number of CPUs: 1
Small page size: 4096
Large page size: 2097152

CPU 0 Bimodal branch predictor
Basic BTB sets: 1024 ways: 8 indirect buffer size: 4096 RAS size: 64
Instruction page size distrubution: 0
Loading instruction page size distribution from /home/bsc/bsc018186/scratch/itp_asplos25_AE/dump/smt_srv540_ap_srv727_ap_1024i.pdst
Data page size distrubution: 0
Loading data page size distribution from /home/bsc/bsc018186/scratch/itp_asplos25_AE/dump/smt_srv540_ap_srv727_ap_1024i.pdst
cpu0_L2C IP-based stride prefetcher
cpu0_L2C is using PTP replacement policy:
	TLB_STRESS_THRESHOLD:0
	PTE_EVICTION_RATIO:0
cpu0_L1D next line prefetcher
cpu0_STLB using iTP with max lru@8
cpu0_STLB using iTP with instr@0 and data@2
Init sat counter with 3 bits (max:50).
cpu0_L1I next line prefetcher
Off-chip DRAM Size: 4 GiB Channels: 1 Width: 64-bit Data Rate: 3200 MT/s
Heartbeat CPU 0 instructions: 10000001 cycles: 2500361 heartbeat IPC: 3.99943 cumulative IPC: 3.99943 (Simulation time: 0 hr 0 min 36 sec) 
Heartbeat CPU 0 instructions: 20000002 cycles: 5000485 heartbeat IPC: 3.99981 cumulative IPC: 3.99962 (Simulation time: 0 hr 1 min 15 sec) 
Heartbeat CPU 0 instructions: 30000000 cycles: 7500724 heartbeat IPC: 3.99962 cumulative IPC: 3.99962 (Simulation time: 0 hr 1 min 54 sec) 
Heartbeat CPU 0 instructions: 40000002 cycles: 10000791 heartbeat IPC: 3.9999 cumulative IPC: 3.99969 (Simulation time: 0 hr 2 min 33 sec) 
Heartbeat CPU 0 instructions: 50000003 cycles: 12500867 heartbeat IPC: 3.99988 cumulative IPC: 3.99973 (Simulation time: 0 hr 3 min 12 sec) 
Warmup finished CPU 0 instructions: 50000003 cycles: 12500868 cumulative IPC: 3.99973 (Simulation time: 0 hr 3 min 12 sec) 

Warmup complete CPU 0 instructions: 50000003 cycles: 12500868 (Simulation time: 0 hr 3 min 12 sec) 

Heartbeat CPU 0 instructions: 60000004 cycles: 41618285 heartbeat IPC: 0.343438 cumulative IPC: 0.343438 (Simulation time: 0 hr 4 min 32 sec) 
Heartbeat CPU 0 instructions: 70000000 cycles: 70987529 heartbeat IPC: 0.340493 cumulative IPC: 0.341959 (Simulation time: 0 hr 5 min 52 sec) 
Heartbeat CPU 0 instructions: 80000002 cycles: 101338499 heartbeat IPC: 0.329479 cumulative IPC: 0.337695 (Simulation time: 0 hr 7 min 13 sec) 
Heartbeat CPU 0 instructions: 90000000 cycles: 130869486 heartbeat IPC: 0.338628 cumulative IPC: 0.337928 (Simulation time: 0 hr 8 min 33 sec) 
Heartbeat CPU 0 instructions: 100000001 cycles: 162220364 heartbeat IPC: 0.318971 cumulative IPC: 0.333958 (Simulation time: 0 hr 9 min 56 sec) 
Heartbeat CPU 0 instructions: 110000000 cycles: 192697733 heartbeat IPC: 0.328113 cumulative IPC: 0.33297 (Simulation time: 0 hr 11 min 18 sec) 
Heartbeat CPU 0 instructions: 120000001 cycles: 223277843 heartbeat IPC: 0.32701 cumulative IPC: 0.332105 (Simulation time: 0 hr 12 min 40 sec) 
Heartbeat CPU 0 instructions: 130000001 cycles: 253303658 heartbeat IPC: 0.333047 cumulative IPC: 0.332223 (Simulation time: 0 hr 14 min 1 sec) 
Heartbeat CPU 0 instructions: 140000002 cycles: 283686669 heartbeat IPC: 0.329132 cumulative IPC: 0.331876 (Simulation time: 0 hr 15 min 22 sec) 
Heartbeat CPU 0 instructions: 150000001 cycles: 313542954 heartbeat IPC: 0.334938 cumulative IPC: 0.33218 (Simulation time: 0 hr 16 min 43 sec) 
Simulation finished CPU 0 instructions: 100000003 cycles: 301042088 cumulative IPC: 0.33218 (Simulation time: 0 hr 16 min 43 sec) 

Simulation complete CPU 0 instructions: 100000003 cycles: 301042088 (Simulation time: 0 hr 16 min 43 sec) 


ChampSim completed all CPUs

Saving instructions large page distribution to /home/bsc/bsc018186/scratch/itp_asplos25_AE/dump/smt_srv540_ap_srv727_ap_1024i.pdst...
Saving data large page distribution to /home/bsc/bsc018186/scratch/itp_asplos25_AE/dump/smt_srv540_ap_srv727_ap_1024i.pdst...
=== Simulation ===
CPU 0 runs /gpfs/projects/bsc18/MN4/bsc18/romol/ChampSim/traces/qualcomm_srv/smt_srv540_ap_srv727_ap_1024i.champsimtrace.xz

Region of Interest Statistics

CPU 0 cumulative IPC: 0.33218 instructions: 100000003 cycles: 301042088
CPU 0 Branch Prediction Accuracy: 75.1897% MPKI: 44.6915 Average ROB Occupancy at Mispredict: 11.0549
Branch type MPKI
BRANCH_DIRECT_JUMP: 1.37466
BRANCH_INDIRECT: 23.1064
BRANCH_CONDITIONAL: 13.0098
BRANCH_DIRECT_CALL: 2.66243
BRANCH_INDIRECT_CALL: 1.00783
BRANCH_RETURN: 3.53038

Instructions large pages: 0
Instructions small pages: 9524
Large page distribution for instructions: 0%

Data large pages: 0
Data small pages: 8152
Large page distribution for data: 0%

cpu0_L1I TOTAL       ACCESS:   39041810  HIT:   30395464  MISS:    8646346  iACCESS:   39041810  iHIT:   30395464  iMISS:    8646346  dACCESS:          0  dHIT:          0  dMISS:          0  itACCESS:          0  itHIT:          0  itMISS:          0  dtACCESS:          0  dtHIT:          0  dtMISS:          0
cpu0_L1I LOAD         ACCESS:   11657042  HIT:    9306795  MISS:    2350247  iACCESS:   11657042  iHIT:    9306795  iMISS:    2350247  dACCESS:          0  dHIT:          0  dMISS:          0  itACCESS:          0  itHIT:          0  itMISS:          0  dtACCESS:          0  dtHIT:          0  dtMISS:          0
cpu0_L1I RFO          ACCESS:          0  HIT:          0  MISS:          0  iACCESS:          0  iHIT:          0  iMISS:          0  dACCESS:          0  dHIT:          0  dMISS:          0  itACCESS:          0  itHIT:          0  itMISS:          0  dtACCESS:          0  dtHIT:          0  dtMISS:          0
cpu0_L1I PREFETCH     ACCESS:   27384768  HIT:   21088669  MISS:    6296099  iACCESS:   27384768  iHIT:   21088669  iMISS:    6296099  dACCESS:          0  dHIT:          0  dMISS:          0  itACCESS:          0  itHIT:          0  itMISS:          0  dtACCESS:          0  dtHIT:          0  dtMISS:          0
cpu0_L1I WRITE        ACCESS:          0  HIT:          0  MISS:          0  iACCESS:          0  iHIT:          0  iMISS:          0  dACCESS:          0  dHIT:          0  dMISS:          0  itACCESS:          0  itHIT:          0  itMISS:          0  dtACCESS:          0  dtHIT:          0  dtMISS:          0
cpu0_L1I TRANSLATION  ACCESS:          0  HIT:          0  MISS:          0  iACCESS:          0  iHIT:          0  iMISS:          0  dACCESS:          0  dHIT:          0  dMISS:          0  itACCESS:          0  itHIT:          0  itMISS:          0  dtACCESS:          0  dtHIT:          0  dtMISS:          0
cpu0_L1I PREFETCH  REQUESTED:   30170660  ISSUED:   30170508  CROSSED:          0  USEFUL:    2200315  USELESS:     761576
cpu0_L1I AVERAGE iMISS LATENCY: 24.7052 cycles
cpu0_L1I AVERAGE dMISS LATENCY: 0 cycles
cpu0_L1I AVERAGE itMISS LATENCY: 0 cycles
cpu0_L1I AVERAGE dtMISS LATENCY: 0 cycles
cpu0_L1I PAGE CROSSINGS (TLB HIT):         0 
cpu0_L1I PAGE CROSSINGS (TLB MISS):         0 
cpu0_L1I AVERAGE MISS LATENCY: 24.7052 cycles
cpu0_ITLB TOTAL       ACCESS:   33074765  HIT:   30851579  MISS:    2223186  iACCESS:   33074765  iHIT:   30851579  iMISS:    2223186  dACCESS:          0  dHIT:          0  dMISS:          0  itACCESS:          0  itHIT:          0  itMISS:          0  dtACCESS:          0  dtHIT:          0  dtMISS:          0
cpu0_ITLB LOAD         ACCESS:   33074765  HIT:   30851579  MISS:    2223186  iACCESS:   33074765  iHIT:   30851579  iMISS:    2223186  dACCESS:          0  dHIT:          0  dMISS:          0  itACCESS:          0  itHIT:          0  itMISS:          0  dtACCESS:          0  dtHIT:          0  dtMISS:          0
cpu0_ITLB RFO          ACCESS:          0  HIT:          0  MISS:          0  iACCESS:          0  iHIT:          0  iMISS:          0  dACCESS:          0  dHIT:          0  dMISS:          0  itACCESS:          0  itHIT:          0  itMISS:          0  dtACCESS:          0  dtHIT:          0  dtMISS:          0
cpu0_ITLB PREFETCH     ACCESS:          0  HIT:          0  MISS:          0  iACCESS:          0  iHIT:          0  iMISS:          0  dACCESS:          0  dHIT:          0  dMISS:          0  itACCESS:          0  itHIT:          0  itMISS:          0  dtACCESS:          0  dtHIT:          0  dtMISS:          0
cpu0_ITLB WRITE        ACCESS:          0  HIT:          0  MISS:          0  iACCESS:          0  iHIT:          0  iMISS:          0  dACCESS:          0  dHIT:          0  dMISS:          0  itACCESS:          0  itHIT:          0  itMISS:          0  dtACCESS:          0  dtHIT:          0  dtMISS:          0
cpu0_ITLB TRANSLATION  ACCESS:          0  HIT:          0  MISS:          0  iACCESS:          0  iHIT:          0  iMISS:          0  dACCESS:          0  dHIT:          0  dMISS:          0  itACCESS:          0  itHIT:          0  itMISS:          0  dtACCESS:          0  dtHIT:          0  dtMISS:          0
cpu0_ITLB PREFETCH  REQUESTED:          0  ISSUED:          0  CROSSED:          0  USEFUL:     387375  USELESS:      79332
cpu0_ITLB AVERAGE iMISS LATENCY: 6.85342 cycles
cpu0_ITLB AVERAGE dMISS LATENCY: 0 cycles
cpu0_ITLB AVERAGE itMISS LATENCY: 0 cycles
cpu0_ITLB AVERAGE dtMISS LATENCY: 0 cycles
cpu0_ITLB PAGE CROSSINGS (TLB HIT):         0 
cpu0_ITLB PAGE CROSSINGS (TLB MISS):         0 
cpu0_ITLB AVERAGE MISS LATENCY: 6.85342 cycles
cpu0_DTLB TOTAL       ACCESS:   28833822  HIT:   25219706  MISS:    3614116  iACCESS:          0  iHIT:          0  iMISS:          0  dACCESS:   28833822  dHIT:   25219706  dMISS:    3614116  itACCESS:          0  itHIT:          0  itMISS:          0  dtACCESS:          0  dtHIT:          0  dtMISS:          0
cpu0_DTLB LOAD         ACCESS:   28833822  HIT:   25219706  MISS:    3614116  iACCESS:          0  iHIT:          0  iMISS:          0  dACCESS:   28833822  dHIT:   25219706  dMISS:    3614116  itACCESS:          0  itHIT:          0  itMISS:          0  dtACCESS:          0  dtHIT:          0  dtMISS:          0
cpu0_DTLB RFO          ACCESS:          0  HIT:          0  MISS:          0  iACCESS:          0  iHIT:          0  iMISS:          0  dACCESS:          0  dHIT:          0  dMISS:          0  itACCESS:          0  itHIT:          0  itMISS:          0  dtACCESS:          0  dtHIT:          0  dtMISS:          0
cpu0_DTLB PREFETCH     ACCESS:          0  HIT:          0  MISS:          0  iACCESS:          0  iHIT:          0  iMISS:          0  dACCESS:          0  dHIT:          0  dMISS:          0  itACCESS:          0  itHIT:          0  itMISS:          0  dtACCESS:          0  dtHIT:          0  dtMISS:          0
cpu0_DTLB WRITE        ACCESS:          0  HIT:          0  MISS:          0  iACCESS:          0  iHIT:          0  iMISS:          0  dACCESS:          0  dHIT:          0  dMISS:          0  itACCESS:          0  itHIT:          0  itMISS:          0  dtACCESS:          0  dtHIT:          0  dtMISS:          0
cpu0_DTLB TRANSLATION  ACCESS:          0  HIT:          0  MISS:          0  iACCESS:          0  iHIT:          0  iMISS:          0  dACCESS:          0  dHIT:          0  dMISS:          0  itACCESS:          0  itHIT:          0  itMISS:          0  dtACCESS:          0  dtHIT:          0  dtMISS:          0
cpu0_DTLB PREFETCH  REQUESTED:          0  ISSUED:          0  CROSSED:          0  USEFUL:          0  USELESS:          0
cpu0_DTLB AVERAGE iMISS LATENCY: 0 cycles
cpu0_DTLB AVERAGE dMISS LATENCY: 28.0637 cycles
cpu0_DTLB AVERAGE itMISS LATENCY: 0 cycles
cpu0_DTLB AVERAGE dtMISS LATENCY: 0 cycles
cpu0_DTLB PAGE CROSSINGS (TLB HIT):         0 
cpu0_DTLB PAGE CROSSINGS (TLB MISS):         0 
cpu0_DTLB AVERAGE MISS LATENCY: 28.0637 cycles
cpu0_STLB TOTAL       ACCESS:    2572761  HIT:    2194834  MISS:     377927  iACCESS:     466705  iHIT:     406846  iMISS:      59859  dACCESS:    2106056  dHIT:    1787988  dMISS:     318068  itACCESS:          0  itHIT:          0  itMISS:          0  dtACCESS:          0  dtHIT:          0  dtMISS:          0
cpu0_STLB LOAD         ACCESS:    2572761  HIT:    2194834  MISS:     377927  iACCESS:     466705  iHIT:     406846  iMISS:      59859  dACCESS:    2106056  dHIT:    1787988  dMISS:     318068  itACCESS:          0  itHIT:          0  itMISS:          0  dtACCESS:          0  dtHIT:          0  dtMISS:          0
cpu0_STLB RFO          ACCESS:          0  HIT:          0  MISS:          0  iACCESS:          0  iHIT:          0  iMISS:          0  dACCESS:          0  dHIT:          0  dMISS:          0  itACCESS:          0  itHIT:          0  itMISS:          0  dtACCESS:          0  dtHIT:          0  dtMISS:          0
cpu0_STLB PREFETCH     ACCESS:          0  HIT:          0  MISS:          0  iACCESS:          0  iHIT:          0  iMISS:          0  dACCESS:          0  dHIT:          0  dMISS:          0  itACCESS:          0  itHIT:          0  itMISS:          0  dtACCESS:          0  dtHIT:          0  dtMISS:          0
cpu0_STLB WRITE        ACCESS:          0  HIT:          0  MISS:          0  iACCESS:          0  iHIT:          0  iMISS:          0  dACCESS:          0  dHIT:          0  dMISS:          0  itACCESS:          0  itHIT:          0  itMISS:          0  dtACCESS:          0  dtHIT:          0  dtMISS:          0
cpu0_STLB TRANSLATION  ACCESS:          0  HIT:          0  MISS:          0  iACCESS:          0  iHIT:          0  iMISS:          0  dACCESS:          0  dHIT:          0  dMISS:          0  itACCESS:          0  itHIT:          0  itMISS:          0  dtACCESS:          0  dtHIT:          0  dtMISS:          0
cpu0_STLB PREFETCH  REQUESTED:          0  ISSUED:          0  CROSSED:          0  USEFUL:          0  USELESS:          0
cpu0_STLB AVERAGE iMISS LATENCY: 30.596 cycles
cpu0_STLB AVERAGE dMISS LATENCY: 223.355 cycles
cpu0_STLB AVERAGE itMISS LATENCY: 0 cycles
cpu0_STLB AVERAGE dtMISS LATENCY: 0 cycles
cpu0_STLB PAGE CROSSINGS (TLB HIT):         0 
cpu0_STLB PAGE CROSSINGS (TLB MISS):         0 
cpu0_STLB AVERAGE MISS LATENCY: 253.951 cycles
cpu0_L1D TOTAL       ACCESS:   44921546  HIT:   39061107  MISS:    5860439  iACCESS:          0  iHIT:          0  iMISS:          0  dACCESS:   44344292  dHIT:   39031477  dMISS:    5312815  itACCESS:      70089  itHIT:       5420  itMISS:      64669  dtACCESS:     507165  dtHIT:      24210  dtMISS:     482955
cpu0_L1D LOAD         ACCESS:   20280965  HIT:   17894475  MISS:    2386490  iACCESS:          0  iHIT:          0  iMISS:          0  dACCESS:   20280965  dHIT:   17894475  dMISS:    2386490  itACCESS:          0  itHIT:          0  itMISS:          0  dtACCESS:          0  dtHIT:          0  dtMISS:          0
cpu0_L1D RFO          ACCESS:          0  HIT:          0  MISS:          0  iACCESS:          0  iHIT:          0  iMISS:          0  dACCESS:          0  dHIT:          0  dMISS:          0  itACCESS:          0  itHIT:          0  itMISS:          0  dtACCESS:          0  dtHIT:          0  dtMISS:          0
cpu0_L1D PREFETCH     ACCESS:   13920373  HIT:   11575955  MISS:    2344418  iACCESS:          0  iHIT:          0  iMISS:          0  dACCESS:   13920373  dHIT:   11575955  dMISS:    2344418  itACCESS:          0  itHIT:          0  itMISS:          0  dtACCESS:          0  dtHIT:          0  dtMISS:          0
cpu0_L1D WRITE        ACCESS:   10142954  HIT:    9561047  MISS:     581907  iACCESS:          0  iHIT:          0  iMISS:          0  dACCESS:   10142954  dHIT:    9561047  dMISS:     581907  itACCESS:          0  itHIT:          0  itMISS:          0  dtACCESS:          0  dtHIT:          0  dtMISS:          0
cpu0_L1D TRANSLATION  ACCESS:     577254  HIT:      29630  MISS:     547624  iACCESS:          0  iHIT:          0  iMISS:          0  dACCESS:          0  dHIT:          0  dMISS:          0  itACCESS:      70089  itHIT:       5420  itMISS:      64669  dtACCESS:     507165  dtHIT:      24210  dtMISS:     482955
cpu0_L1D PREFETCH  REQUESTED:   20280965  ISSUED:   18409318  CROSSED:          0  USEFUL:     360505  USELESS:     929207
cpu0_L1D AVERAGE iMISS LATENCY: 0 cycles
cpu0_L1D AVERAGE dMISS LATENCY: 49.3215 cycles
cpu0_L1D AVERAGE itMISS LATENCY: 1.86994 cycles
cpu0_L1D AVERAGE dtMISS LATENCY: 13.5286 cycles
cpu0_L1D PAGE CROSSINGS (TLB HIT):         0 
cpu0_L1D PAGE CROSSINGS (TLB MISS):         0 
cpu0_L1D AVERAGE MISS LATENCY: 64.72 cycles
cpu0_L2C TOTAL       ACCESS:    8645328  HIT:    4197104  MISS:    4448224  iACCESS:    3766061  iHIT:    2295957  iMISS:    1470104  dACCESS:    4361045  dHIT:    1833707  dMISS:    2527338  itACCESS:      64489  itHIT:       9719  itMISS:      54770  dtACCESS:     453733  dtHIT:      57721  dtMISS:     396012
cpu0_L2C LOAD         ACCESS:    2044565  HIT:     997707  MISS:    1046858  iACCESS:     842752  iHIT:     535269  iMISS:     307483  dACCESS:    1201813  dHIT:     462438  dMISS:     739375  itACCESS:          0  itHIT:          0  itMISS:          0  dtACCESS:          0  dtHIT:          0  dtMISS:          0
cpu0_L2C RFO          ACCESS:     220123  HIT:      83556  MISS:     136567  iACCESS:          0  iHIT:          0  iMISS:          0  dACCESS:     220123  dHIT:      83556  dMISS:     136567  itACCESS:          0  itHIT:          0  itMISS:          0  dtACCESS:          0  dtHIT:          0  dtMISS:          0
cpu0_L2C PREFETCH     ACCESS:    5514845  HIT:    2704501  MISS:    2810344  iACCESS:    2923309  iHIT:    1760688  iMISS:    1162621  dACCESS:    2591536  dHIT:     943813  dMISS:    1647723  itACCESS:          0  itHIT:          0  itMISS:          0  dtACCESS:          0  dtHIT:          0  dtMISS:          0
cpu0_L2C WRITE        ACCESS:     347573  HIT:     343900  MISS:       3673  iACCESS:          0  iHIT:          0  iMISS:          0  dACCESS:     347573  dHIT:     343900  dMISS:       3673  itACCESS:          0  itHIT:          0  itMISS:          0  dtACCESS:          0  dtHIT:          0  dtMISS:          0
cpu0_L2C TRANSLATION  ACCESS:     518222  HIT:      67440  MISS:     450782  iACCESS:          0  iHIT:          0  iMISS:          0  dACCESS:          0  dHIT:          0  dMISS:          0  itACCESS:      64489  itHIT:       9719  itMISS:      54770  dtACCESS:     453733  dtHIT:      57721  dtMISS:     396012
cpu0_L2C PREFETCH  REQUESTED:    1541942  ISSUED:    1541940  CROSSED:          0  USEFUL:     358497  USELESS:     322428
cpu0_L2C AVERAGE iMISS LATENCY: 40.9991 cycles
cpu0_L2C AVERAGE dMISS LATENCY: 80.8906 cycles
cpu0_L2C AVERAGE itMISS LATENCY: 2.32039 cycles
cpu0_L2C AVERAGE dtMISS LATENCY: 16.8106 cycles
cpu0_L2C PAGE CROSSINGS (TLB HIT):         0 
cpu0_L2C PAGE CROSSINGS (TLB MISS):         0 
cpu0_L2C AVERAGE MISS LATENCY: 141.021 cycles
LLC TOTAL       ACCESS:    4438641  HIT:    1292208  MISS:    3146433  iACCESS:    1379472  iHIT:     409269  iMISS:     970203  dACCESS:    2608387  dHIT:     829451  dMISS:    1778936  itACCESS:      54770  itHIT:       3349  itMISS:      51421  dtACCESS:     396012  dtHIT:      50139  dtMISS:     345873
LLC LOAD         ACCESS:    1039935  HIT:     316598  MISS:     723337  iACCESS:     306256  iHIT:      97527  iMISS:     208729  dACCESS:     733679  dHIT:     219071  dMISS:     514608  itACCESS:          0  itHIT:          0  itMISS:          0  dtACCESS:          0  dtHIT:          0  dtMISS:          0
LLC RFO          ACCESS:     136558  HIT:      39941  MISS:      96617  iACCESS:          0  iHIT:          0  iMISS:          0  dACCESS:     136558  dHIT:      39941  dMISS:      96617  itACCESS:          0  itHIT:          0  itMISS:          0  dtACCESS:          0  dtHIT:          0  dtMISS:          0
LLC PREFETCH     ACCESS:    2596591  HIT:     678088  MISS:    1918503  iACCESS:    1073216  iHIT:     311742  iMISS:     761474  dACCESS:    1523375  dHIT:     366346  dMISS:    1157029  itACCESS:          0  itHIT:          0  itMISS:          0  dtACCESS:          0  dtHIT:          0  dtMISS:          0
LLC WRITE        ACCESS:     214775  HIT:     204093  MISS:      10682  iACCESS:          0  iHIT:          0  iMISS:          0  dACCESS:     214775  dHIT:     204093  dMISS:      10682  itACCESS:          0  itHIT:          0  itMISS:          0  dtACCESS:          0  dtHIT:          0  dtMISS:          0
LLC TRANSLATION  ACCESS:     450782  HIT:      53488  MISS:     397294  iACCESS:          0  iHIT:          0  iMISS:          0  dACCESS:          0  dHIT:          0  dMISS:          0  itACCESS:      54770  itHIT:       3349  itMISS:      51421  dtACCESS:     396012  dtHIT:      50139  dtMISS:     345873
LLC PREFETCH  REQUESTED:          0  ISSUED:          0  CROSSED:          0  USEFUL:          0  USELESS:          0
LLC AVERAGE iMISS LATENCY: 49.3203 cycles
LLC AVERAGE dMISS LATENCY: 100.406 cycles
LLC AVERAGE itMISS LATENCY: 2.93499 cycles
LLC AVERAGE dtMISS LATENCY: 21.2789 cycles
LLC PAGE CROSSINGS (TLB HIT):         0 
LLC PAGE CROSSINGS (TLB MISS):         0 
LLC AVERAGE MISS LATENCY: 173.94 cycles

PageTableWalker TOTAL       ACCESS:     188015  
PageTableWalker AVERAGE LATENCY: 6.78895 cycles
PageTableWalker TOTAL LATENCY: 1276424 cycles

DRAM Statistics
Channel 0
 RQ ROW_BUFFER_HIT:     650031
  ROW_BUFFER_MISS:    2464441
 AVG DBUS CONGESTED CYCLE:    3.65282
 WQ ROW_BUFFER_HIT:      66853
  ROW_BUFFER_MISS:      59179  FULL:          0

