last_page:0x200000000000000
VMEM_RES_CAP:0x100000
PAGE_SIZE:4096
LOG2_PAGE_SIZE:12
LOG2_PAGE_TABLE_SIZE:9
page_table_levels:5
WARNING: physical memory size is smaller than virtual memory size
FDiP enabled with aggresivity 16

*** ChampSim Multicore Out-of-Order Simulator ***

Warmup Instructions: 50000000
Simulation Instructions: 100000000
Number of CPUs: 1
Small page size: 4096
Large page size: 2097152

CPU 0 Bimodal branch predictor
Basic BTB sets: 1024 ways: 8 indirect buffer size: 4096 RAS size: 64
Instruction page size distrubution: 0
Loading instruction page size distribution from /home/bsc/bsc018186/scratch/itp_asplos25_AE/dump/smt_srv537_ap_srv224_ap_1024i.pdst
Data page size distrubution: 0
Loading data page size distribution from /home/bsc/bsc018186/scratch/itp_asplos25_AE/dump/smt_srv537_ap_srv224_ap_1024i.pdst
cpu0_L2C IP-based stride prefetcher
cpu0_L2C is using PTP replacement policy:
	TLB_STRESS_THRESHOLD:0
	PTE_EVICTION_RATIO:0
cpu0_L1D next line prefetcher
CHiRPing...
cpu0_L1I next line prefetcher
Off-chip DRAM Size: 4 GiB Channels: 1 Width: 64-bit Data Rate: 3200 MT/s
Heartbeat CPU 0 instructions: 10000002 cycles: 2500611 heartbeat IPC: 3.99903 cumulative IPC: 3.99903 (Simulation time: 0 hr 0 min 40 sec) 
Heartbeat CPU 0 instructions: 20000003 cycles: 5000913 heartbeat IPC: 3.99952 cumulative IPC: 3.99928 (Simulation time: 0 hr 1 min 21 sec) 
Heartbeat CPU 0 instructions: 30000000 cycles: 7501281 heartbeat IPC: 3.99942 cumulative IPC: 3.99932 (Simulation time: 0 hr 2 min 3 sec) 
Heartbeat CPU 0 instructions: 40000000 cycles: 10048913 heartbeat IPC: 3.92522 cumulative IPC: 3.98054 (Simulation time: 0 hr 2 min 46 sec) 
Heartbeat CPU 0 instructions: 50000001 cycles: 12611407 heartbeat IPC: 3.90245 cumulative IPC: 3.96467 (Simulation time: 0 hr 3 min 31 sec) 
Warmup finished CPU 0 instructions: 50000001 cycles: 12611408 cumulative IPC: 3.96467 (Simulation time: 0 hr 3 min 31 sec) 

Warmup complete CPU 0 instructions: 50000001 cycles: 12611408 (Simulation time: 0 hr 3 min 31 sec) 

Heartbeat CPU 0 instructions: 60000002 cycles: 29709489 heartbeat IPC: 0.584861 cumulative IPC: 0.584862 (Simulation time: 0 hr 4 min 43 sec) 
Heartbeat CPU 0 instructions: 70000003 cycles: 58427868 heartbeat IPC: 0.34821 cumulative IPC: 0.436525 (Simulation time: 0 hr 6 min 8 sec) 
Heartbeat CPU 0 instructions: 80000002 cycles: 86444214 heartbeat IPC: 0.356935 cumulative IPC: 0.406324 (Simulation time: 0 hr 7 min 33 sec) 
Heartbeat CPU 0 instructions: 90000000 cycles: 115516412 heartbeat IPC: 0.343972 cumulative IPC: 0.388709 (Simulation time: 0 hr 8 min 59 sec) 
Heartbeat CPU 0 instructions: 100000003 cycles: 143830747 heartbeat IPC: 0.353179 cumulative IPC: 0.381042 (Simulation time: 0 hr 10 min 24 sec) 
Heartbeat CPU 0 instructions: 110000002 cycles: 173143335 heartbeat IPC: 0.341151 cumulative IPC: 0.373758 (Simulation time: 0 hr 11 min 51 sec) 
Heartbeat CPU 0 instructions: 120000000 cycles: 201040235 heartbeat IPC: 0.358463 cumulative IPC: 0.371494 (Simulation time: 0 hr 13 min 15 sec) 
Heartbeat CPU 0 instructions: 130000000 cycles: 229114692 heartbeat IPC: 0.356196 cumulative IPC: 0.36951 (Simulation time: 0 hr 14 min 38 sec) 
Heartbeat CPU 0 instructions: 140000003 cycles: 258035641 heartbeat IPC: 0.345771 cumulative IPC: 0.366712 (Simulation time: 0 hr 16 min 2 sec) 
Heartbeat CPU 0 instructions: 150000002 cycles: 286695593 heartbeat IPC: 0.348919 cumulative IPC: 0.364852 (Simulation time: 0 hr 17 min 25 sec) 
Simulation finished CPU 0 instructions: 100000001 cycles: 274084186 cumulative IPC: 0.364852 (Simulation time: 0 hr 17 min 25 sec) 

Simulation complete CPU 0 instructions: 100000001 cycles: 274084186 (Simulation time: 0 hr 17 min 25 sec) 


ChampSim completed all CPUs

Saving instructions large page distribution to /home/bsc/bsc018186/scratch/itp_asplos25_AE/dump/smt_srv537_ap_srv224_ap_1024i.pdst...
Saving data large page distribution to /home/bsc/bsc018186/scratch/itp_asplos25_AE/dump/smt_srv537_ap_srv224_ap_1024i.pdst...
=== Simulation ===
CPU 0 runs /gpfs/projects/bsc18/MN4/bsc18/romol/ChampSim/traces/qualcomm_srv/smt_srv537_ap_srv224_ap_1024i.champsimtrace.xz

Region of Interest Statistics

CPU 0 cumulative IPC: 0.364852 instructions: 100000001 cycles: 274084186
CPU 0 Branch Prediction Accuracy: 77.0391% MPKI: 42.6818 Average ROB Occupancy at Mispredict: 11.36
Branch type MPKI
BRANCH_DIRECT_JUMP: 1.24266
BRANCH_INDIRECT: 22.3948
BRANCH_CONDITIONAL: 12.3743
BRANCH_DIRECT_CALL: 2.36182
BRANCH_INDIRECT_CALL: 1.00877
BRANCH_RETURN: 3.29944

Instructions large pages: 0
Instructions small pages: 13855
Large page distribution for instructions: 0%

Data large pages: 0
Data small pages: 12484
Large page distribution for data: 0%

cpu0_L1I TOTAL       ACCESS:   39541013  HIT:   31388299  MISS:    8152714  iACCESS:   39541013  iHIT:   31388299  iMISS:    8152714  dACCESS:          0  dHIT:          0  dMISS:          0  itACCESS:          0  itHIT:          0  itMISS:          0  dtACCESS:          0  dtHIT:          0  dtMISS:          0
cpu0_L1I LOAD         ACCESS:   11649868  HIT:    9425062  MISS:    2224806  iACCESS:   11649868  iHIT:    9425062  iMISS:    2224806  dACCESS:          0  dHIT:          0  dMISS:          0  itACCESS:          0  itHIT:          0  itMISS:          0  dtACCESS:          0  dtHIT:          0  dtMISS:          0
cpu0_L1I RFO          ACCESS:          0  HIT:          0  MISS:          0  iACCESS:          0  iHIT:          0  iMISS:          0  dACCESS:          0  dHIT:          0  dMISS:          0  itACCESS:          0  itHIT:          0  itMISS:          0  dtACCESS:          0  dtHIT:          0  dtMISS:          0
cpu0_L1I PREFETCH     ACCESS:   27891145  HIT:   21963237  MISS:    5927908  iACCESS:   27891145  iHIT:   21963237  iMISS:    5927908  dACCESS:          0  dHIT:          0  dMISS:          0  itACCESS:          0  itHIT:          0  itMISS:          0  dtACCESS:          0  dtHIT:          0  dtMISS:          0
cpu0_L1I WRITE        ACCESS:          0  HIT:          0  MISS:          0  iACCESS:          0  iHIT:          0  iMISS:          0  dACCESS:          0  dHIT:          0  dMISS:          0  itACCESS:          0  itHIT:          0  itMISS:          0  dtACCESS:          0  dtHIT:          0  dtMISS:          0
cpu0_L1I TRANSLATION  ACCESS:          0  HIT:          0  MISS:          0  iACCESS:          0  iHIT:          0  iMISS:          0  dACCESS:          0  dHIT:          0  dMISS:          0  itACCESS:          0  itHIT:          0  itMISS:          0  dtACCESS:          0  dtHIT:          0  dtMISS:          0
cpu0_L1I PREFETCH  REQUESTED:   30710809  ISSUED:   30710785  CROSSED:          0  USEFUL:    2073831  USELESS:     709230
cpu0_L1I AVERAGE iMISS LATENCY: 22.8799 cycles
cpu0_L1I AVERAGE dMISS LATENCY: 0 cycles
cpu0_L1I AVERAGE itMISS LATENCY: 0 cycles
cpu0_L1I AVERAGE dtMISS LATENCY: 0 cycles
cpu0_L1I PAGE CROSSINGS (TLB HIT):         0 
cpu0_L1I PAGE CROSSINGS (TLB MISS):         0 
cpu0_L1I AVERAGE MISS LATENCY: 22.8799 cycles
cpu0_ITLB TOTAL       ACCESS:   33285188  HIT:   31200816  MISS:    2084372  iACCESS:   33285188  iHIT:   31200816  iMISS:    2084372  dACCESS:          0  dHIT:          0  dMISS:          0  itACCESS:          0  itHIT:          0  itMISS:          0  dtACCESS:          0  dtHIT:          0  dtMISS:          0
cpu0_ITLB LOAD         ACCESS:   33285188  HIT:   31200816  MISS:    2084372  iACCESS:   33285188  iHIT:   31200816  iMISS:    2084372  dACCESS:          0  dHIT:          0  dMISS:          0  itACCESS:          0  itHIT:          0  itMISS:          0  dtACCESS:          0  dtHIT:          0  dtMISS:          0
cpu0_ITLB RFO          ACCESS:          0  HIT:          0  MISS:          0  iACCESS:          0  iHIT:          0  iMISS:          0  dACCESS:          0  dHIT:          0  dMISS:          0  itACCESS:          0  itHIT:          0  itMISS:          0  dtACCESS:          0  dtHIT:          0  dtMISS:          0
cpu0_ITLB PREFETCH     ACCESS:          0  HIT:          0  MISS:          0  iACCESS:          0  iHIT:          0  iMISS:          0  dACCESS:          0  dHIT:          0  dMISS:          0  itACCESS:          0  itHIT:          0  itMISS:          0  dtACCESS:          0  dtHIT:          0  dtMISS:          0
cpu0_ITLB WRITE        ACCESS:          0  HIT:          0  MISS:          0  iACCESS:          0  iHIT:          0  iMISS:          0  dACCESS:          0  dHIT:          0  dMISS:          0  itACCESS:          0  itHIT:          0  itMISS:          0  dtACCESS:          0  dtHIT:          0  dtMISS:          0
cpu0_ITLB TRANSLATION  ACCESS:          0  HIT:          0  MISS:          0  iACCESS:          0  iHIT:          0  iMISS:          0  dACCESS:          0  dHIT:          0  dMISS:          0  itACCESS:          0  itHIT:          0  itMISS:          0  dtACCESS:          0  dtHIT:          0  dtMISS:          0
cpu0_ITLB PREFETCH  REQUESTED:          0  ISSUED:          0  CROSSED:          0  USEFUL:     361136  USELESS:      75070
cpu0_ITLB AVERAGE iMISS LATENCY: 9.49074 cycles
cpu0_ITLB AVERAGE dMISS LATENCY: 0 cycles
cpu0_ITLB AVERAGE itMISS LATENCY: 0 cycles
cpu0_ITLB AVERAGE dtMISS LATENCY: 0 cycles
cpu0_ITLB PAGE CROSSINGS (TLB HIT):         0 
cpu0_ITLB PAGE CROSSINGS (TLB MISS):         0 
cpu0_ITLB AVERAGE MISS LATENCY: 9.49074 cycles
cpu0_DTLB TOTAL       ACCESS:   29642229  HIT:   25093533  MISS:    4548696  iACCESS:          0  iHIT:          0  iMISS:          0  dACCESS:   29642229  dHIT:   25093533  dMISS:    4548696  itACCESS:          0  itHIT:          0  itMISS:          0  dtACCESS:          0  dtHIT:          0  dtMISS:          0
cpu0_DTLB LOAD         ACCESS:   29642229  HIT:   25093533  MISS:    4548696  iACCESS:          0  iHIT:          0  iMISS:          0  dACCESS:   29642229  dHIT:   25093533  dMISS:    4548696  itACCESS:          0  itHIT:          0  itMISS:          0  dtACCESS:          0  dtHIT:          0  dtMISS:          0
cpu0_DTLB RFO          ACCESS:          0  HIT:          0  MISS:          0  iACCESS:          0  iHIT:          0  iMISS:          0  dACCESS:          0  dHIT:          0  dMISS:          0  itACCESS:          0  itHIT:          0  itMISS:          0  dtACCESS:          0  dtHIT:          0  dtMISS:          0
cpu0_DTLB PREFETCH     ACCESS:          0  HIT:          0  MISS:          0  iACCESS:          0  iHIT:          0  iMISS:          0  dACCESS:          0  dHIT:          0  dMISS:          0  itACCESS:          0  itHIT:          0  itMISS:          0  dtACCESS:          0  dtHIT:          0  dtMISS:          0
cpu0_DTLB WRITE        ACCESS:          0  HIT:          0  MISS:          0  iACCESS:          0  iHIT:          0  iMISS:          0  dACCESS:          0  dHIT:          0  dMISS:          0  itACCESS:          0  itHIT:          0  itMISS:          0  dtACCESS:          0  dtHIT:          0  dtMISS:          0
cpu0_DTLB TRANSLATION  ACCESS:          0  HIT:          0  MISS:          0  iACCESS:          0  iHIT:          0  iMISS:          0  dACCESS:          0  dHIT:          0  dMISS:          0  itACCESS:          0  itHIT:          0  itMISS:          0  dtACCESS:          0  dtHIT:          0  dtMISS:          0
cpu0_DTLB PREFETCH  REQUESTED:          0  ISSUED:          0  CROSSED:          0  USEFUL:          0  USELESS:          0
cpu0_DTLB AVERAGE iMISS LATENCY: 0 cycles
cpu0_DTLB AVERAGE dMISS LATENCY: 18.4557 cycles
cpu0_DTLB AVERAGE itMISS LATENCY: 0 cycles
cpu0_DTLB AVERAGE dtMISS LATENCY: 0 cycles
cpu0_DTLB PAGE CROSSINGS (TLB HIT):         0 
cpu0_DTLB PAGE CROSSINGS (TLB MISS):         0 
cpu0_DTLB AVERAGE MISS LATENCY: 18.4557 cycles
cpu0_STLB TOTAL       ACCESS:    2892962  HIT:    2563732  MISS:     329230  iACCESS:     436215  iHIT:     334331  iMISS:     101884  dACCESS:    2456747  dHIT:    2229401  dMISS:     227346  itACCESS:          0  itHIT:          0  itMISS:          0  dtACCESS:          0  dtHIT:          0  dtMISS:          0
cpu0_STLB LOAD         ACCESS:    2892962  HIT:    2563732  MISS:     329230  iACCESS:     436215  iHIT:     334331  iMISS:     101884  dACCESS:    2456747  dHIT:    2229401  dMISS:     227346  itACCESS:          0  itHIT:          0  itMISS:          0  dtACCESS:          0  dtHIT:          0  dtMISS:          0
cpu0_STLB RFO          ACCESS:          0  HIT:          0  MISS:          0  iACCESS:          0  iHIT:          0  iMISS:          0  dACCESS:          0  dHIT:          0  dMISS:          0  itACCESS:          0  itHIT:          0  itMISS:          0  dtACCESS:          0  dtHIT:          0  dtMISS:          0
cpu0_STLB PREFETCH     ACCESS:          0  HIT:          0  MISS:          0  iACCESS:          0  iHIT:          0  iMISS:          0  dACCESS:          0  dHIT:          0  dMISS:          0  itACCESS:          0  itHIT:          0  itMISS:          0  dtACCESS:          0  dtHIT:          0  dtMISS:          0
cpu0_STLB WRITE        ACCESS:          0  HIT:          0  MISS:          0  iACCESS:          0  iHIT:          0  iMISS:          0  dACCESS:          0  dHIT:          0  dMISS:          0  itACCESS:          0  itHIT:          0  itMISS:          0  dtACCESS:          0  dtHIT:          0  dtMISS:          0
cpu0_STLB TRANSLATION  ACCESS:          0  HIT:          0  MISS:          0  iACCESS:          0  iHIT:          0  iMISS:          0  dACCESS:          0  dHIT:          0  dMISS:          0  itACCESS:          0  itHIT:          0  itMISS:          0  dtACCESS:          0  dtHIT:          0  dtMISS:          0
cpu0_STLB PREFETCH  REQUESTED:          0  ISSUED:          0  CROSSED:          0  USEFUL:          0  USELESS:          0
cpu0_STLB AVERAGE iMISS LATENCY: 49.5029 cycles
cpu0_STLB AVERAGE dMISS LATENCY: 194.81 cycles
cpu0_STLB AVERAGE itMISS LATENCY: 0 cycles
cpu0_STLB AVERAGE dtMISS LATENCY: 0 cycles
cpu0_STLB PAGE CROSSINGS (TLB HIT):         0 
cpu0_STLB PAGE CROSSINGS (TLB MISS):         0 
cpu0_STLB AVERAGE MISS LATENCY: 244.313 cycles
cpu0_L1D TOTAL       ACCESS:   45808636  HIT:   39461642  MISS:    6346994  iACCESS:          0  iHIT:          0  iMISS:          0  dACCESS:   45321047  dHIT:   39431798  dMISS:    5889249  itACCESS:     113340  itHIT:      13614  itMISS:      99726  dtACCESS:     374249  dtHIT:      16230  dtMISS:     358019
cpu0_L1D LOAD         ACCESS:   21156494  HIT:   18150907  MISS:    3005587  iACCESS:          0  iHIT:          0  iMISS:          0  dACCESS:   21156494  dHIT:   18150907  dMISS:    3005587  itACCESS:          0  itHIT:          0  itMISS:          0  dtACCESS:          0  dtHIT:          0  dtMISS:          0
cpu0_L1D RFO          ACCESS:          0  HIT:          0  MISS:          0  iACCESS:          0  iHIT:          0  iMISS:          0  dACCESS:          0  dHIT:          0  dMISS:          0  itACCESS:          0  itHIT:          0  itMISS:          0  dtACCESS:          0  dtHIT:          0  dtMISS:          0
cpu0_L1D PREFETCH     ACCESS:   14114775  HIT:   11760565  MISS:    2354210  iACCESS:          0  iHIT:          0  iMISS:          0  dACCESS:   14114775  dHIT:   11760565  dMISS:    2354210  itACCESS:          0  itHIT:          0  itMISS:          0  dtACCESS:          0  dtHIT:          0  dtMISS:          0
cpu0_L1D WRITE        ACCESS:   10049778  HIT:    9520326  MISS:     529452  iACCESS:          0  iHIT:          0  iMISS:          0  dACCESS:   10049778  dHIT:    9520326  dMISS:     529452  itACCESS:          0  itHIT:          0  itMISS:          0  dtACCESS:          0  dtHIT:          0  dtMISS:          0
cpu0_L1D TRANSLATION  ACCESS:     487589  HIT:      29844  MISS:     457745  iACCESS:          0  iHIT:          0  iMISS:          0  dACCESS:          0  dHIT:          0  dMISS:          0  itACCESS:     113340  itHIT:      13614  itMISS:      99726  dtACCESS:     374249  dtHIT:      16230  dtMISS:     358019
cpu0_L1D PREFETCH  REQUESTED:   21156494  ISSUED:   18547488  CROSSED:          0  USEFUL:     351944  USELESS:     993687
cpu0_L1D AVERAGE iMISS LATENCY: 0 cycles
cpu0_L1D AVERAGE dMISS LATENCY: 40.982 cycles
cpu0_L1D AVERAGE itMISS LATENCY: 2.41472 cycles
cpu0_L1D AVERAGE dtMISS LATENCY: 9.31605 cycles
cpu0_L1D PAGE CROSSINGS (TLB HIT):         0 
cpu0_L1D PAGE CROSSINGS (TLB MISS):         0 
cpu0_L1D AVERAGE MISS LATENCY: 52.7128 cycles
cpu0_L2C TOTAL       ACCESS:    8972212  HIT:    4884904  MISS:    4087308  iACCESS:    3538802  iHIT:    2178383  iMISS:    1360419  dACCESS:    5004921  dHIT:    2650608  dMISS:    2354313  itACCESS:      99522  itHIT:      19333  itMISS:      80189  dtACCESS:     328967  dtHIT:      36580  dtMISS:     292387
cpu0_L2C LOAD         ACCESS:    2686051  HIT:    1706631  MISS:     979420  iACCESS:     791669  iHIT:     507276  iMISS:     284393  dACCESS:    1894382  dHIT:    1199355  dMISS:     695027  itACCESS:          0  itHIT:          0  itMISS:          0  dtACCESS:          0  dtHIT:          0  dtMISS:          0
cpu0_L2C RFO          ACCESS:     213672  HIT:      93725  MISS:     119947  iACCESS:          0  iHIT:          0  iMISS:          0  dACCESS:     213672  dHIT:      93725  dMISS:     119947  itACCESS:          0  itHIT:          0  itMISS:          0  dtACCESS:          0  dtHIT:          0  dtMISS:          0
cpu0_L2C PREFETCH     ACCESS:    5308905  HIT:    2701952  MISS:    2606953  iACCESS:    2747133  iHIT:    1671107  iMISS:    1076026  dACCESS:    2561772  dHIT:    1030845  dMISS:    1530927  itACCESS:          0  itHIT:          0  itMISS:          0  dtACCESS:          0  dtHIT:          0  dtMISS:          0
cpu0_L2C WRITE        ACCESS:     335095  HIT:     326683  MISS:       8412  iACCESS:          0  iHIT:          0  iMISS:          0  dACCESS:     335095  dHIT:     326683  dMISS:       8412  itACCESS:          0  itHIT:          0  itMISS:          0  dtACCESS:          0  dtHIT:          0  dtMISS:          0
cpu0_L2C TRANSLATION  ACCESS:     428489  HIT:      55913  MISS:     372576  iACCESS:          0  iHIT:          0  iMISS:          0  dACCESS:          0  dHIT:          0  dMISS:          0  itACCESS:      99522  itHIT:      19333  itMISS:      80189  dtACCESS:     328967  dtHIT:      36580  dtMISS:     292387
cpu0_L2C PREFETCH  REQUESTED:    1439832  ISSUED:    1439808  CROSSED:          0  USEFUL:     338623  USELESS:     301978
cpu0_L2C AVERAGE iMISS LATENCY: 38.2943 cycles
cpu0_L2C AVERAGE dMISS LATENCY: 75.6968 cycles
cpu0_L2C AVERAGE itMISS LATENCY: 3.51029 cycles
cpu0_L2C AVERAGE dtMISS LATENCY: 13.666 cycles
cpu0_L2C PAGE CROSSINGS (TLB HIT):         0 
cpu0_L2C PAGE CROSSINGS (TLB MISS):         0 
cpu0_L2C AVERAGE MISS LATENCY: 131.168 cycles
LLC TOTAL       ACCESS:    4077210  HIT:    1356135  MISS:    2721075  iACCESS:    1274840  iHIT:     429509  iMISS:     845331  dACCESS:    2429794  dHIT:     888117  dMISS:    1541677  itACCESS:      80189  itHIT:       7692  itMISS:      72497  dtACCESS:     292387  dtHIT:      30817  dtMISS:     261570
LLC LOAD         ACCESS:     974216  HIT:     353604  MISS:     620612  iACCESS:     283121  iHIT:     104056  iMISS:     179065  dACCESS:     691095  dHIT:     249548  dMISS:     441547  itACCESS:          0  itHIT:          0  itMISS:          0  dtACCESS:          0  dtHIT:          0  dtMISS:          0
LLC RFO          ACCESS:     119945  HIT:      40776  MISS:      79169  iACCESS:          0  iHIT:          0  iMISS:          0  dACCESS:     119945  dHIT:      40776  dMISS:      79169  itACCESS:          0  itHIT:          0  itMISS:          0  dtACCESS:          0  dtHIT:          0  dtMISS:          0
LLC PREFETCH     ACCESS:    2412711  HIT:     735277  MISS:    1677434  iACCESS:     991719  iHIT:     325453  iMISS:     666266  dACCESS:    1420992  dHIT:     409824  dMISS:    1011168  itACCESS:          0  itHIT:          0  itMISS:          0  dtACCESS:          0  dtHIT:          0  dtMISS:          0
LLC WRITE        ACCESS:     197762  HIT:     187969  MISS:       9793  iACCESS:          0  iHIT:          0  iMISS:          0  dACCESS:     197762  dHIT:     187969  dMISS:       9793  itACCESS:          0  itHIT:          0  itMISS:          0  dtACCESS:          0  dtHIT:          0  dtMISS:          0
LLC TRANSLATION  ACCESS:     372576  HIT:      38509  MISS:     334067  iACCESS:          0  iHIT:          0  iMISS:          0  dACCESS:          0  dHIT:          0  dMISS:          0  itACCESS:      80189  itHIT:       7692  itMISS:      72497  dtACCESS:     292387  dtHIT:      30817  dtMISS:     261570
LLC PREFETCH  REQUESTED:          0  ISSUED:          0  CROSSED:          0  USEFUL:          0  USELESS:          0
LLC AVERAGE iMISS LATENCY: 48.293 cycles
LLC AVERAGE dMISS LATENCY: 98.2169 cycles
LLC AVERAGE itMISS LATENCY: 4.68862 cycles
LLC AVERAGE dtMISS LATENCY: 18.4031 cycles
LLC PAGE CROSSINGS (TLB HIT):         0 
LLC PAGE CROSSINGS (TLB MISS):         0 
LLC AVERAGE MISS LATENCY: 169.602 cycles

PageTableWalker TOTAL       ACCESS:     154617  
PageTableWalker AVERAGE LATENCY: 6.38711 cycles
PageTableWalker TOTAL LATENCY: 987555 cycles

DRAM Statistics
Channel 0
 RQ ROW_BUFFER_HIT:     608269
  ROW_BUFFER_MISS:    2092621
 AVG DBUS CONGESTED CYCLE:    3.64792
 WQ ROW_BUFFER_HIT:      57957
  ROW_BUFFER_MISS:      49465  FULL:          0

