last_page:0x200000000000000
VMEM_RES_CAP:0x100000
PAGE_SIZE:4096
LOG2_PAGE_SIZE:12
LOG2_PAGE_TABLE_SIZE:9
page_table_levels:5
WARNING: physical memory size is smaller than virtual memory size
FDiP enabled with aggresivity 16

*** ChampSim Multicore Out-of-Order Simulator ***

Warmup Instructions: 50000000
Simulation Instructions: 100000000
Number of CPUs: 1
Small page size: 4096
Large page size: 2097152

CPU 0 Bimodal branch predictor
Basic BTB sets: 1024 ways: 8 indirect buffer size: 4096 RAS size: 64
Instruction page size distrubution: 0
Loading instruction page size distribution from /home/bsc/bsc018186/scratch/itp_asplos25_AE/dump/smt_srv537_ap_srv298_ap_1024i.pdst
Data page size distrubution: 0
Loading data page size distribution from /home/bsc/bsc018186/scratch/itp_asplos25_AE/dump/smt_srv537_ap_srv298_ap_1024i.pdst
cpu0_L2C IP-based stride prefetcher
cpu0_L2C is using PTP replacement policy:
	TLB_STRESS_THRESHOLD:0
	PTE_EVICTION_RATIO:0
cpu0_L1D next line prefetcher
cpu0_L1I next line prefetcher
Off-chip DRAM Size: 4 GiB Channels: 1 Width: 64-bit Data Rate: 3200 MT/s
Heartbeat CPU 0 instructions: 10000001 cycles: 2500431 heartbeat IPC: 3.99932 cumulative IPC: 3.99932 (Simulation time: 0 hr 0 min 41 sec) 
Heartbeat CPU 0 instructions: 20000002 cycles: 5000658 heartbeat IPC: 3.99964 cumulative IPC: 3.99948 (Simulation time: 0 hr 1 min 24 sec) 
Heartbeat CPU 0 instructions: 30000003 cycles: 7500954 heartbeat IPC: 3.99953 cumulative IPC: 3.9995 (Simulation time: 0 hr 2 min 6 sec) 
Heartbeat CPU 0 instructions: 40000002 cycles: 10001129 heartbeat IPC: 3.99972 cumulative IPC: 3.99955 (Simulation time: 0 hr 2 min 50 sec) 
Heartbeat CPU 0 instructions: 50000003 cycles: 12501486 heartbeat IPC: 3.99943 cumulative IPC: 3.99953 (Simulation time: 0 hr 3 min 34 sec) 
Warmup finished CPU 0 instructions: 50000003 cycles: 12501487 cumulative IPC: 3.99953 (Simulation time: 0 hr 3 min 34 sec) 

Warmup complete CPU 0 instructions: 50000003 cycles: 12501487 (Simulation time: 0 hr 3 min 34 sec) 

Heartbeat CPU 0 instructions: 60000003 cycles: 40419177 heartbeat IPC: 0.358196 cumulative IPC: 0.358196 (Simulation time: 0 hr 5 min 2 sec) 
Heartbeat CPU 0 instructions: 70000004 cycles: 67868486 heartbeat IPC: 0.364308 cumulative IPC: 0.361227 (Simulation time: 0 hr 6 min 28 sec) 
Heartbeat CPU 0 instructions: 80000001 cycles: 94760288 heartbeat IPC: 0.371861 cumulative IPC: 0.364703 (Simulation time: 0 hr 7 min 52 sec) 
Heartbeat CPU 0 instructions: 90000000 cycles: 122693577 heartbeat IPC: 0.357996 cumulative IPC: 0.363003 (Simulation time: 0 hr 9 min 16 sec) 
Heartbeat CPU 0 instructions: 100000003 cycles: 150144062 heartbeat IPC: 0.364293 cumulative IPC: 0.36326 (Simulation time: 0 hr 10 min 40 sec) 
Heartbeat CPU 0 instructions: 110000003 cycles: 179581807 heartbeat IPC: 0.3397 cumulative IPC: 0.359109 (Simulation time: 0 hr 12 min 5 sec) 
Heartbeat CPU 0 instructions: 120000000 cycles: 207028559 heartbeat IPC: 0.364342 cumulative IPC: 0.359848 (Simulation time: 0 hr 13 min 28 sec) 
Heartbeat CPU 0 instructions: 130000003 cycles: 235913868 heartbeat IPC: 0.346197 cumulative IPC: 0.358083 (Simulation time: 0 hr 14 min 52 sec) 
Heartbeat CPU 0 instructions: 140000003 cycles: 264445139 heartbeat IPC: 0.350493 cumulative IPC: 0.357223 (Simulation time: 0 hr 16 min 16 sec) 
Heartbeat CPU 0 instructions: 150000003 cycles: 293302430 heartbeat IPC: 0.346533 cumulative IPC: 0.356125 (Simulation time: 0 hr 17 min 41 sec) 
Simulation finished CPU 0 instructions: 100000000 cycles: 280800944 cumulative IPC: 0.356125 (Simulation time: 0 hr 17 min 41 sec) 

Simulation complete CPU 0 instructions: 100000000 cycles: 280800944 (Simulation time: 0 hr 17 min 41 sec) 


ChampSim completed all CPUs

Saving instructions large page distribution to /home/bsc/bsc018186/scratch/itp_asplos25_AE/dump/smt_srv537_ap_srv298_ap_1024i.pdst...
Saving data large page distribution to /home/bsc/bsc018186/scratch/itp_asplos25_AE/dump/smt_srv537_ap_srv298_ap_1024i.pdst...
=== Simulation ===
CPU 0 runs /gpfs/projects/bsc18/MN4/bsc18/romol/ChampSim/traces/qualcomm_srv/smt_srv537_ap_srv298_ap_1024i.champsimtrace.xz

Region of Interest Statistics

CPU 0 cumulative IPC: 0.356125 instructions: 100000000 cycles: 280800944
CPU 0 Branch Prediction Accuracy: 76.2198% MPKI: 42.8862 Average ROB Occupancy at Mispredict: 11.358
Branch type MPKI
BRANCH_DIRECT_JUMP: 1.26172
BRANCH_INDIRECT: 22.4047
BRANCH_CONDITIONAL: 12.4369
BRANCH_DIRECT_CALL: 2.43831
BRANCH_INDIRECT_CALL: 0.944601
BRANCH_RETURN: 3.40007

Instructions large pages: 0
Instructions small pages: 13840
Large page distribution for instructions: 0%

Data large pages: 0
Data small pages: 12554
Large page distribution for data: 0%

cpu0_L1I TOTAL       ACCESS:   39059476  HIT:   30361704  MISS:    8697772  iACCESS:   39059476  iHIT:   30361704  iMISS:    8697772  dACCESS:          0  dHIT:          0  dMISS:          0  itACCESS:          0  itHIT:          0  itMISS:          0  dtACCESS:          0  dtHIT:          0  dtMISS:          0
cpu0_L1I LOAD         ACCESS:   11735776  HIT:    9352311  MISS:    2383465  iACCESS:   11735776  iHIT:    9352311  iMISS:    2383465  dACCESS:          0  dHIT:          0  dMISS:          0  itACCESS:          0  itHIT:          0  itMISS:          0  dtACCESS:          0  dtHIT:          0  dtMISS:          0
cpu0_L1I RFO          ACCESS:          0  HIT:          0  MISS:          0  iACCESS:          0  iHIT:          0  iMISS:          0  dACCESS:          0  dHIT:          0  dMISS:          0  itACCESS:          0  itHIT:          0  itMISS:          0  dtACCESS:          0  dtHIT:          0  dtMISS:          0
cpu0_L1I PREFETCH     ACCESS:   27323700  HIT:   21009393  MISS:    6314307  iACCESS:   27323700  iHIT:   21009393  iMISS:    6314307  dACCESS:          0  dHIT:          0  dMISS:          0  itACCESS:          0  itHIT:          0  itMISS:          0  dtACCESS:          0  dtHIT:          0  dtMISS:          0
cpu0_L1I WRITE        ACCESS:          0  HIT:          0  MISS:          0  iACCESS:          0  iHIT:          0  iMISS:          0  dACCESS:          0  dHIT:          0  dMISS:          0  itACCESS:          0  itHIT:          0  itMISS:          0  dtACCESS:          0  dtHIT:          0  dtMISS:          0
cpu0_L1I TRANSLATION  ACCESS:          0  HIT:          0  MISS:          0  iACCESS:          0  iHIT:          0  iMISS:          0  dACCESS:          0  dHIT:          0  dMISS:          0  itACCESS:          0  itHIT:          0  itMISS:          0  dtACCESS:          0  dtHIT:          0  dtMISS:          0
cpu0_L1I PREFETCH  REQUESTED:   30192195  ISSUED:   30192183  CROSSED:          0  USEFUL:    2194333  USELESS:     757162
cpu0_L1I AVERAGE iMISS LATENCY: 22.5006 cycles
cpu0_L1I AVERAGE dMISS LATENCY: 0 cycles
cpu0_L1I AVERAGE itMISS LATENCY: 0 cycles
cpu0_L1I AVERAGE dtMISS LATENCY: 0 cycles
cpu0_L1I PAGE CROSSINGS (TLB HIT):         0 
cpu0_L1I PAGE CROSSINGS (TLB MISS):         0 
cpu0_L1I AVERAGE MISS LATENCY: 22.5006 cycles
cpu0_ITLB TOTAL       ACCESS:   32966079  HIT:   30744864  MISS:    2221215  iACCESS:   32966079  iHIT:   30744864  iMISS:    2221215  dACCESS:          0  dHIT:          0  dMISS:          0  itACCESS:          0  itHIT:          0  itMISS:          0  dtACCESS:          0  dtHIT:          0  dtMISS:          0
cpu0_ITLB LOAD         ACCESS:   32966079  HIT:   30744864  MISS:    2221215  iACCESS:   32966079  iHIT:   30744864  iMISS:    2221215  dACCESS:          0  dHIT:          0  dMISS:          0  itACCESS:          0  itHIT:          0  itMISS:          0  dtACCESS:          0  dtHIT:          0  dtMISS:          0
cpu0_ITLB RFO          ACCESS:          0  HIT:          0  MISS:          0  iACCESS:          0  iHIT:          0  iMISS:          0  dACCESS:          0  dHIT:          0  dMISS:          0  itACCESS:          0  itHIT:          0  itMISS:          0  dtACCESS:          0  dtHIT:          0  dtMISS:          0
cpu0_ITLB PREFETCH     ACCESS:          0  HIT:          0  MISS:          0  iACCESS:          0  iHIT:          0  iMISS:          0  dACCESS:          0  dHIT:          0  dMISS:          0  itACCESS:          0  itHIT:          0  itMISS:          0  dtACCESS:          0  dtHIT:          0  dtMISS:          0
cpu0_ITLB WRITE        ACCESS:          0  HIT:          0  MISS:          0  iACCESS:          0  iHIT:          0  iMISS:          0  dACCESS:          0  dHIT:          0  dMISS:          0  itACCESS:          0  itHIT:          0  itMISS:          0  dtACCESS:          0  dtHIT:          0  dtMISS:          0
cpu0_ITLB TRANSLATION  ACCESS:          0  HIT:          0  MISS:          0  iACCESS:          0  iHIT:          0  iMISS:          0  dACCESS:          0  dHIT:          0  dMISS:          0  itACCESS:          0  itHIT:          0  itMISS:          0  dtACCESS:          0  dtHIT:          0  dtMISS:          0
cpu0_ITLB PREFETCH  REQUESTED:          0  ISSUED:          0  CROSSED:          0  USEFUL:     384618  USELESS:      77768
cpu0_ITLB AVERAGE iMISS LATENCY: 9.20276 cycles
cpu0_ITLB AVERAGE dMISS LATENCY: 0 cycles
cpu0_ITLB AVERAGE itMISS LATENCY: 0 cycles
cpu0_ITLB AVERAGE dtMISS LATENCY: 0 cycles
cpu0_ITLB PAGE CROSSINGS (TLB HIT):         0 
cpu0_ITLB PAGE CROSSINGS (TLB MISS):         0 
cpu0_ITLB AVERAGE MISS LATENCY: 9.20276 cycles
cpu0_DTLB TOTAL       ACCESS:   28753419  HIT:   25276353  MISS:    3477066  iACCESS:          0  iHIT:          0  iMISS:          0  dACCESS:   28753419  dHIT:   25276353  dMISS:    3477066  itACCESS:          0  itHIT:          0  itMISS:          0  dtACCESS:          0  dtHIT:          0  dtMISS:          0
cpu0_DTLB LOAD         ACCESS:   28753419  HIT:   25276353  MISS:    3477066  iACCESS:          0  iHIT:          0  iMISS:          0  dACCESS:   28753419  dHIT:   25276353  dMISS:    3477066  itACCESS:          0  itHIT:          0  itMISS:          0  dtACCESS:          0  dtHIT:          0  dtMISS:          0
cpu0_DTLB RFO          ACCESS:          0  HIT:          0  MISS:          0  iACCESS:          0  iHIT:          0  iMISS:          0  dACCESS:          0  dHIT:          0  dMISS:          0  itACCESS:          0  itHIT:          0  itMISS:          0  dtACCESS:          0  dtHIT:          0  dtMISS:          0
cpu0_DTLB PREFETCH     ACCESS:          0  HIT:          0  MISS:          0  iACCESS:          0  iHIT:          0  iMISS:          0  dACCESS:          0  dHIT:          0  dMISS:          0  itACCESS:          0  itHIT:          0  itMISS:          0  dtACCESS:          0  dtHIT:          0  dtMISS:          0
cpu0_DTLB WRITE        ACCESS:          0  HIT:          0  MISS:          0  iACCESS:          0  iHIT:          0  iMISS:          0  dACCESS:          0  dHIT:          0  dMISS:          0  itACCESS:          0  itHIT:          0  itMISS:          0  dtACCESS:          0  dtHIT:          0  dtMISS:          0
cpu0_DTLB TRANSLATION  ACCESS:          0  HIT:          0  MISS:          0  iACCESS:          0  iHIT:          0  iMISS:          0  dACCESS:          0  dHIT:          0  dMISS:          0  itACCESS:          0  itHIT:          0  itMISS:          0  dtACCESS:          0  dtHIT:          0  dtMISS:          0
cpu0_DTLB PREFETCH  REQUESTED:          0  ISSUED:          0  CROSSED:          0  USEFUL:          0  USELESS:          0
cpu0_DTLB AVERAGE iMISS LATENCY: 0 cycles
cpu0_DTLB AVERAGE dMISS LATENCY: 24.0952 cycles
cpu0_DTLB AVERAGE itMISS LATENCY: 0 cycles
cpu0_DTLB AVERAGE dtMISS LATENCY: 0 cycles
cpu0_DTLB PAGE CROSSINGS (TLB HIT):         0 
cpu0_DTLB PAGE CROSSINGS (TLB MISS):         0 
cpu0_DTLB AVERAGE MISS LATENCY: 24.0952 cycles
cpu0_STLB TOTAL       ACCESS:    2430844  HIT:    2089523  MISS:     341321  iACCESS:     462390  iHIT:     358073  iMISS:     104317  dACCESS:    1968454  dHIT:    1731450  dMISS:     237004  itACCESS:          0  itHIT:          0  itMISS:          0  dtACCESS:          0  dtHIT:          0  dtMISS:          0
cpu0_STLB LOAD         ACCESS:    2430844  HIT:    2089523  MISS:     341321  iACCESS:     462390  iHIT:     358073  iMISS:     104317  dACCESS:    1968454  dHIT:    1731450  dMISS:     237004  itACCESS:          0  itHIT:          0  itMISS:          0  dtACCESS:          0  dtHIT:          0  dtMISS:          0
cpu0_STLB RFO          ACCESS:          0  HIT:          0  MISS:          0  iACCESS:          0  iHIT:          0  iMISS:          0  dACCESS:          0  dHIT:          0  dMISS:          0  itACCESS:          0  itHIT:          0  itMISS:          0  dtACCESS:          0  dtHIT:          0  dtMISS:          0
cpu0_STLB PREFETCH     ACCESS:          0  HIT:          0  MISS:          0  iACCESS:          0  iHIT:          0  iMISS:          0  dACCESS:          0  dHIT:          0  dMISS:          0  itACCESS:          0  itHIT:          0  itMISS:          0  dtACCESS:          0  dtHIT:          0  dtMISS:          0
cpu0_STLB WRITE        ACCESS:          0  HIT:          0  MISS:          0  iACCESS:          0  iHIT:          0  iMISS:          0  dACCESS:          0  dHIT:          0  dMISS:          0  itACCESS:          0  itHIT:          0  itMISS:          0  dtACCESS:          0  dtHIT:          0  dtMISS:          0
cpu0_STLB TRANSLATION  ACCESS:          0  HIT:          0  MISS:          0  iACCESS:          0  iHIT:          0  iMISS:          0  dACCESS:          0  dHIT:          0  dMISS:          0  itACCESS:          0  itHIT:          0  itMISS:          0  dtACCESS:          0  dtHIT:          0  dtMISS:          0
cpu0_STLB PREFETCH  REQUESTED:          0  ISSUED:          0  CROSSED:          0  USEFUL:          0  USELESS:          0
cpu0_STLB AVERAGE iMISS LATENCY: 49.0798 cycles
cpu0_STLB AVERAGE dMISS LATENCY: 199.122 cycles
cpu0_STLB AVERAGE itMISS LATENCY: 0 cycles
cpu0_STLB AVERAGE dtMISS LATENCY: 0 cycles
cpu0_STLB PAGE CROSSINGS (TLB HIT):         0 
cpu0_STLB PAGE CROSSINGS (TLB MISS):         0 
cpu0_STLB AVERAGE MISS LATENCY: 248.202 cycles
cpu0_L1D TOTAL       ACCESS:   44416940  HIT:   39069504  MISS:    5347436  iACCESS:          0  iHIT:          0  iMISS:          0  dACCESS:   43900659  dHIT:   39036174  dMISS:    4864485  itACCESS:     116335  itHIT:      15340  itMISS:     100995  dtACCESS:     399946  dtHIT:      17990  dtMISS:     381956
cpu0_L1D LOAD         ACCESS:   20015349  HIT:   17827463  MISS:    2187886  iACCESS:          0  iHIT:          0  iMISS:          0  dACCESS:   20015349  dHIT:   17827463  dMISS:    2187886  itACCESS:          0  itHIT:          0  itMISS:          0  dtACCESS:          0  dtHIT:          0  dtMISS:          0
cpu0_L1D RFO          ACCESS:          0  HIT:          0  MISS:          0  iACCESS:          0  iHIT:          0  iMISS:          0  dACCESS:          0  dHIT:          0  dMISS:          0  itACCESS:          0  itHIT:          0  itMISS:          0  dtACCESS:          0  dtHIT:          0  dtMISS:          0
cpu0_L1D PREFETCH     ACCESS:   13695523  HIT:   11560427  MISS:    2135096  iACCESS:          0  iHIT:          0  iMISS:          0  dACCESS:   13695523  dHIT:   11560427  dMISS:    2135096  itACCESS:          0  itHIT:          0  itMISS:          0  dtACCESS:          0  dtHIT:          0  dtMISS:          0
cpu0_L1D WRITE        ACCESS:   10189787  HIT:    9648284  MISS:     541503  iACCESS:          0  iHIT:          0  iMISS:          0  dACCESS:   10189787  dHIT:    9648284  dMISS:     541503  itACCESS:          0  itHIT:          0  itMISS:          0  dtACCESS:          0  dtHIT:          0  dtMISS:          0
cpu0_L1D TRANSLATION  ACCESS:     516281  HIT:      33330  MISS:     482951  iACCESS:          0  iHIT:          0  iMISS:          0  dACCESS:          0  dHIT:          0  dMISS:          0  itACCESS:     116335  itHIT:      15340  itMISS:     100995  dtACCESS:     399946  dtHIT:      17990  dtMISS:     381956
cpu0_L1D PREFETCH  REQUESTED:   20015349  ISSUED:   18241020  CROSSED:          0  USEFUL:     369820  USELESS:     907131
cpu0_L1D AVERAGE iMISS LATENCY: 0 cycles
cpu0_L1D AVERAGE dMISS LATENCY: 48.7944 cycles
cpu0_L1D AVERAGE itMISS LATENCY: 2.94833 cycles
cpu0_L1D AVERAGE dtMISS LATENCY: 11.7334 cycles
cpu0_L1D PAGE CROSSINGS (TLB HIT):         0 
cpu0_L1D PAGE CROSSINGS (TLB MISS):         0 
cpu0_L1D AVERAGE MISS LATENCY: 63.4761 cycles
cpu0_L2C TOTAL       ACCESS:    8491359  HIT:    4279607  MISS:    4211752  iACCESS:    3764737  iHIT:    2359934  iMISS:    1404803  dACCESS:    4282740  dHIT:    1864880  dMISS:    2417860  itACCESS:     100718  itHIT:      19164  itMISS:      81554  dtACCESS:     343164  dtHIT:      35629  dtMISS:     307535
cpu0_L2C LOAD         ACCESS:    2049643  HIT:    1048068  MISS:    1001575  iACCESS:     852612  iHIT:     561800  iMISS:     290812  dACCESS:    1197031  dHIT:     486268  dMISS:     710763  itACCESS:          0  itHIT:          0  itMISS:          0  dtACCESS:          0  dtHIT:          0  dtMISS:          0
cpu0_L2C RFO          ACCESS:     208378  HIT:      80707  MISS:     127671  iACCESS:          0  iHIT:          0  iMISS:          0  dACCESS:     208378  dHIT:      80707  dMISS:     127671  itACCESS:          0  itHIT:          0  itMISS:          0  dtACCESS:          0  dtHIT:          0  dtMISS:          0
cpu0_L2C PREFETCH     ACCESS:    5439405  HIT:    2750339  MISS:    2689066  iACCESS:    2912125  iHIT:    1798134  iMISS:    1113991  dACCESS:    2527280  dHIT:     952205  dMISS:    1575075  itACCESS:          0  itHIT:          0  itMISS:          0  dtACCESS:          0  dtHIT:          0  dtMISS:          0
cpu0_L2C WRITE        ACCESS:     350051  HIT:     345700  MISS:       4351  iACCESS:          0  iHIT:          0  iMISS:          0  dACCESS:     350051  dHIT:     345700  dMISS:       4351  itACCESS:          0  itHIT:          0  itMISS:          0  dtACCESS:          0  dtHIT:          0  dtMISS:          0
cpu0_L2C TRANSLATION  ACCESS:     443882  HIT:      54793  MISS:     389089  iACCESS:          0  iHIT:          0  iMISS:          0  dACCESS:          0  dHIT:          0  dMISS:          0  itACCESS:     100718  itHIT:      19164  itMISS:      81554  dtACCESS:     343164  dtHIT:      35629  dtMISS:     307535
cpu0_L2C PREFETCH  REQUESTED:    1493757  ISSUED:    1493756  CROSSED:          0  USEFUL:     353136  USELESS:     309764
cpu0_L2C AVERAGE iMISS LATENCY: 38.7821 cycles
cpu0_L2C AVERAGE dMISS LATENCY: 77.0465 cycles
cpu0_L2C AVERAGE itMISS LATENCY: 3.50809 cycles
cpu0_L2C AVERAGE dtMISS LATENCY: 14.0861 cycles
cpu0_L2C PAGE CROSSINGS (TLB HIT):         0 
cpu0_L2C PAGE CROSSINGS (TLB MISS):         0 
cpu0_L2C AVERAGE MISS LATENCY: 133.423 cycles
LLC TOTAL       ACCESS:    4212339  HIT:    1375712  MISS:    2836627  iACCESS:    1315562  iHIT:     440897  iMISS:     874665  dACCESS:    2507688  dHIT:     895724  dMISS:    1611964  itACCESS:      81554  itHIT:       7869  itMISS:      73685  dtACCESS:     307535  dtHIT:      31222  dtMISS:     276313
LLC LOAD         ACCESS:     996383  HIT:     347274  MISS:     649109  iACCESS:     289669  iHIT:     103905  iMISS:     185764  dACCESS:     706714  dHIT:     243369  dMISS:     463345  itACCESS:          0  itHIT:          0  itMISS:          0  dtACCESS:          0  dtHIT:          0  dtMISS:          0
LLC RFO          ACCESS:     127665  HIT:      43167  MISS:      84498  iACCESS:          0  iHIT:          0  iMISS:          0  dACCESS:     127665  dHIT:      43167  dMISS:      84498  itACCESS:          0  itHIT:          0  itMISS:          0  dtACCESS:          0  dtHIT:          0  dtMISS:          0
LLC PREFETCH     ACCESS:    2487085  HIT:     744591  MISS:    1742494  iACCESS:    1025893  iHIT:     336992  iMISS:     688901  dACCESS:    1461192  dHIT:     407599  dMISS:    1053593  itACCESS:          0  itHIT:          0  itMISS:          0  dtACCESS:          0  dtHIT:          0  dtMISS:          0
LLC WRITE        ACCESS:     212117  HIT:     201589  MISS:      10528  iACCESS:          0  iHIT:          0  iMISS:          0  dACCESS:     212117  dHIT:     201589  dMISS:      10528  itACCESS:          0  itHIT:          0  itMISS:          0  dtACCESS:          0  dtHIT:          0  dtMISS:          0
LLC TRANSLATION  ACCESS:     389089  HIT:      39091  MISS:     349998  iACCESS:          0  iHIT:          0  iMISS:          0  dACCESS:          0  dHIT:          0  dMISS:          0  itACCESS:      81554  itHIT:       7869  itMISS:      73685  dtACCESS:     307535  dtHIT:      31222  dtMISS:     276313
LLC PREFETCH  REQUESTED:          0  ISSUED:          0  CROSSED:          0  USEFUL:          0  USELESS:          0
LLC AVERAGE iMISS LATENCY: 48.454 cycles
LLC AVERAGE dMISS LATENCY: 99.1135 cycles
LLC AVERAGE itMISS LATENCY: 4.63907 cycles
LLC AVERAGE dtMISS LATENCY: 18.7711 cycles
LLC PAGE CROSSINGS (TLB HIT):         0 
LLC PAGE CROSSINGS (TLB MISS):         0 
LLC AVERAGE MISS LATENCY: 170.978 cycles

PageTableWalker TOTAL       ACCESS:     169964  
PageTableWalker AVERAGE LATENCY: 6.52508 cycles
PageTableWalker TOTAL LATENCY: 1109028 cycles

DRAM Statistics
Channel 0
 RQ ROW_BUFFER_HIT:     615188
  ROW_BUFFER_MISS:    2200305
 AVG DBUS CONGESTED CYCLE:    3.64856
 WQ ROW_BUFFER_HIT:      61033
  ROW_BUFFER_MISS:      53517  FULL:          0

