last_page:0x200000000000000
VMEM_RES_CAP:0x100000
PAGE_SIZE:4096
LOG2_PAGE_SIZE:12
LOG2_PAGE_TABLE_SIZE:9
page_table_levels:5
WARNING: physical memory size is smaller than virtual memory size
FDiP enabled with aggresivity 16

*** ChampSim Multicore Out-of-Order Simulator ***

Warmup Instructions: 50000000
Simulation Instructions: 100000000
Number of CPUs: 1
Small page size: 4096
Large page size: 2097152

CPU 0 Bimodal branch predictor
Basic BTB sets: 1024 ways: 8 indirect buffer size: 4096 RAS size: 64
Instruction page size distrubution: 0
Loading instruction page size distribution from /home/bsc/bsc018186/scratch/itp_asplos25_AE/dump/smt_srv540_ap_srv697_ap_1024i.pdst
Data page size distrubution: 0
Loading data page size distribution from /home/bsc/bsc018186/scratch/itp_asplos25_AE/dump/smt_srv540_ap_srv697_ap_1024i.pdst
cpu0_L2C IP-based stride prefetcher
cpu0_L1D next line prefetcher
cpu0_STLB using iTP with max lru@8
cpu0_STLB using iTP with instr@0 and data@2
Init sat counter with 3 bits (max:50).
cpu0_L1I next line prefetcher
Off-chip DRAM Size: 4 GiB Channels: 1 Width: 64-bit Data Rate: 3200 MT/s
Heartbeat CPU 0 instructions: 10000003 cycles: 2500209 heartbeat IPC: 3.99967 cumulative IPC: 3.99967 (Simulation time: 0 hr 0 min 36 sec) 
Heartbeat CPU 0 instructions: 20000001 cycles: 5000312 heartbeat IPC: 3.99984 cumulative IPC: 3.99976 (Simulation time: 0 hr 1 min 14 sec) 
Heartbeat CPU 0 instructions: 30000002 cycles: 7500374 heartbeat IPC: 3.99991 cumulative IPC: 3.99981 (Simulation time: 0 hr 1 min 54 sec) 
Heartbeat CPU 0 instructions: 40000001 cycles: 10000450 heartbeat IPC: 3.99988 cumulative IPC: 3.99983 (Simulation time: 0 hr 2 min 34 sec) 
Heartbeat CPU 0 instructions: 50000001 cycles: 12500510 heartbeat IPC: 3.99991 cumulative IPC: 3.99984 (Simulation time: 0 hr 3 min 15 sec) 
Warmup finished CPU 0 instructions: 50000001 cycles: 12500511 cumulative IPC: 3.99984 (Simulation time: 0 hr 3 min 15 sec) 

Warmup complete CPU 0 instructions: 50000001 cycles: 12500511 (Simulation time: 0 hr 3 min 15 sec) 

Heartbeat CPU 0 instructions: 60000004 cycles: 39056001 heartbeat IPC: 0.376571 cumulative IPC: 0.376571 (Simulation time: 0 hr 4 min 41 sec) 
Heartbeat CPU 0 instructions: 70000002 cycles: 64071655 heartbeat IPC: 0.39975 cumulative IPC: 0.387814 (Simulation time: 0 hr 6 min 17 sec) 
Heartbeat CPU 0 instructions: 80000002 cycles: 90058551 heartbeat IPC: 0.38481 cumulative IPC: 0.386808 (Simulation time: 0 hr 8 min 3 sec) 
Heartbeat CPU 0 instructions: 90000000 cycles: 116839867 heartbeat IPC: 0.373395 cumulative IPC: 0.383365 (Simulation time: 0 hr 9 min 49 sec) 
Heartbeat CPU 0 instructions: 100000001 cycles: 143761094 heartbeat IPC: 0.371455 cumulative IPC: 0.380922 (Simulation time: 0 hr 11 min 38 sec) 
Heartbeat CPU 0 instructions: 110000002 cycles: 169337022 heartbeat IPC: 0.390993 cumulative IPC: 0.382564 (Simulation time: 0 hr 13 min 21 sec) 
Heartbeat CPU 0 instructions: 120000000 cycles: 195731464 heartbeat IPC: 0.378868 cumulative IPC: 0.382032 (Simulation time: 0 hr 15 min 4 sec) 
Heartbeat CPU 0 instructions: 130000004 cycles: 222105562 heartbeat IPC: 0.379161 cumulative IPC: 0.381671 (Simulation time: 0 hr 16 min 37 sec) 
Heartbeat CPU 0 instructions: 140000000 cycles: 247616909 heartbeat IPC: 0.391983 cumulative IPC: 0.38279 (Simulation time: 0 hr 17 min 58 sec) 
Heartbeat CPU 0 instructions: 150000001 cycles: 273430534 heartbeat IPC: 0.387393 cumulative IPC: 0.383245 (Simulation time: 0 hr 19 min 17 sec) 
Simulation finished CPU 0 instructions: 100000000 cycles: 260930024 cumulative IPC: 0.383245 (Simulation time: 0 hr 19 min 17 sec) 

Simulation complete CPU 0 instructions: 100000000 cycles: 260930024 (Simulation time: 0 hr 19 min 17 sec) 


ChampSim completed all CPUs

Saving instructions large page distribution to /home/bsc/bsc018186/scratch/itp_asplos25_AE/dump/smt_srv540_ap_srv697_ap_1024i.pdst...
Saving data large page distribution to /home/bsc/bsc018186/scratch/itp_asplos25_AE/dump/smt_srv540_ap_srv697_ap_1024i.pdst...
=== Simulation ===
CPU 0 runs /gpfs/projects/bsc18/MN4/bsc18/romol/ChampSim/traces/qualcomm_srv/smt_srv540_ap_srv697_ap_1024i.champsimtrace.xz

Region of Interest Statistics

CPU 0 cumulative IPC: 0.383245 instructions: 100000000 cycles: 260930024
CPU 0 Branch Prediction Accuracy: 76.0837% MPKI: 43.0053 Average ROB Occupancy at Mispredict: 11.2642
Branch type MPKI
BRANCH_DIRECT_JUMP: 1.28819
BRANCH_INDIRECT: 22.3946
BRANCH_CONDITIONAL: 12.4928
BRANCH_DIRECT_CALL: 2.47658
BRANCH_INDIRECT_CALL: 0.927061
BRANCH_RETURN: 3.42609

Instructions large pages: 0
Instructions small pages: 12891
Large page distribution for instructions: 0%

Data large pages: 0
Data small pages: 11667
Large page distribution for data: 0%

cpu0_L1I TOTAL       ACCESS:   39273261  HIT:   30166433  MISS:    9106828  iACCESS:   39273261  iHIT:   30166433  iMISS:    9106828  dACCESS:          0  dHIT:          0  dMISS:          0  itACCESS:          0  itHIT:          0  itMISS:          0  dtACCESS:          0  dtHIT:          0  dtMISS:          0
cpu0_L1I LOAD         ACCESS:   11774085  HIT:    9298448  MISS:    2475637  iACCESS:   11774085  iHIT:    9298448  iMISS:    2475637  dACCESS:          0  dHIT:          0  dMISS:          0  itACCESS:          0  itHIT:          0  itMISS:          0  dtACCESS:          0  dtHIT:          0  dtMISS:          0
cpu0_L1I RFO          ACCESS:          0  HIT:          0  MISS:          0  iACCESS:          0  iHIT:          0  iMISS:          0  dACCESS:          0  dHIT:          0  dMISS:          0  itACCESS:          0  itHIT:          0  itMISS:          0  dtACCESS:          0  dtHIT:          0  dtMISS:          0
cpu0_L1I PREFETCH     ACCESS:   27499176  HIT:   20867985  MISS:    6631191  iACCESS:   27499176  iHIT:   20867985  iMISS:    6631191  dACCESS:          0  dHIT:          0  dMISS:          0  itACCESS:          0  itHIT:          0  itMISS:          0  dtACCESS:          0  dtHIT:          0  dtMISS:          0
cpu0_L1I WRITE        ACCESS:          0  HIT:          0  MISS:          0  iACCESS:          0  iHIT:          0  iMISS:          0  dACCESS:          0  dHIT:          0  dMISS:          0  itACCESS:          0  itHIT:          0  itMISS:          0  dtACCESS:          0  dtHIT:          0  dtMISS:          0
cpu0_L1I TRANSLATION  ACCESS:          0  HIT:          0  MISS:          0  iACCESS:          0  iHIT:          0  iMISS:          0  dACCESS:          0  dHIT:          0  dMISS:          0  itACCESS:          0  itHIT:          0  itMISS:          0  dtACCESS:          0  dtHIT:          0  dtMISS:          0
cpu0_L1I PREFETCH  REQUESTED:   30156482  ISSUED:   30155292  CROSSED:          0  USEFUL:    2184941  USELESS:     743646
cpu0_L1I AVERAGE iMISS LATENCY: 22.7399 cycles
cpu0_L1I AVERAGE dMISS LATENCY: 0 cycles
cpu0_L1I AVERAGE itMISS LATENCY: 0 cycles
cpu0_L1I AVERAGE dtMISS LATENCY: 0 cycles
cpu0_L1I PAGE CROSSINGS (TLB HIT):         0 
cpu0_L1I PAGE CROSSINGS (TLB MISS):         0 
cpu0_L1I AVERAGE MISS LATENCY: 22.7399 cycles
cpu0_ITLB TOTAL       ACCESS:   32924963  HIT:   30757757  MISS:    2167206  iACCESS:   32924963  iHIT:   30757757  iMISS:    2167206  dACCESS:          0  dHIT:          0  dMISS:          0  itACCESS:          0  itHIT:          0  itMISS:          0  dtACCESS:          0  dtHIT:          0  dtMISS:          0
cpu0_ITLB LOAD         ACCESS:   32924963  HIT:   30757757  MISS:    2167206  iACCESS:   32924963  iHIT:   30757757  iMISS:    2167206  dACCESS:          0  dHIT:          0  dMISS:          0  itACCESS:          0  itHIT:          0  itMISS:          0  dtACCESS:          0  dtHIT:          0  dtMISS:          0
cpu0_ITLB RFO          ACCESS:          0  HIT:          0  MISS:          0  iACCESS:          0  iHIT:          0  iMISS:          0  dACCESS:          0  dHIT:          0  dMISS:          0  itACCESS:          0  itHIT:          0  itMISS:          0  dtACCESS:          0  dtHIT:          0  dtMISS:          0
cpu0_ITLB PREFETCH     ACCESS:          0  HIT:          0  MISS:          0  iACCESS:          0  iHIT:          0  iMISS:          0  dACCESS:          0  dHIT:          0  dMISS:          0  itACCESS:          0  itHIT:          0  itMISS:          0  dtACCESS:          0  dtHIT:          0  dtMISS:          0
cpu0_ITLB WRITE        ACCESS:          0  HIT:          0  MISS:          0  iACCESS:          0  iHIT:          0  iMISS:          0  dACCESS:          0  dHIT:          0  dMISS:          0  itACCESS:          0  itHIT:          0  itMISS:          0  dtACCESS:          0  dtHIT:          0  dtMISS:          0
cpu0_ITLB TRANSLATION  ACCESS:          0  HIT:          0  MISS:          0  iACCESS:          0  iHIT:          0  iMISS:          0  dACCESS:          0  dHIT:          0  dMISS:          0  itACCESS:          0  itHIT:          0  itMISS:          0  dtACCESS:          0  dtHIT:          0  dtMISS:          0
cpu0_ITLB PREFETCH  REQUESTED:          0  ISSUED:          0  CROSSED:          0  USEFUL:     378925  USELESS:      76282
cpu0_ITLB AVERAGE iMISS LATENCY: 5.10809 cycles
cpu0_ITLB AVERAGE dMISS LATENCY: 0 cycles
cpu0_ITLB AVERAGE itMISS LATENCY: 0 cycles
cpu0_ITLB AVERAGE dtMISS LATENCY: 0 cycles
cpu0_ITLB PAGE CROSSINGS (TLB HIT):         0 
cpu0_ITLB PAGE CROSSINGS (TLB MISS):         0 
cpu0_ITLB AVERAGE MISS LATENCY: 5.10809 cycles
cpu0_DTLB TOTAL       ACCESS:   28754227  HIT:   25033284  MISS:    3720943  iACCESS:          0  iHIT:          0  iMISS:          0  dACCESS:   28754227  dHIT:   25033284  dMISS:    3720943  itACCESS:          0  itHIT:          0  itMISS:          0  dtACCESS:          0  dtHIT:          0  dtMISS:          0
cpu0_DTLB LOAD         ACCESS:   28754227  HIT:   25033284  MISS:    3720943  iACCESS:          0  iHIT:          0  iMISS:          0  dACCESS:   28754227  dHIT:   25033284  dMISS:    3720943  itACCESS:          0  itHIT:          0  itMISS:          0  dtACCESS:          0  dtHIT:          0  dtMISS:          0
cpu0_DTLB RFO          ACCESS:          0  HIT:          0  MISS:          0  iACCESS:          0  iHIT:          0  iMISS:          0  dACCESS:          0  dHIT:          0  dMISS:          0  itACCESS:          0  itHIT:          0  itMISS:          0  dtACCESS:          0  dtHIT:          0  dtMISS:          0
cpu0_DTLB PREFETCH     ACCESS:          0  HIT:          0  MISS:          0  iACCESS:          0  iHIT:          0  iMISS:          0  dACCESS:          0  dHIT:          0  dMISS:          0  itACCESS:          0  itHIT:          0  itMISS:          0  dtACCESS:          0  dtHIT:          0  dtMISS:          0
cpu0_DTLB WRITE        ACCESS:          0  HIT:          0  MISS:          0  iACCESS:          0  iHIT:          0  iMISS:          0  dACCESS:          0  dHIT:          0  dMISS:          0  itACCESS:          0  itHIT:          0  itMISS:          0  dtACCESS:          0  dtHIT:          0  dtMISS:          0
cpu0_DTLB TRANSLATION  ACCESS:          0  HIT:          0  MISS:          0  iACCESS:          0  iHIT:          0  iMISS:          0  dACCESS:          0  dHIT:          0  dMISS:          0  itACCESS:          0  itHIT:          0  itMISS:          0  dtACCESS:          0  dtHIT:          0  dtMISS:          0
cpu0_DTLB PREFETCH  REQUESTED:          0  ISSUED:          0  CROSSED:          0  USEFUL:          0  USELESS:          0
cpu0_DTLB AVERAGE iMISS LATENCY: 0 cycles
cpu0_DTLB AVERAGE dMISS LATENCY: 17.7356 cycles
cpu0_DTLB AVERAGE itMISS LATENCY: 0 cycles
cpu0_DTLB AVERAGE dtMISS LATENCY: 0 cycles
cpu0_DTLB PAGE CROSSINGS (TLB HIT):         0 
cpu0_DTLB PAGE CROSSINGS (TLB MISS):         0 
cpu0_DTLB AVERAGE MISS LATENCY: 17.7356 cycles
cpu0_STLB TOTAL       ACCESS:    2598542  HIT:    2243631  MISS:     354911  iACCESS:     455215  iHIT:     405405  iMISS:      49810  dACCESS:    2143327  dHIT:    1838226  dMISS:     305101  itACCESS:          0  itHIT:          0  itMISS:          0  dtACCESS:          0  dtHIT:          0  dtMISS:          0
cpu0_STLB LOAD         ACCESS:    2598542  HIT:    2243631  MISS:     354911  iACCESS:     455215  iHIT:     405405  iMISS:      49810  dACCESS:    2143327  dHIT:    1838226  dMISS:     305101  itACCESS:          0  itHIT:          0  itMISS:          0  dtACCESS:          0  dtHIT:          0  dtMISS:          0
cpu0_STLB RFO          ACCESS:          0  HIT:          0  MISS:          0  iACCESS:          0  iHIT:          0  iMISS:          0  dACCESS:          0  dHIT:          0  dMISS:          0  itACCESS:          0  itHIT:          0  itMISS:          0  dtACCESS:          0  dtHIT:          0  dtMISS:          0
cpu0_STLB PREFETCH     ACCESS:          0  HIT:          0  MISS:          0  iACCESS:          0  iHIT:          0  iMISS:          0  dACCESS:          0  dHIT:          0  dMISS:          0  itACCESS:          0  itHIT:          0  itMISS:          0  dtACCESS:          0  dtHIT:          0  dtMISS:          0
cpu0_STLB WRITE        ACCESS:          0  HIT:          0  MISS:          0  iACCESS:          0  iHIT:          0  iMISS:          0  dACCESS:          0  dHIT:          0  dMISS:          0  itACCESS:          0  itHIT:          0  itMISS:          0  dtACCESS:          0  dtHIT:          0  dtMISS:          0
cpu0_STLB TRANSLATION  ACCESS:          0  HIT:          0  MISS:          0  iACCESS:          0  iHIT:          0  iMISS:          0  dACCESS:          0  dHIT:          0  dMISS:          0  itACCESS:          0  itHIT:          0  itMISS:          0  dtACCESS:          0  dtHIT:          0  dtMISS:          0
cpu0_STLB PREFETCH  REQUESTED:          0  ISSUED:          0  CROSSED:          0  USEFUL:          0  USELESS:          0
cpu0_STLB AVERAGE iMISS LATENCY: 21.136 cycles
cpu0_STLB AVERAGE dMISS LATENCY: 137.296 cycles
cpu0_STLB AVERAGE itMISS LATENCY: 0 cycles
cpu0_STLB AVERAGE dtMISS LATENCY: 0 cycles
cpu0_STLB PAGE CROSSINGS (TLB HIT):         0 
cpu0_STLB PAGE CROSSINGS (TLB MISS):         0 
cpu0_STLB AVERAGE MISS LATENCY: 158.432 cycles
cpu0_L1D TOTAL       ACCESS:   44191008  HIT:   38935020  MISS:    5255988  iACCESS:          0  iHIT:          0  iMISS:          0  dACCESS:   43651727  dHIT:   38905455  dMISS:    4746272  itACCESS:      59799  itHIT:       4986  itMISS:      54813  dtACCESS:     479482  dtHIT:      24579  dtMISS:     454903
cpu0_L1D LOAD         ACCESS:   19942331  HIT:   17822851  MISS:    2119480  iACCESS:          0  iHIT:          0  iMISS:          0  dACCESS:   19942331  dHIT:   17822851  dMISS:    2119480  itACCESS:          0  itHIT:          0  itMISS:          0  dtACCESS:          0  dtHIT:          0  dtMISS:          0
cpu0_L1D RFO          ACCESS:          0  HIT:          0  MISS:          0  iACCESS:          0  iHIT:          0  iMISS:          0  dACCESS:          0  dHIT:          0  dMISS:          0  itACCESS:          0  itHIT:          0  itMISS:          0  dtACCESS:          0  dtHIT:          0  dtMISS:          0
cpu0_L1D PREFETCH     ACCESS:   13576889  HIT:   11500615  MISS:    2076274  iACCESS:          0  iHIT:          0  iMISS:          0  dACCESS:   13576889  dHIT:   11500615  dMISS:    2076274  itACCESS:          0  itHIT:          0  itMISS:          0  dtACCESS:          0  dtHIT:          0  dtMISS:          0
cpu0_L1D WRITE        ACCESS:   10132507  HIT:    9581989  MISS:     550518  iACCESS:          0  iHIT:          0  iMISS:          0  dACCESS:   10132507  dHIT:    9581989  dMISS:     550518  itACCESS:          0  itHIT:          0  itMISS:          0  dtACCESS:          0  dtHIT:          0  dtMISS:          0
cpu0_L1D TRANSLATION  ACCESS:     539281  HIT:      29565  MISS:     509716  iACCESS:          0  iHIT:          0  iMISS:          0  dACCESS:          0  dHIT:          0  dMISS:          0  itACCESS:      59799  itHIT:       4986  itMISS:      54813  dtACCESS:     479482  dtHIT:      24579  dtMISS:     454903
cpu0_L1D PREFETCH  REQUESTED:   19942331  ISSUED:   18272859  CROSSED:          0  USEFUL:     358617  USELESS:     919152
cpu0_L1D AVERAGE iMISS LATENCY: 0 cycles
cpu0_L1D AVERAGE dMISS LATENCY: 51.2334 cycles
cpu0_L1D AVERAGE itMISS LATENCY: 1.33191 cycles
cpu0_L1D AVERAGE dtMISS LATENCY: 8.18979 cycles
cpu0_L1D PAGE CROSSINGS (TLB HIT):         0 
cpu0_L1D PAGE CROSSINGS (TLB MISS):         0 
cpu0_L1D AVERAGE MISS LATENCY: 60.7551 cycles
cpu0_L2C TOTAL       ACCESS:    8492644  HIT:    1565240  MISS:    6927404  iACCESS:    3720306  iHIT:     813537  iMISS:    2906769  dACCESS:    4281151  dHIT:     549079  dMISS:    3732072  itACCESS:      54101  itHIT:      14684  itMISS:      39417  dtACCESS:     437086  dtHIT:     187940  dtMISS:     249146
cpu0_L2C LOAD         ACCESS:    2009263  HIT:     218528  MISS:    1790735  iACCESS:     829104  iHIT:     121023  iMISS:     708081  dACCESS:    1180159  dHIT:      97505  dMISS:    1082654  itACCESS:          0  itHIT:          0  itMISS:          0  dtACCESS:          0  dtHIT:          0  dtMISS:          0
cpu0_L2C RFO          ACCESS:     213014  HIT:      30748  MISS:     182266  iACCESS:          0  iHIT:          0  iMISS:          0  dACCESS:     213014  dHIT:      30748  dMISS:     182266  itACCESS:          0  itHIT:          0  itMISS:          0  dtACCESS:          0  dtHIT:          0  dtMISS:          0
cpu0_L2C PREFETCH     ACCESS:    5433997  HIT:    1010704  MISS:    4423293  iACCESS:    2891202  iHIT:     692514  iMISS:    2198688  dACCESS:    2542795  dHIT:     318190  dMISS:    2224605  itACCESS:          0  itHIT:          0  itMISS:          0  dtACCESS:          0  dtHIT:          0  dtMISS:          0
cpu0_L2C WRITE        ACCESS:     345183  HIT:     102636  MISS:     242547  iACCESS:          0  iHIT:          0  iMISS:          0  dACCESS:     345183  dHIT:     102636  dMISS:     242547  itACCESS:          0  itHIT:          0  itMISS:          0  dtACCESS:          0  dtHIT:          0  dtMISS:          0
cpu0_L2C TRANSLATION  ACCESS:     491187  HIT:     202624  MISS:     288563  iACCESS:          0  iHIT:          0  iMISS:          0  dACCESS:          0  dHIT:          0  dMISS:          0  itACCESS:      54101  itHIT:      14684  itMISS:      39417  dtACCESS:     437086  dtHIT:     187940  dtMISS:     249146
cpu0_L2C PREFETCH  REQUESTED:    1512635  ISSUED:    1512635  CROSSED:          0  USEFUL:     414638  USELESS:     480231
cpu0_L2C AVERAGE iMISS LATENCY: 25.228 cycles
cpu0_L2C AVERAGE dMISS LATENCY: 47.7449 cycles
cpu0_L2C AVERAGE itMISS LATENCY: 0.934389 cycles
cpu0_L2C AVERAGE dtMISS LATENCY: 5.60695 cycles
cpu0_L2C PAGE CROSSINGS (TLB HIT):         0 
cpu0_L2C PAGE CROSSINGS (TLB MISS):         0 
cpu0_L2C AVERAGE MISS LATENCY: 79.5142 cycles
LLC TOTAL       ACCESS:    6742903  HIT:    4247507  MISS:    2495396  iACCESS:    2815296  iHIT:    2049575  iMISS:     765721  dACCESS:    3639044  dHIT:    2122435  dMISS:    1516609  itACCESS:      39417  itHIT:       7590  itMISS:      31827  dtACCESS:     249146  dtHIT:      67907  dtMISS:     181239
LLC LOAD         ACCESS:    1785689  HIT:    1188499  MISS:     597190  iACCESS:     706786  iHIT:     546950  iMISS:     159836  dACCESS:    1078903  dHIT:     641549  dMISS:     437354  itACCESS:          0  itHIT:          0  itMISS:          0  dtACCESS:          0  dtHIT:          0  dtMISS:          0
LLC RFO          ACCESS:     182228  HIT:      98798  MISS:      83430  iACCESS:          0  iHIT:          0  iMISS:          0  dACCESS:     182228  dHIT:      98798  dMISS:      83430  itACCESS:          0  itHIT:          0  itMISS:          0  dtACCESS:          0  dtHIT:          0  dtMISS:          0
LLC PREFETCH     ACCESS:    4216388  HIT:    2621910  MISS:    1594478  iACCESS:    2108510  iHIT:    1502625  iMISS:     605885  dACCESS:    2107878  dHIT:    1119285  dMISS:     988593  itACCESS:          0  itHIT:          0  itMISS:          0  dtACCESS:          0  dtHIT:          0  dtMISS:          0
LLC WRITE        ACCESS:     270035  HIT:     262803  MISS:       7232  iACCESS:          0  iHIT:          0  iMISS:          0  dACCESS:     270035  dHIT:     262803  dMISS:       7232  itACCESS:          0  itHIT:          0  itMISS:          0  dtACCESS:          0  dtHIT:          0  dtMISS:          0
LLC TRANSLATION  ACCESS:     288563  HIT:      75497  MISS:     213066  iACCESS:          0  iHIT:          0  iMISS:          0  dACCESS:          0  dHIT:          0  dMISS:          0  itACCESS:      39417  itHIT:       7590  itMISS:      31827  dtACCESS:     249146  dtHIT:      67907  dtMISS:     181239
LLC PREFETCH  REQUESTED:          0  ISSUED:          0  CROSSED:          0  USEFUL:          0  USELESS:          0
LLC AVERAGE iMISS LATENCY: 48.1495 cycles
LLC AVERAGE dMISS LATENCY: 107.138 cycles
LLC AVERAGE itMISS LATENCY: 2.28224 cycles
LLC AVERAGE dtMISS LATENCY: 13.601 cycles
LLC PAGE CROSSINGS (TLB HIT):         0 
LLC PAGE CROSSINGS (TLB MISS):         0 
LLC AVERAGE MISS LATENCY: 171.17 cycles

PageTableWalker TOTAL       ACCESS:     176041  
PageTableWalker AVERAGE LATENCY: 6.08082 cycles
PageTableWalker TOTAL LATENCY: 1070472 cycles

DRAM Statistics
Channel 0
 RQ ROW_BUFFER_HIT:     571043
  ROW_BUFFER_MISS:    1905995
 AVG DBUS CONGESTED CYCLE:    3.65064
 WQ ROW_BUFFER_HIT:      61385
  ROW_BUFFER_MISS:      58027  FULL:          0

