last_page:0x200000000000000
VMEM_RES_CAP:0x100000
PAGE_SIZE:4096
LOG2_PAGE_SIZE:12
LOG2_PAGE_TABLE_SIZE:9
page_table_levels:5
WARNING: physical memory size is smaller than virtual memory size
FDiP enabled with aggresivity 16

*** ChampSim Multicore Out-of-Order Simulator ***

Warmup Instructions: 50000000
Simulation Instructions: 100000000
Number of CPUs: 1
Small page size: 4096
Large page size: 2097152

CPU 0 Bimodal branch predictor
Basic BTB sets: 1024 ways: 8 indirect buffer size: 4096 RAS size: 64
Instruction page size distrubution: 0
Loading instruction page size distribution from /home/bsc/bsc018186/scratch/itp_asplos25_AE/dump/smt_srv540_ap_srv128_ap_1024i.pdst
Data page size distrubution: 0
Loading data page size distribution from /home/bsc/bsc018186/scratch/itp_asplos25_AE/dump/smt_srv540_ap_srv128_ap_1024i.pdst
cpu0_L2C IP-based stride prefetcher
cpu0_L2C is using PTP replacement policy:
	TLB_STRESS_THRESHOLD:0
	PTE_EVICTION_RATIO:0
cpu0_L1D next line prefetcher
cpu0_L1I next line prefetcher
Off-chip DRAM Size: 4 GiB Channels: 1 Width: 64-bit Data Rate: 3200 MT/s
Heartbeat CPU 0 instructions: 10000001 cycles: 2500426 heartbeat IPC: 3.99932 cumulative IPC: 3.99932 (Simulation time: 0 hr 0 min 40 sec) 
Heartbeat CPU 0 instructions: 20000001 cycles: 5080518 heartbeat IPC: 3.87584 cumulative IPC: 3.93661 (Simulation time: 0 hr 1 min 22 sec) 
Heartbeat CPU 0 instructions: 30000002 cycles: 7633023 heartbeat IPC: 3.91773 cumulative IPC: 3.9303 (Simulation time: 0 hr 2 min 5 sec) 
Heartbeat CPU 0 instructions: 40000000 cycles: 10175142 heartbeat IPC: 3.93373 cumulative IPC: 3.93115 (Simulation time: 0 hr 2 min 48 sec) 
Heartbeat CPU 0 instructions: 50000002 cycles: 12675479 heartbeat IPC: 3.99947 cumulative IPC: 3.94463 (Simulation time: 0 hr 3 min 31 sec) 
Warmup finished CPU 0 instructions: 50000002 cycles: 12675480 cumulative IPC: 3.94463 (Simulation time: 0 hr 3 min 31 sec) 

Warmup complete CPU 0 instructions: 50000002 cycles: 12675480 (Simulation time: 0 hr 3 min 31 sec) 

Heartbeat CPU 0 instructions: 60000000 cycles: 43005806 heartbeat IPC: 0.329703 cumulative IPC: 0.329703 (Simulation time: 0 hr 4 min 59 sec) 
Heartbeat CPU 0 instructions: 70000000 cycles: 71937889 heartbeat IPC: 0.345638 cumulative IPC: 0.337483 (Simulation time: 0 hr 6 min 25 sec) 
Heartbeat CPU 0 instructions: 80000002 cycles: 102677201 heartbeat IPC: 0.325317 cumulative IPC: 0.333327 (Simulation time: 0 hr 7 min 53 sec) 
Heartbeat CPU 0 instructions: 90000000 cycles: 131756256 heartbeat IPC: 0.343891 cumulative IPC: 0.335907 (Simulation time: 0 hr 9 min 18 sec) 
Heartbeat CPU 0 instructions: 100000001 cycles: 162974967 heartbeat IPC: 0.320321 cumulative IPC: 0.33267 (Simulation time: 0 hr 10 min 45 sec) 
Heartbeat CPU 0 instructions: 110000000 cycles: 191874512 heartbeat IPC: 0.346027 cumulative IPC: 0.334824 (Simulation time: 0 hr 12 min 10 sec) 
Heartbeat CPU 0 instructions: 120000000 cycles: 222792065 heartbeat IPC: 0.323441 cumulative IPC: 0.333149 (Simulation time: 0 hr 13 min 37 sec) 
Heartbeat CPU 0 instructions: 130000000 cycles: 252232060 heartbeat IPC: 0.339674 cumulative IPC: 0.333951 (Simulation time: 0 hr 15 min 2 sec) 
Heartbeat CPU 0 instructions: 140000002 cycles: 281880283 heartbeat IPC: 0.337289 cumulative IPC: 0.334318 (Simulation time: 0 hr 16 min 26 sec) 
Heartbeat CPU 0 instructions: 150000001 cycles: 312002615 heartbeat IPC: 0.33198 cumulative IPC: 0.334083 (Simulation time: 0 hr 17 min 54 sec) 
Simulation finished CPU 0 instructions: 100000004 cycles: 299327137 cumulative IPC: 0.334083 (Simulation time: 0 hr 17 min 54 sec) 

Simulation complete CPU 0 instructions: 100000004 cycles: 299327137 (Simulation time: 0 hr 17 min 54 sec) 


ChampSim completed all CPUs

Saving instructions large page distribution to /home/bsc/bsc018186/scratch/itp_asplos25_AE/dump/smt_srv540_ap_srv128_ap_1024i.pdst...
Saving data large page distribution to /home/bsc/bsc018186/scratch/itp_asplos25_AE/dump/smt_srv540_ap_srv128_ap_1024i.pdst...
=== Simulation ===
CPU 0 runs /gpfs/projects/bsc18/MN4/bsc18/romol/ChampSim/traces/qualcomm_srv/smt_srv540_ap_srv128_ap_1024i.champsimtrace.xz

Region of Interest Statistics

CPU 0 cumulative IPC: 0.334083 instructions: 100000004 cycles: 299327137
CPU 0 Branch Prediction Accuracy: 75.3878% MPKI: 44.4059 Average ROB Occupancy at Mispredict: 10.9377
Branch type MPKI
BRANCH_DIRECT_JUMP: 1.36176
BRANCH_INDIRECT: 22.9283
BRANCH_CONDITIONAL: 12.9503
BRANCH_DIRECT_CALL: 2.64178
BRANCH_INDIRECT_CALL: 1.01064
BRANCH_RETURN: 3.51324

Instructions large pages: 0
Instructions small pages: 9742
Large page distribution for instructions: 0%

Data large pages: 0
Data small pages: 8301
Large page distribution for data: 0%

cpu0_L1I TOTAL       ACCESS:   39019618  HIT:   30393814  MISS:    8625804  iACCESS:   39019618  iHIT:   30393814  iMISS:    8625804  dACCESS:          0  dHIT:          0  dMISS:          0  itACCESS:          0  itHIT:          0  itMISS:          0  dtACCESS:          0  dtHIT:          0  dtMISS:          0
cpu0_L1I LOAD         ACCESS:   11641365  HIT:    9295522  MISS:    2345843  iACCESS:   11641365  iHIT:    9295522  iMISS:    2345843  dACCESS:          0  dHIT:          0  dMISS:          0  itACCESS:          0  itHIT:          0  itMISS:          0  dtACCESS:          0  dtHIT:          0  dtMISS:          0
cpu0_L1I RFO          ACCESS:          0  HIT:          0  MISS:          0  iACCESS:          0  iHIT:          0  iMISS:          0  dACCESS:          0  dHIT:          0  dMISS:          0  itACCESS:          0  itHIT:          0  itMISS:          0  dtACCESS:          0  dtHIT:          0  dtMISS:          0
cpu0_L1I PREFETCH     ACCESS:   27378253  HIT:   21098292  MISS:    6279961  iACCESS:   27378253  iHIT:   21098292  iMISS:    6279961  dACCESS:          0  dHIT:          0  dMISS:          0  itACCESS:          0  itHIT:          0  itMISS:          0  dtACCESS:          0  dtHIT:          0  dtMISS:          0
cpu0_L1I WRITE        ACCESS:          0  HIT:          0  MISS:          0  iACCESS:          0  iHIT:          0  iMISS:          0  dACCESS:          0  dHIT:          0  dMISS:          0  itACCESS:          0  itHIT:          0  itMISS:          0  dtACCESS:          0  dtHIT:          0  dtMISS:          0
cpu0_L1I TRANSLATION  ACCESS:          0  HIT:          0  MISS:          0  iACCESS:          0  iHIT:          0  iMISS:          0  dACCESS:          0  dHIT:          0  dMISS:          0  itACCESS:          0  itHIT:          0  itMISS:          0  dtACCESS:          0  dtHIT:          0  dtMISS:          0
cpu0_L1I PREFETCH  REQUESTED:   30157903  ISSUED:   30157756  CROSSED:          0  USEFUL:    2189362  USELESS:     758644
cpu0_L1I AVERAGE iMISS LATENCY: 24.5753 cycles
cpu0_L1I AVERAGE dMISS LATENCY: 0 cycles
cpu0_L1I AVERAGE itMISS LATENCY: 0 cycles
cpu0_L1I AVERAGE dtMISS LATENCY: 0 cycles
cpu0_L1I PAGE CROSSINGS (TLB HIT):         0 
cpu0_L1I PAGE CROSSINGS (TLB MISS):         0 
cpu0_L1I AVERAGE MISS LATENCY: 24.5753 cycles
cpu0_ITLB TOTAL       ACCESS:   33044175  HIT:   30822631  MISS:    2221544  iACCESS:   33044175  iHIT:   30822631  iMISS:    2221544  dACCESS:          0  dHIT:          0  dMISS:          0  itACCESS:          0  itHIT:          0  itMISS:          0  dtACCESS:          0  dtHIT:          0  dtMISS:          0
cpu0_ITLB LOAD         ACCESS:   33044175  HIT:   30822631  MISS:    2221544  iACCESS:   33044175  iHIT:   30822631  iMISS:    2221544  dACCESS:          0  dHIT:          0  dMISS:          0  itACCESS:          0  itHIT:          0  itMISS:          0  dtACCESS:          0  dtHIT:          0  dtMISS:          0
cpu0_ITLB RFO          ACCESS:          0  HIT:          0  MISS:          0  iACCESS:          0  iHIT:          0  iMISS:          0  dACCESS:          0  dHIT:          0  dMISS:          0  itACCESS:          0  itHIT:          0  itMISS:          0  dtACCESS:          0  dtHIT:          0  dtMISS:          0
cpu0_ITLB PREFETCH     ACCESS:          0  HIT:          0  MISS:          0  iACCESS:          0  iHIT:          0  iMISS:          0  dACCESS:          0  dHIT:          0  dMISS:          0  itACCESS:          0  itHIT:          0  itMISS:          0  dtACCESS:          0  dtHIT:          0  dtMISS:          0
cpu0_ITLB WRITE        ACCESS:          0  HIT:          0  MISS:          0  iACCESS:          0  iHIT:          0  iMISS:          0  dACCESS:          0  dHIT:          0  dMISS:          0  itACCESS:          0  itHIT:          0  itMISS:          0  dtACCESS:          0  dtHIT:          0  dtMISS:          0
cpu0_ITLB TRANSLATION  ACCESS:          0  HIT:          0  MISS:          0  iACCESS:          0  iHIT:          0  iMISS:          0  dACCESS:          0  dHIT:          0  dMISS:          0  itACCESS:          0  itHIT:          0  itMISS:          0  dtACCESS:          0  dtHIT:          0  dtMISS:          0
cpu0_ITLB PREFETCH  REQUESTED:          0  ISSUED:          0  CROSSED:          0  USEFUL:     385879  USELESS:      79379
cpu0_ITLB AVERAGE iMISS LATENCY: 10.4189 cycles
cpu0_ITLB AVERAGE dMISS LATENCY: 0 cycles
cpu0_ITLB AVERAGE itMISS LATENCY: 0 cycles
cpu0_ITLB AVERAGE dtMISS LATENCY: 0 cycles
cpu0_ITLB PAGE CROSSINGS (TLB HIT):         0 
cpu0_ITLB PAGE CROSSINGS (TLB MISS):         0 
cpu0_ITLB AVERAGE MISS LATENCY: 10.4189 cycles
cpu0_DTLB TOTAL       ACCESS:   28824700  HIT:   25215907  MISS:    3608793  iACCESS:          0  iHIT:          0  iMISS:          0  dACCESS:   28824700  dHIT:   25215907  dMISS:    3608793  itACCESS:          0  itHIT:          0  itMISS:          0  dtACCESS:          0  dtHIT:          0  dtMISS:          0
cpu0_DTLB LOAD         ACCESS:   28824700  HIT:   25215907  MISS:    3608793  iACCESS:          0  iHIT:          0  iMISS:          0  dACCESS:   28824700  dHIT:   25215907  dMISS:    3608793  itACCESS:          0  itHIT:          0  itMISS:          0  dtACCESS:          0  dtHIT:          0  dtMISS:          0
cpu0_DTLB RFO          ACCESS:          0  HIT:          0  MISS:          0  iACCESS:          0  iHIT:          0  iMISS:          0  dACCESS:          0  dHIT:          0  dMISS:          0  itACCESS:          0  itHIT:          0  itMISS:          0  dtACCESS:          0  dtHIT:          0  dtMISS:          0
cpu0_DTLB PREFETCH     ACCESS:          0  HIT:          0  MISS:          0  iACCESS:          0  iHIT:          0  iMISS:          0  dACCESS:          0  dHIT:          0  dMISS:          0  itACCESS:          0  itHIT:          0  itMISS:          0  dtACCESS:          0  dtHIT:          0  dtMISS:          0
cpu0_DTLB WRITE        ACCESS:          0  HIT:          0  MISS:          0  iACCESS:          0  iHIT:          0  iMISS:          0  dACCESS:          0  dHIT:          0  dMISS:          0  itACCESS:          0  itHIT:          0  itMISS:          0  dtACCESS:          0  dtHIT:          0  dtMISS:          0
cpu0_DTLB TRANSLATION  ACCESS:          0  HIT:          0  MISS:          0  iACCESS:          0  iHIT:          0  iMISS:          0  dACCESS:          0  dHIT:          0  dMISS:          0  itACCESS:          0  itHIT:          0  itMISS:          0  dtACCESS:          0  dtHIT:          0  dtMISS:          0
cpu0_DTLB PREFETCH  REQUESTED:          0  ISSUED:          0  CROSSED:          0  USEFUL:          0  USELESS:          0
cpu0_DTLB AVERAGE iMISS LATENCY: 0 cycles
cpu0_DTLB AVERAGE dMISS LATENCY: 24.7062 cycles
cpu0_DTLB AVERAGE itMISS LATENCY: 0 cycles
cpu0_DTLB AVERAGE dtMISS LATENCY: 0 cycles
cpu0_DTLB PAGE CROSSINGS (TLB HIT):         0 
cpu0_DTLB PAGE CROSSINGS (TLB MISS):         0 
cpu0_DTLB AVERAGE MISS LATENCY: 24.7062 cycles
cpu0_STLB TOTAL       ACCESS:    2568399  HIT:    2189228  MISS:     379171  iACCESS:     465259  iHIT:     348765  iMISS:     116494  dACCESS:    2103140  dHIT:    1840463  dMISS:     262677  itACCESS:          0  itHIT:          0  itMISS:          0  dtACCESS:          0  dtHIT:          0  dtMISS:          0
cpu0_STLB LOAD         ACCESS:    2568399  HIT:    2189228  MISS:     379171  iACCESS:     465259  iHIT:     348765  iMISS:     116494  dACCESS:    2103140  dHIT:    1840463  dMISS:     262677  itACCESS:          0  itHIT:          0  itMISS:          0  dtACCESS:          0  dtHIT:          0  dtMISS:          0
cpu0_STLB RFO          ACCESS:          0  HIT:          0  MISS:          0  iACCESS:          0  iHIT:          0  iMISS:          0  dACCESS:          0  dHIT:          0  dMISS:          0  itACCESS:          0  itHIT:          0  itMISS:          0  dtACCESS:          0  dtHIT:          0  dtMISS:          0
cpu0_STLB PREFETCH     ACCESS:          0  HIT:          0  MISS:          0  iACCESS:          0  iHIT:          0  iMISS:          0  dACCESS:          0  dHIT:          0  dMISS:          0  itACCESS:          0  itHIT:          0  itMISS:          0  dtACCESS:          0  dtHIT:          0  dtMISS:          0
cpu0_STLB WRITE        ACCESS:          0  HIT:          0  MISS:          0  iACCESS:          0  iHIT:          0  iMISS:          0  dACCESS:          0  dHIT:          0  dMISS:          0  itACCESS:          0  itHIT:          0  itMISS:          0  dtACCESS:          0  dtHIT:          0  dtMISS:          0
cpu0_STLB TRANSLATION  ACCESS:          0  HIT:          0  MISS:          0  iACCESS:          0  iHIT:          0  iMISS:          0  dACCESS:          0  dHIT:          0  dMISS:          0  itACCESS:          0  itHIT:          0  itMISS:          0  dtACCESS:          0  dtHIT:          0  dtMISS:          0
cpu0_STLB PREFETCH  REQUESTED:          0  ISSUED:          0  CROSSED:          0  USEFUL:          0  USELESS:          0
cpu0_STLB AVERAGE iMISS LATENCY: 51.2135 cycles
cpu0_STLB AVERAGE dMISS LATENCY: 190.491 cycles
cpu0_STLB AVERAGE itMISS LATENCY: 0 cycles
cpu0_STLB AVERAGE dtMISS LATENCY: 0 cycles
cpu0_STLB PAGE CROSSINGS (TLB HIT):         0 
cpu0_STLB PAGE CROSSINGS (TLB MISS):         0 
cpu0_STLB AVERAGE MISS LATENCY: 241.705 cycles
cpu0_L1D TOTAL       ACCESS:   44777134  HIT:   39045513  MISS:    5731621  iACCESS:          0  iHIT:          0  iMISS:          0  dACCESS:   44219499  dHIT:   39011805  dMISS:    5207694  itACCESS:     129978  itHIT:      14268  itMISS:     115710  dtACCESS:     427657  dtHIT:      19440  dtMISS:     408217
cpu0_L1D LOAD         ACCESS:   20191977  HIT:   17871111  MISS:    2320866  iACCESS:          0  iHIT:          0  iMISS:          0  dACCESS:   20191977  dHIT:   17871111  dMISS:    2320866  itACCESS:          0  itHIT:          0  itMISS:          0  dtACCESS:          0  dtHIT:          0  dtMISS:          0
cpu0_L1D RFO          ACCESS:          0  HIT:          0  MISS:          0  iACCESS:          0  iHIT:          0  iMISS:          0  dACCESS:          0  dHIT:          0  dMISS:          0  itACCESS:          0  itHIT:          0  itMISS:          0  dtACCESS:          0  dtHIT:          0  dtMISS:          0
cpu0_L1D PREFETCH     ACCESS:   13862893  HIT:   11558777  MISS:    2304116  iACCESS:          0  iHIT:          0  iMISS:          0  dACCESS:   13862893  dHIT:   11558777  dMISS:    2304116  itACCESS:          0  itHIT:          0  itMISS:          0  dtACCESS:          0  dtHIT:          0  dtMISS:          0
cpu0_L1D WRITE        ACCESS:   10164629  HIT:    9581917  MISS:     582712  iACCESS:          0  iHIT:          0  iMISS:          0  dACCESS:   10164629  dHIT:    9581917  dMISS:     582712  itACCESS:          0  itHIT:          0  itMISS:          0  dtACCESS:          0  dtHIT:          0  dtMISS:          0
cpu0_L1D TRANSLATION  ACCESS:     557635  HIT:      33708  MISS:     523927  iACCESS:          0  iHIT:          0  iMISS:          0  dACCESS:          0  dHIT:          0  dMISS:          0  itACCESS:     129978  itHIT:      14268  itMISS:     115710  dtACCESS:     427657  dtHIT:      19440  dtMISS:     408217
cpu0_L1D PREFETCH  REQUESTED:   20191977  ISSUED:   18389740  CROSSED:          0  USEFUL:     358643  USELESS:     926872
cpu0_L1D AVERAGE iMISS LATENCY: 0 cycles
cpu0_L1D AVERAGE dMISS LATENCY: 49.9176 cycles
cpu0_L1D AVERAGE itMISS LATENCY: 3.19853 cycles
cpu0_L1D AVERAGE dtMISS LATENCY: 11.8114 cycles
cpu0_L1D PAGE CROSSINGS (TLB HIT):         0 
cpu0_L1D PAGE CROSSINGS (TLB MISS):         0 
cpu0_L1D AVERAGE MISS LATENCY: 64.9275 cycles
cpu0_L2C TOTAL       ACCESS:    8578606  HIT:    4085064  MISS:    4493542  iACCESS:    3750507  iHIT:    2237132  iMISS:    1513375  dACCESS:    4340299  dHIT:    1783184  dMISS:    2557115  itACCESS:     115393  itHIT:      21909  itMISS:      93484  dtACCESS:     372407  dtHIT:      42839  dtMISS:     329568
cpu0_L2C LOAD         ACCESS:    2036789  HIT:     971226  MISS:    1065563  iACCESS:     840510  iHIT:     521030  iMISS:     319480  dACCESS:    1196279  dHIT:     450196  dMISS:     746083  itACCESS:          0  itHIT:          0  itMISS:          0  dtACCESS:          0  dtHIT:          0  dtMISS:          0
cpu0_L2C RFO          ACCESS:     219764  HIT:      83685  MISS:     136079  iACCESS:          0  iHIT:          0  iMISS:          0  dACCESS:     219764  dHIT:      83685  dMISS:     136079  itACCESS:          0  itHIT:          0  itMISS:          0  dtACCESS:          0  dtHIT:          0  dtMISS:          0
cpu0_L2C PREFETCH     ACCESS:    5486934  HIT:    2633582  MISS:    2853352  iACCESS:    2909997  iHIT:    1716102  iMISS:    1193895  dACCESS:    2576937  dHIT:     917480  dMISS:    1659457  itACCESS:          0  itHIT:          0  itMISS:          0  dtACCESS:          0  dtHIT:          0  dtMISS:          0
cpu0_L2C WRITE        ACCESS:     347319  HIT:     331823  MISS:      15496  iACCESS:          0  iHIT:          0  iMISS:          0  dACCESS:     347319  dHIT:     331823  dMISS:      15496  itACCESS:          0  itHIT:          0  itMISS:          0  dtACCESS:          0  dtHIT:          0  dtMISS:          0
cpu0_L2C TRANSLATION  ACCESS:     487800  HIT:      64748  MISS:     423052  iACCESS:          0  iHIT:          0  iMISS:          0  dACCESS:          0  dHIT:          0  dMISS:          0  itACCESS:     115393  itHIT:      21909  itMISS:      93484  dtACCESS:     372407  dtHIT:      42839  dtMISS:     329568
cpu0_L2C PREFETCH  REQUESTED:    1530954  ISSUED:    1530949  CROSSED:          0  USEFUL:     358525  USELESS:     324284
cpu0_L2C AVERAGE iMISS LATENCY: 40.1967 cycles
cpu0_L2C AVERAGE dMISS LATENCY: 79.2734 cycles
cpu0_L2C AVERAGE itMISS LATENCY: 3.82714 cycles
cpu0_L2C AVERAGE dtMISS LATENCY: 14.2418 cycles
cpu0_L2C PAGE CROSSINGS (TLB HIT):         0 
cpu0_L2C PAGE CROSSINGS (TLB MISS):         0 
cpu0_L2C AVERAGE MISS LATENCY: 137.539 cycles
LLC TOTAL       ACCESS:    4471178  HIT:    1368061  MISS:    3103117  iACCESS:    1422210  iHIT:     458529  iMISS:     963681  dACCESS:    2625916  dHIT:     868662  dMISS:    1757254  itACCESS:      93484  itHIT:       7850  itMISS:      85634  dtACCESS:     329568  dtHIT:      33020  dtMISS:     296548
LLC LOAD         ACCESS:    1058640  HIT:     342551  MISS:     716089  iACCESS:     318248  iHIT:     110055  iMISS:     208193  dACCESS:     740392  dHIT:     232496  dMISS:     507896  itACCESS:          0  itHIT:          0  itMISS:          0  dtACCESS:          0  dtHIT:          0  dtMISS:          0
LLC RFO          ACCESS:     136074  HIT:      41539  MISS:      94535  iACCESS:          0  iHIT:          0  iMISS:          0  dACCESS:     136074  dHIT:      41539  dMISS:      94535  itACCESS:          0  itHIT:          0  itMISS:          0  dtACCESS:          0  dtHIT:          0  dtMISS:          0
LLC PREFETCH     ACCESS:    2639480  HIT:     739846  MISS:    1899634  iACCESS:    1103962  iHIT:     348474  iMISS:     755488  dACCESS:    1535518  dHIT:     391372  dMISS:    1144146  itACCESS:          0  itHIT:          0  itMISS:          0  dtACCESS:          0  dtHIT:          0  dtMISS:          0
LLC WRITE        ACCESS:     213932  HIT:     203255  MISS:      10677  iACCESS:          0  iHIT:          0  iMISS:          0  dACCESS:     213932  dHIT:     203255  dMISS:      10677  itACCESS:          0  itHIT:          0  itMISS:          0  dtACCESS:          0  dtHIT:          0  dtMISS:          0
LLC TRANSLATION  ACCESS:     423052  HIT:      40870  MISS:     382182  iACCESS:          0  iHIT:          0  iMISS:          0  dACCESS:          0  dHIT:          0  dMISS:          0  itACCESS:      93484  itHIT:       7850  itMISS:      85634  dtACCESS:     329568  dtHIT:      33020  dtMISS:     296548
LLC PREFETCH  REQUESTED:          0  ISSUED:          0  CROSSED:          0  USEFUL:          0  USELESS:          0
LLC AVERAGE iMISS LATENCY: 49.18 cycles
LLC AVERAGE dMISS LATENCY: 100.455 cycles
LLC AVERAGE itMISS LATENCY: 4.94467 cycles
LLC AVERAGE dtMISS LATENCY: 18.5233 cycles
LLC PAGE CROSSINGS (TLB HIT):         0 
LLC PAGE CROSSINGS (TLB MISS):         0 
LLC AVERAGE MISS LATENCY: 173.102 cycles

PageTableWalker TOTAL       ACCESS:     144102  
PageTableWalker AVERAGE LATENCY: 6.21804 cycles
PageTableWalker TOTAL LATENCY: 896032 cycles

DRAM Statistics
Channel 0
 RQ ROW_BUFFER_HIT:     647624
  ROW_BUFFER_MISS:    2424960
 AVG DBUS CONGESTED CYCLE:    3.65257
 WQ ROW_BUFFER_HIT:      66553
  ROW_BUFFER_MISS:      56841  FULL:          0

