last_page:0x200000000000000
VMEM_RES_CAP:0x100000
PAGE_SIZE:4096
LOG2_PAGE_SIZE:12
LOG2_PAGE_TABLE_SIZE:9
page_table_levels:5
WARNING: physical memory size is smaller than virtual memory size
FDiP enabled with aggresivity 16

*** ChampSim Multicore Out-of-Order Simulator ***

Warmup Instructions: 50000000
Simulation Instructions: 100000000
Number of CPUs: 1
Small page size: 4096
Large page size: 2097152

CPU 0 Bimodal branch predictor
Basic BTB sets: 1024 ways: 8 indirect buffer size: 4096 RAS size: 64
Instruction page size distrubution: 0
Loading instruction page size distribution from /home/bsc/bsc018186/scratch/itp_asplos25_AE/dump/smt_srv540_ap_srv442_ap_1024i.pdst
Data page size distrubution: 0
Loading data page size distribution from /home/bsc/bsc018186/scratch/itp_asplos25_AE/dump/smt_srv540_ap_srv442_ap_1024i.pdst
cpu0_L2C IP-based stride prefetcher
cpu0_L1D next line prefetcher
cpu0_L1I next line prefetcher
Off-chip DRAM Size: 4 GiB Channels: 1 Width: 64-bit Data Rate: 3200 MT/s
Heartbeat CPU 0 instructions: 10000002 cycles: 2500553 heartbeat IPC: 3.99912 cumulative IPC: 3.99912 (Simulation time: 0 hr 0 min 44 sec) 
Heartbeat CPU 0 instructions: 20000001 cycles: 5000885 heartbeat IPC: 3.99947 cumulative IPC: 3.9993 (Simulation time: 0 hr 1 min 30 sec) 
Heartbeat CPU 0 instructions: 30000001 cycles: 7501252 heartbeat IPC: 3.99942 cumulative IPC: 3.99934 (Simulation time: 0 hr 2 min 16 sec) 
Heartbeat CPU 0 instructions: 40000001 cycles: 10001387 heartbeat IPC: 3.99979 cumulative IPC: 3.99945 (Simulation time: 0 hr 3 min 0 sec) 
Heartbeat CPU 0 instructions: 50000001 cycles: 12501695 heartbeat IPC: 3.99951 cumulative IPC: 3.99946 (Simulation time: 0 hr 3 min 45 sec) 
Warmup finished CPU 0 instructions: 50000001 cycles: 12501696 cumulative IPC: 3.99946 (Simulation time: 0 hr 3 min 45 sec) 

Warmup complete CPU 0 instructions: 50000001 cycles: 12501696 (Simulation time: 0 hr 3 min 45 sec) 

Heartbeat CPU 0 instructions: 60000000 cycles: 42113205 heartbeat IPC: 0.337707 cumulative IPC: 0.337707 (Simulation time: 0 hr 5 min 22 sec) 
Heartbeat CPU 0 instructions: 70000004 cycles: 71227373 heartbeat IPC: 0.343476 cumulative IPC: 0.340567 (Simulation time: 0 hr 6 min 57 sec) 
Heartbeat CPU 0 instructions: 80000002 cycles: 99915655 heartbeat IPC: 0.348575 cumulative IPC: 0.343195 (Simulation time: 0 hr 8 min 29 sec) 
Heartbeat CPU 0 instructions: 90000000 cycles: 129198604 heartbeat IPC: 0.341496 cumulative IPC: 0.342769 (Simulation time: 0 hr 10 min 6 sec) 
Heartbeat CPU 0 instructions: 100000001 cycles: 158969338 heartbeat IPC: 0.335901 cumulative IPC: 0.341373 (Simulation time: 0 hr 11 min 39 sec) 
Heartbeat CPU 0 instructions: 110000003 cycles: 188497243 heartbeat IPC: 0.338663 cumulative IPC: 0.340918 (Simulation time: 0 hr 13 min 16 sec) 
Heartbeat CPU 0 instructions: 120000002 cycles: 217656791 heartbeat IPC: 0.342941 cumulative IPC: 0.341206 (Simulation time: 0 hr 14 min 49 sec) 
Heartbeat CPU 0 instructions: 130000000 cycles: 246551093 heartbeat IPC: 0.346089 cumulative IPC: 0.341809 (Simulation time: 0 hr 16 min 15 sec) 
Heartbeat CPU 0 instructions: 140000002 cycles: 275087648 heartbeat IPC: 0.350428 cumulative IPC: 0.342745 (Simulation time: 0 hr 17 min 41 sec) 
Heartbeat CPU 0 instructions: 150000001 cycles: 302826205 heartbeat IPC: 0.360509 cumulative IPC: 0.344443 (Simulation time: 0 hr 19 min 4 sec) 
Simulation finished CPU 0 instructions: 100000000 cycles: 290324510 cumulative IPC: 0.344443 (Simulation time: 0 hr 19 min 4 sec) 

Simulation complete CPU 0 instructions: 100000000 cycles: 290324510 (Simulation time: 0 hr 19 min 4 sec) 


ChampSim completed all CPUs

Saving instructions large page distribution to /home/bsc/bsc018186/scratch/itp_asplos25_AE/dump/smt_srv540_ap_srv442_ap_1024i.pdst...
Saving data large page distribution to /home/bsc/bsc018186/scratch/itp_asplos25_AE/dump/smt_srv540_ap_srv442_ap_1024i.pdst...
=== Simulation ===
CPU 0 runs /gpfs/projects/bsc18/MN4/bsc18/romol/ChampSim/traces/qualcomm_srv/smt_srv540_ap_srv442_ap_1024i.champsimtrace.xz

Region of Interest Statistics

CPU 0 cumulative IPC: 0.344443 instructions: 100000000 cycles: 290324510
CPU 0 Branch Prediction Accuracy: 76.4137% MPKI: 42.5415 Average ROB Occupancy at Mispredict: 11.4148
Branch type MPKI
BRANCH_DIRECT_JUMP: 1.29877
BRANCH_INDIRECT: 22.7466
BRANCH_CONDITIONAL: 11.6727
BRANCH_DIRECT_CALL: 2.41268
BRANCH_INDIRECT_CALL: 0.997001
BRANCH_RETURN: 3.41375

Instructions large pages: 0
Instructions small pages: 9745
Large page distribution for instructions: 0%

Data large pages: 0
Data small pages: 8570
Large page distribution for data: 0%

cpu0_L1I TOTAL       ACCESS:   38829997  HIT:   30039200  MISS:    8790797  iACCESS:   38829997  iHIT:   30039200  iMISS:    8790797  dACCESS:          0  dHIT:          0  dMISS:          0  itACCESS:          0  itHIT:          0  itMISS:          0  dtACCESS:          0  dtHIT:          0  dtMISS:          0
cpu0_L1I LOAD         ACCESS:   11644494  HIT:    9223041  MISS:    2421453  iACCESS:   11644494  iHIT:    9223041  iMISS:    2421453  dACCESS:          0  dHIT:          0  dMISS:          0  itACCESS:          0  itHIT:          0  itMISS:          0  dtACCESS:          0  dtHIT:          0  dtMISS:          0
cpu0_L1I RFO          ACCESS:          0  HIT:          0  MISS:          0  iACCESS:          0  iHIT:          0  iMISS:          0  dACCESS:          0  dHIT:          0  dMISS:          0  itACCESS:          0  itHIT:          0  itMISS:          0  dtACCESS:          0  dtHIT:          0  dtMISS:          0
cpu0_L1I PREFETCH     ACCESS:   27185503  HIT:   20816159  MISS:    6369344  iACCESS:   27185503  iHIT:   20816159  iMISS:    6369344  dACCESS:          0  dHIT:          0  dMISS:          0  itACCESS:          0  itHIT:          0  itMISS:          0  dtACCESS:          0  dtHIT:          0  dtMISS:          0
cpu0_L1I WRITE        ACCESS:          0  HIT:          0  MISS:          0  iACCESS:          0  iHIT:          0  iMISS:          0  dACCESS:          0  dHIT:          0  dMISS:          0  itACCESS:          0  itHIT:          0  itMISS:          0  dtACCESS:          0  dtHIT:          0  dtMISS:          0
cpu0_L1I TRANSLATION  ACCESS:          0  HIT:          0  MISS:          0  iACCESS:          0  iHIT:          0  iMISS:          0  dACCESS:          0  dHIT:          0  dMISS:          0  itACCESS:          0  itHIT:          0  itMISS:          0  dtACCESS:          0  dtHIT:          0  dtMISS:          0
cpu0_L1I PREFETCH  REQUESTED:   30033420  ISSUED:   30033411  CROSSED:          0  USEFUL:    2205152  USELESS:     770417
cpu0_L1I AVERAGE iMISS LATENCY: 22.0693 cycles
cpu0_L1I AVERAGE dMISS LATENCY: 0 cycles
cpu0_L1I AVERAGE itMISS LATENCY: 0 cycles
cpu0_L1I AVERAGE dtMISS LATENCY: 0 cycles
cpu0_L1I PAGE CROSSINGS (TLB HIT):         0 
cpu0_L1I PAGE CROSSINGS (TLB MISS):         0 
cpu0_L1I AVERAGE MISS LATENCY: 22.0693 cycles
cpu0_ITLB TOTAL       ACCESS:   32798205  HIT:   30513366  MISS:    2284839  iACCESS:   32798205  iHIT:   30513366  iMISS:    2284839  dACCESS:          0  dHIT:          0  dMISS:          0  itACCESS:          0  itHIT:          0  itMISS:          0  dtACCESS:          0  dtHIT:          0  dtMISS:          0
cpu0_ITLB LOAD         ACCESS:   32798205  HIT:   30513366  MISS:    2284839  iACCESS:   32798205  iHIT:   30513366  iMISS:    2284839  dACCESS:          0  dHIT:          0  dMISS:          0  itACCESS:          0  itHIT:          0  itMISS:          0  dtACCESS:          0  dtHIT:          0  dtMISS:          0
cpu0_ITLB RFO          ACCESS:          0  HIT:          0  MISS:          0  iACCESS:          0  iHIT:          0  iMISS:          0  dACCESS:          0  dHIT:          0  dMISS:          0  itACCESS:          0  itHIT:          0  itMISS:          0  dtACCESS:          0  dtHIT:          0  dtMISS:          0
cpu0_ITLB PREFETCH     ACCESS:          0  HIT:          0  MISS:          0  iACCESS:          0  iHIT:          0  iMISS:          0  dACCESS:          0  dHIT:          0  dMISS:          0  itACCESS:          0  itHIT:          0  itMISS:          0  dtACCESS:          0  dtHIT:          0  dtMISS:          0
cpu0_ITLB WRITE        ACCESS:          0  HIT:          0  MISS:          0  iACCESS:          0  iHIT:          0  iMISS:          0  dACCESS:          0  dHIT:          0  dMISS:          0  itACCESS:          0  itHIT:          0  itMISS:          0  dtACCESS:          0  dtHIT:          0  dtMISS:          0
cpu0_ITLB TRANSLATION  ACCESS:          0  HIT:          0  MISS:          0  iACCESS:          0  iHIT:          0  iMISS:          0  dACCESS:          0  dHIT:          0  dMISS:          0  itACCESS:          0  itHIT:          0  itMISS:          0  dtACCESS:          0  dtHIT:          0  dtMISS:          0
cpu0_ITLB PREFETCH  REQUESTED:          0  ISSUED:          0  CROSSED:          0  USEFUL:     387645  USELESS:      82852
cpu0_ITLB AVERAGE iMISS LATENCY: 9.9053 cycles
cpu0_ITLB AVERAGE dMISS LATENCY: 0 cycles
cpu0_ITLB AVERAGE itMISS LATENCY: 0 cycles
cpu0_ITLB AVERAGE dtMISS LATENCY: 0 cycles
cpu0_ITLB PAGE CROSSINGS (TLB HIT):         0 
cpu0_ITLB PAGE CROSSINGS (TLB MISS):         0 
cpu0_ITLB AVERAGE MISS LATENCY: 9.9053 cycles
cpu0_DTLB TOTAL       ACCESS:   28795593  HIT:   25116633  MISS:    3678960  iACCESS:          0  iHIT:          0  iMISS:          0  dACCESS:   28795593  dHIT:   25116633  dMISS:    3678960  itACCESS:          0  itHIT:          0  itMISS:          0  dtACCESS:          0  dtHIT:          0  dtMISS:          0
cpu0_DTLB LOAD         ACCESS:   28795593  HIT:   25116633  MISS:    3678960  iACCESS:          0  iHIT:          0  iMISS:          0  dACCESS:   28795593  dHIT:   25116633  dMISS:    3678960  itACCESS:          0  itHIT:          0  itMISS:          0  dtACCESS:          0  dtHIT:          0  dtMISS:          0
cpu0_DTLB RFO          ACCESS:          0  HIT:          0  MISS:          0  iACCESS:          0  iHIT:          0  iMISS:          0  dACCESS:          0  dHIT:          0  dMISS:          0  itACCESS:          0  itHIT:          0  itMISS:          0  dtACCESS:          0  dtHIT:          0  dtMISS:          0
cpu0_DTLB PREFETCH     ACCESS:          0  HIT:          0  MISS:          0  iACCESS:          0  iHIT:          0  iMISS:          0  dACCESS:          0  dHIT:          0  dMISS:          0  itACCESS:          0  itHIT:          0  itMISS:          0  dtACCESS:          0  dtHIT:          0  dtMISS:          0
cpu0_DTLB WRITE        ACCESS:          0  HIT:          0  MISS:          0  iACCESS:          0  iHIT:          0  iMISS:          0  dACCESS:          0  dHIT:          0  dMISS:          0  itACCESS:          0  itHIT:          0  itMISS:          0  dtACCESS:          0  dtHIT:          0  dtMISS:          0
cpu0_DTLB TRANSLATION  ACCESS:          0  HIT:          0  MISS:          0  iACCESS:          0  iHIT:          0  iMISS:          0  dACCESS:          0  dHIT:          0  dMISS:          0  itACCESS:          0  itHIT:          0  itMISS:          0  dtACCESS:          0  dtHIT:          0  dtMISS:          0
cpu0_DTLB PREFETCH  REQUESTED:          0  ISSUED:          0  CROSSED:          0  USEFUL:          0  USELESS:          0
cpu0_DTLB AVERAGE iMISS LATENCY: 0 cycles
cpu0_DTLB AVERAGE dMISS LATENCY: 24.9085 cycles
cpu0_DTLB AVERAGE itMISS LATENCY: 0 cycles
cpu0_DTLB AVERAGE dtMISS LATENCY: 0 cycles
cpu0_DTLB PAGE CROSSINGS (TLB HIT):         0 
cpu0_DTLB PAGE CROSSINGS (TLB MISS):         0 
cpu0_DTLB AVERAGE MISS LATENCY: 24.9085 cycles
cpu0_STLB TOTAL       ACCESS:    2596294  HIT:    2222377  MISS:     373917  iACCESS:     470497  iHIT:     363107  iMISS:     107390  dACCESS:    2125797  dHIT:    1859270  dMISS:     266527  itACCESS:          0  itHIT:          0  itMISS:          0  dtACCESS:          0  dtHIT:          0  dtMISS:          0
cpu0_STLB LOAD         ACCESS:    2596294  HIT:    2222377  MISS:     373917  iACCESS:     470497  iHIT:     363107  iMISS:     107390  dACCESS:    2125797  dHIT:    1859270  dMISS:     266527  itACCESS:          0  itHIT:          0  itMISS:          0  dtACCESS:          0  dtHIT:          0  dtMISS:          0
cpu0_STLB RFO          ACCESS:          0  HIT:          0  MISS:          0  iACCESS:          0  iHIT:          0  iMISS:          0  dACCESS:          0  dHIT:          0  dMISS:          0  itACCESS:          0  itHIT:          0  itMISS:          0  dtACCESS:          0  dtHIT:          0  dtMISS:          0
cpu0_STLB PREFETCH     ACCESS:          0  HIT:          0  MISS:          0  iACCESS:          0  iHIT:          0  iMISS:          0  dACCESS:          0  dHIT:          0  dMISS:          0  itACCESS:          0  itHIT:          0  itMISS:          0  dtACCESS:          0  dtHIT:          0  dtMISS:          0
cpu0_STLB WRITE        ACCESS:          0  HIT:          0  MISS:          0  iACCESS:          0  iHIT:          0  iMISS:          0  dACCESS:          0  dHIT:          0  dMISS:          0  itACCESS:          0  itHIT:          0  itMISS:          0  dtACCESS:          0  dtHIT:          0  dtMISS:          0
cpu0_STLB TRANSLATION  ACCESS:          0  HIT:          0  MISS:          0  iACCESS:          0  iHIT:          0  iMISS:          0  dACCESS:          0  dHIT:          0  dMISS:          0  itACCESS:          0  itHIT:          0  itMISS:          0  dtACCESS:          0  dtHIT:          0  dtMISS:          0
cpu0_STLB PREFETCH  REQUESTED:          0  ISSUED:          0  CROSSED:          0  USEFUL:          0  USELESS:          0
cpu0_STLB AVERAGE iMISS LATENCY: 50.4808 cycles
cpu0_STLB AVERAGE dMISS LATENCY: 199.302 cycles
cpu0_STLB AVERAGE itMISS LATENCY: 0 cycles
cpu0_STLB AVERAGE dtMISS LATENCY: 0 cycles
cpu0_STLB PAGE CROSSINGS (TLB HIT):         0 
cpu0_STLB PAGE CROSSINGS (TLB MISS):         0 
cpu0_STLB AVERAGE MISS LATENCY: 249.783 cycles
cpu0_L1D TOTAL       ACCESS:   44774397  HIT:   38942799  MISS:    5831598  iACCESS:          0  iHIT:          0  iMISS:          0  dACCESS:   44223901  dHIT:   38911160  dMISS:    5312741  itACCESS:     120942  itHIT:      12234  itMISS:     108708  dtACCESS:     429554  dtHIT:      19405  dtMISS:     410149
cpu0_L1D LOAD         ACCESS:   20209784  HIT:   17823249  MISS:    2386535  iACCESS:          0  iHIT:          0  iMISS:          0  dACCESS:   20209784  dHIT:   17823249  dMISS:    2386535  itACCESS:          0  itHIT:          0  itMISS:          0  dtACCESS:          0  dtHIT:          0  dtMISS:          0
cpu0_L1D RFO          ACCESS:          0  HIT:          0  MISS:          0  iACCESS:          0  iHIT:          0  iMISS:          0  dACCESS:          0  dHIT:          0  dMISS:          0  itACCESS:          0  itHIT:          0  itMISS:          0  dtACCESS:          0  dtHIT:          0  dtMISS:          0
cpu0_L1D PREFETCH     ACCESS:   13871570  HIT:   11520262  MISS:    2351308  iACCESS:          0  iHIT:          0  iMISS:          0  dACCESS:   13871570  dHIT:   11520262  dMISS:    2351308  itACCESS:          0  itHIT:          0  itMISS:          0  dtACCESS:          0  dtHIT:          0  dtMISS:          0
cpu0_L1D WRITE        ACCESS:   10142547  HIT:    9567649  MISS:     574898  iACCESS:          0  iHIT:          0  iMISS:          0  dACCESS:   10142547  dHIT:    9567649  dMISS:     574898  itACCESS:          0  itHIT:          0  itMISS:          0  dtACCESS:          0  dtHIT:          0  dtMISS:          0
cpu0_L1D TRANSLATION  ACCESS:     550496  HIT:      31639  MISS:     518857  iACCESS:          0  iHIT:          0  iMISS:          0  dACCESS:          0  dHIT:          0  dMISS:          0  itACCESS:     120942  itHIT:      12234  itMISS:     108708  dtACCESS:     429554  dtHIT:      19405  dtMISS:     410149
cpu0_L1D PREFETCH  REQUESTED:   20209784  ISSUED:   18366561  CROSSED:          0  USEFUL:     358965  USELESS:     933254
cpu0_L1D AVERAGE iMISS LATENCY: 0 cycles
cpu0_L1D AVERAGE dMISS LATENCY: 49.3673 cycles
cpu0_L1D AVERAGE itMISS LATENCY: 3.06457 cycles
cpu0_L1D AVERAGE dtMISS LATENCY: 11.9919 cycles
cpu0_L1D PAGE CROSSINGS (TLB HIT):         0 
cpu0_L1D PAGE CROSSINGS (TLB MISS):         0 
cpu0_L1D AVERAGE MISS LATENCY: 64.4237 cycles
cpu0_L2C TOTAL       ACCESS:    8632137  HIT:    4293262  MISS:    4338875  iACCESS:    3807909  iHIT:    2381920  iMISS:    1425989  dACCESS:    4337218  dHIT:    1853698  dMISS:    2483520  itACCESS:     108599  itHIT:      17995  itMISS:      90604  dtACCESS:     378411  dtHIT:      39649  dtMISS:     338762
cpu0_L2C LOAD         ACCESS:    2080378  HIT:    1035574  MISS:    1044804  iACCESS:     870278  iHIT:     570271  iMISS:     300007  dACCESS:    1210100  dHIT:     465303  dMISS:     744797  itACCESS:          0  itHIT:          0  itMISS:          0  dtACCESS:          0  dtHIT:          0  dtMISS:          0
cpu0_L2C RFO          ACCESS:     220966  HIT:      86542  MISS:     134424  iACCESS:          0  iHIT:          0  iMISS:          0  dACCESS:     220966  dHIT:      86542  dMISS:     134424  itACCESS:          0  itHIT:          0  itMISS:          0  dtACCESS:          0  dtHIT:          0  dtMISS:          0
cpu0_L2C PREFETCH     ACCESS:    5494965  HIT:    2768317  MISS:    2726648  iACCESS:    2937631  iHIT:    1811649  iMISS:    1125982  dACCESS:    2557334  dHIT:     956668  dMISS:    1600666  itACCESS:          0  itHIT:          0  itMISS:          0  dtACCESS:          0  dtHIT:          0  dtMISS:          0
cpu0_L2C WRITE        ACCESS:     348818  HIT:     345185  MISS:       3633  iACCESS:          0  iHIT:          0  iMISS:          0  dACCESS:     348818  dHIT:     345185  dMISS:       3633  itACCESS:          0  itHIT:          0  itMISS:          0  dtACCESS:          0  dtHIT:          0  dtMISS:          0
cpu0_L2C TRANSLATION  ACCESS:     487010  HIT:      57644  MISS:     429366  iACCESS:          0  iHIT:          0  iMISS:          0  dACCESS:          0  dHIT:          0  dMISS:          0  itACCESS:     108599  itHIT:      17995  itMISS:      90604  dtACCESS:     378411  dtHIT:      39649  dtMISS:     338762
cpu0_L2C PREFETCH  REQUESTED:    1526066  ISSUED:    1526063  CROSSED:          0  USEFUL:     351273  USELESS:     302014
cpu0_L2C AVERAGE iMISS LATENCY: 37.1375 cycles
cpu0_L2C AVERAGE dMISS LATENCY: 79.8814 cycles
cpu0_L2C AVERAGE itMISS LATENCY: 3.87196 cycles
cpu0_L2C AVERAGE dtMISS LATENCY: 15.2492 cycles
cpu0_L2C PAGE CROSSINGS (TLB HIT):         0 
cpu0_L2C PAGE CROSSINGS (TLB MISS):         0 
cpu0_L2C AVERAGE MISS LATENCY: 136.14 cycles
LLC TOTAL       ACCESS:    4353405  HIT:    1423100  MISS:    2930305  iACCESS:    1344483  iHIT:     492367  iMISS:     852116  dACCESS:    2579556  dHIT:     889358  dMISS:    1690198  itACCESS:      90604  itHIT:       6659  itMISS:      83945  dtACCESS:     338762  dtHIT:      34716  dtMISS:     304046
LLC LOAD         ACCESS:    1037171  HIT:     342917  MISS:     694254  iACCESS:     298876  iHIT:     115086  iMISS:     183790  dACCESS:     738295  dHIT:     227831  dMISS:     510464  itACCESS:          0  itHIT:          0  itMISS:          0  dtACCESS:          0  dtHIT:          0  dtMISS:          0
LLC RFO          ACCESS:     134417  HIT:      41482  MISS:      92935  iACCESS:          0  iHIT:          0  iMISS:          0  dACCESS:     134417  dHIT:      41482  dMISS:      92935  itACCESS:          0  itHIT:          0  itMISS:          0  dtACCESS:          0  dtHIT:          0  dtMISS:          0
LLC PREFETCH     ACCESS:    2539624  HIT:     794315  MISS:    1745309  iACCESS:    1045607  iHIT:     377281  iMISS:     668326  dACCESS:    1494017  dHIT:     417034  dMISS:    1076983  itACCESS:          0  itHIT:          0  itMISS:          0  dtACCESS:          0  dtHIT:          0  dtMISS:          0
LLC WRITE        ACCESS:     212827  HIT:     203011  MISS:       9816  iACCESS:          0  iHIT:          0  iMISS:          0  dACCESS:     212827  dHIT:     203011  dMISS:       9816  itACCESS:          0  itHIT:          0  itMISS:          0  dtACCESS:          0  dtHIT:          0  dtMISS:          0
LLC TRANSLATION  ACCESS:     429366  HIT:      41375  MISS:     387991  iACCESS:          0  iHIT:          0  iMISS:          0  dACCESS:          0  dHIT:          0  dMISS:          0  itACCESS:      90604  itHIT:       6659  itMISS:      83945  dtACCESS:     338762  dtHIT:      34716  dtMISS:     304046
LLC PREFETCH  REQUESTED:          0  ISSUED:          0  CROSSED:          0  USEFUL:          0  USELESS:          0
LLC AVERAGE iMISS LATENCY: 45.9681 cycles
LLC AVERAGE dMISS LATENCY: 103.433 cycles
LLC AVERAGE itMISS LATENCY: 5.11978 cycles
LLC AVERAGE dtMISS LATENCY: 20.2937 cycles
LLC PAGE CROSSINGS (TLB HIT):         0 
LLC PAGE CROSSINGS (TLB MISS):         0 
LLC AVERAGE MISS LATENCY: 174.815 cycles

PageTableWalker TOTAL       ACCESS:     185512  
PageTableWalker AVERAGE LATENCY: 6.4908 cycles
PageTableWalker TOTAL LATENCY: 1204121 cycles

DRAM Statistics
Channel 0
 RQ ROW_BUFFER_HIT:     596830
  ROW_BUFFER_MISS:    2302907
 AVG DBUS CONGESTED CYCLE:    3.64669
 WQ ROW_BUFFER_HIT:      65506
  ROW_BUFFER_MISS:      54724  FULL:          0

