last_page:0x200000000000000
VMEM_RES_CAP:0x100000
PAGE_SIZE:4096
LOG2_PAGE_SIZE:12
LOG2_PAGE_TABLE_SIZE:9
page_table_levels:5
WARNING: physical memory size is smaller than virtual memory size
FDiP enabled with aggresivity 16

*** ChampSim Multicore Out-of-Order Simulator ***

Warmup Instructions: 50000000
Simulation Instructions: 100000000
Number of CPUs: 1
Small page size: 4096
Large page size: 2097152

CPU 0 Bimodal branch predictor
Basic BTB sets: 1024 ways: 8 indirect buffer size: 4096 RAS size: 64
Instruction page size distrubution: 0
Loading instruction page size distribution from /home/bsc/bsc018186/scratch/itp_asplos25_AE/dump/smt_srv537_ap_srv194_ap_1024i.pdst
Data page size distrubution: 0
Loading data page size distribution from /home/bsc/bsc018186/scratch/itp_asplos25_AE/dump/smt_srv537_ap_srv194_ap_1024i.pdst
cpu0_L2C IP-based stride prefetcher
cpu0_L2C is using PTP replacement policy:
	TLB_STRESS_THRESHOLD:0
	PTE_EVICTION_RATIO:0
cpu0_L1D next line prefetcher
cpu0_L1I next line prefetcher
Off-chip DRAM Size: 4 GiB Channels: 1 Width: 64-bit Data Rate: 3200 MT/s
Heartbeat CPU 0 instructions: 10000000 cycles: 2500719 heartbeat IPC: 3.99885 cumulative IPC: 3.99885 (Simulation time: 0 hr 0 min 39 sec) 
Heartbeat CPU 0 instructions: 20000002 cycles: 5001297 heartbeat IPC: 3.99908 cumulative IPC: 3.99897 (Simulation time: 0 hr 1 min 20 sec) 
Heartbeat CPU 0 instructions: 30000002 cycles: 7501748 heartbeat IPC: 3.99928 cumulative IPC: 3.99907 (Simulation time: 0 hr 2 min 1 sec) 
Heartbeat CPU 0 instructions: 40000002 cycles: 10002634 heartbeat IPC: 3.99859 cumulative IPC: 3.99895 (Simulation time: 0 hr 2 min 43 sec) 
Heartbeat CPU 0 instructions: 50000003 cycles: 12579857 heartbeat IPC: 3.88015 cumulative IPC: 3.97461 (Simulation time: 0 hr 3 min 23 sec) 
Warmup finished CPU 0 instructions: 50000003 cycles: 12579858 cumulative IPC: 3.97461 (Simulation time: 0 hr 3 min 23 sec) 

Warmup complete CPU 0 instructions: 50000003 cycles: 12579858 (Simulation time: 0 hr 3 min 23 sec) 

Heartbeat CPU 0 instructions: 60000004 cycles: 29900657 heartbeat IPC: 0.577341 cumulative IPC: 0.577341 (Simulation time: 0 hr 4 min 34 sec) 
Heartbeat CPU 0 instructions: 70000001 cycles: 51913413 heartbeat IPC: 0.454282 cumulative IPC: 0.508472 (Simulation time: 0 hr 5 min 51 sec) 
Heartbeat CPU 0 instructions: 80000003 cycles: 84128328 heartbeat IPC: 0.310416 cumulative IPC: 0.419297 (Simulation time: 0 hr 7 min 20 sec) 
Heartbeat CPU 0 instructions: 90000000 cycles: 115156812 heartbeat IPC: 0.322285 cumulative IPC: 0.389952 (Simulation time: 0 hr 8 min 48 sec) 
Heartbeat CPU 0 instructions: 100000003 cycles: 146267502 heartbeat IPC: 0.321434 cumulative IPC: 0.374007 (Simulation time: 0 hr 10 min 16 sec) 
Heartbeat CPU 0 instructions: 110000000 cycles: 177673063 heartbeat IPC: 0.318415 cumulative IPC: 0.363432 (Simulation time: 0 hr 11 min 45 sec) 
Heartbeat CPU 0 instructions: 120000003 cycles: 209413111 heartbeat IPC: 0.31506 cumulative IPC: 0.355631 (Simulation time: 0 hr 13 min 14 sec) 
Heartbeat CPU 0 instructions: 130000001 cycles: 240614967 heartbeat IPC: 0.320494 cumulative IPC: 0.350824 (Simulation time: 0 hr 14 min 42 sec) 
Heartbeat CPU 0 instructions: 140000004 cycles: 272945674 heartbeat IPC: 0.309304 cumulative IPC: 0.345668 (Simulation time: 0 hr 16 min 12 sec) 
Heartbeat CPU 0 instructions: 150000003 cycles: 305550702 heartbeat IPC: 0.306702 cumulative IPC: 0.341331 (Simulation time: 0 hr 17 min 50 sec) 
Simulation finished CPU 0 instructions: 100000000 cycles: 292970845 cumulative IPC: 0.341331 (Simulation time: 0 hr 17 min 50 sec) 

Simulation complete CPU 0 instructions: 100000000 cycles: 292970845 (Simulation time: 0 hr 17 min 50 sec) 


ChampSim completed all CPUs

Saving instructions large page distribution to /home/bsc/bsc018186/scratch/itp_asplos25_AE/dump/smt_srv537_ap_srv194_ap_1024i.pdst...
Saving data large page distribution to /home/bsc/bsc018186/scratch/itp_asplos25_AE/dump/smt_srv537_ap_srv194_ap_1024i.pdst...
=== Simulation ===
CPU 0 runs /gpfs/projects/bsc18/MN4/bsc18/romol/ChampSim/traces/qualcomm_srv/smt_srv537_ap_srv194_ap_1024i.champsimtrace.xz

Region of Interest Statistics

CPU 0 cumulative IPC: 0.341331 instructions: 100000000 cycles: 292970845
CPU 0 Branch Prediction Accuracy: 76.883% MPKI: 44.0864 Average ROB Occupancy at Mispredict: 10.5468
Branch type MPKI
BRANCH_DIRECT_JUMP: 1.38075
BRANCH_INDIRECT: 23.1592
BRANCH_CONDITIONAL: 12.3292
BRANCH_DIRECT_CALL: 2.63956
BRANCH_INDIRECT_CALL: 1.12196
BRANCH_RETURN: 3.45582

Instructions large pages: 0
Instructions small pages: 11612
Large page distribution for instructions: 0%

Data large pages: 0
Data small pages: 9842
Large page distribution for data: 0%

cpu0_L1I TOTAL       ACCESS:   39855801  HIT:   31532369  MISS:    8323432  iACCESS:   39855801  iHIT:   31532369  iMISS:    8323432  dACCESS:          0  dHIT:          0  dMISS:          0  itACCESS:          0  itHIT:          0  itMISS:          0  dtACCESS:          0  dtHIT:          0  dtMISS:          0
cpu0_L1I LOAD         ACCESS:   11465250  HIT:    9188202  MISS:    2277048  iACCESS:   11465250  iHIT:    9188202  iMISS:    2277048  dACCESS:          0  dHIT:          0  dMISS:          0  itACCESS:          0  itHIT:          0  itMISS:          0  dtACCESS:          0  dtHIT:          0  dtMISS:          0
cpu0_L1I RFO          ACCESS:          0  HIT:          0  MISS:          0  iACCESS:          0  iHIT:          0  iMISS:          0  dACCESS:          0  dHIT:          0  dMISS:          0  itACCESS:          0  itHIT:          0  itMISS:          0  dtACCESS:          0  dtHIT:          0  dtMISS:          0
cpu0_L1I PREFETCH     ACCESS:   28390551  HIT:   22344167  MISS:    6046384  iACCESS:   28390551  iHIT:   22344167  iMISS:    6046384  dACCESS:          0  dHIT:          0  dMISS:          0  itACCESS:          0  itHIT:          0  itMISS:          0  dtACCESS:          0  dtHIT:          0  dtMISS:          0
cpu0_L1I WRITE        ACCESS:          0  HIT:          0  MISS:          0  iACCESS:          0  iHIT:          0  iMISS:          0  dACCESS:          0  dHIT:          0  dMISS:          0  itACCESS:          0  itHIT:          0  itMISS:          0  dtACCESS:          0  dtHIT:          0  dtMISS:          0
cpu0_L1I TRANSLATION  ACCESS:          0  HIT:          0  MISS:          0  iACCESS:          0  iHIT:          0  iMISS:          0  dACCESS:          0  dHIT:          0  dMISS:          0  itACCESS:          0  itHIT:          0  itMISS:          0  dtACCESS:          0  dtHIT:          0  dtMISS:          0
cpu0_L1I PREFETCH  REQUESTED:   31041207  ISSUED:   31041198  CROSSED:          0  USEFUL:    2099892  USELESS:     752298
cpu0_L1I AVERAGE iMISS LATENCY: 25.0354 cycles
cpu0_L1I AVERAGE dMISS LATENCY: 0 cycles
cpu0_L1I AVERAGE itMISS LATENCY: 0 cycles
cpu0_L1I AVERAGE dtMISS LATENCY: 0 cycles
cpu0_L1I PAGE CROSSINGS (TLB HIT):         0 
cpu0_L1I PAGE CROSSINGS (TLB MISS):         0 
cpu0_L1I AVERAGE MISS LATENCY: 25.0354 cycles
cpu0_ITLB TOTAL       ACCESS:   33721304  HIT:   31544056  MISS:    2177248  iACCESS:   33721304  iHIT:   31544056  iMISS:    2177248  dACCESS:          0  dHIT:          0  dMISS:          0  itACCESS:          0  itHIT:          0  itMISS:          0  dtACCESS:          0  dtHIT:          0  dtMISS:          0
cpu0_ITLB LOAD         ACCESS:   33721304  HIT:   31544056  MISS:    2177248  iACCESS:   33721304  iHIT:   31544056  iMISS:    2177248  dACCESS:          0  dHIT:          0  dMISS:          0  itACCESS:          0  itHIT:          0  itMISS:          0  dtACCESS:          0  dtHIT:          0  dtMISS:          0
cpu0_ITLB RFO          ACCESS:          0  HIT:          0  MISS:          0  iACCESS:          0  iHIT:          0  iMISS:          0  dACCESS:          0  dHIT:          0  dMISS:          0  itACCESS:          0  itHIT:          0  itMISS:          0  dtACCESS:          0  dtHIT:          0  dtMISS:          0
cpu0_ITLB PREFETCH     ACCESS:          0  HIT:          0  MISS:          0  iACCESS:          0  iHIT:          0  iMISS:          0  dACCESS:          0  dHIT:          0  dMISS:          0  itACCESS:          0  itHIT:          0  itMISS:          0  dtACCESS:          0  dtHIT:          0  dtMISS:          0
cpu0_ITLB WRITE        ACCESS:          0  HIT:          0  MISS:          0  iACCESS:          0  iHIT:          0  iMISS:          0  dACCESS:          0  dHIT:          0  dMISS:          0  itACCESS:          0  itHIT:          0  itMISS:          0  dtACCESS:          0  dtHIT:          0  dtMISS:          0
cpu0_ITLB TRANSLATION  ACCESS:          0  HIT:          0  MISS:          0  iACCESS:          0  iHIT:          0  iMISS:          0  dACCESS:          0  dHIT:          0  dMISS:          0  itACCESS:          0  itHIT:          0  itMISS:          0  dtACCESS:          0  dtHIT:          0  dtMISS:          0
cpu0_ITLB PREFETCH  REQUESTED:          0  ISSUED:          0  CROSSED:          0  USEFUL:     380745  USELESS:      82290
cpu0_ITLB AVERAGE iMISS LATENCY: 10.5233 cycles
cpu0_ITLB AVERAGE dMISS LATENCY: 0 cycles
cpu0_ITLB AVERAGE itMISS LATENCY: 0 cycles
cpu0_ITLB AVERAGE dtMISS LATENCY: 0 cycles
cpu0_ITLB PAGE CROSSINGS (TLB HIT):         0 
cpu0_ITLB PAGE CROSSINGS (TLB MISS):         0 
cpu0_ITLB AVERAGE MISS LATENCY: 10.5233 cycles
cpu0_DTLB TOTAL       ACCESS:   30310977  HIT:   25255000  MISS:    5055977  iACCESS:          0  iHIT:          0  iMISS:          0  dACCESS:   30310977  dHIT:   25255000  dMISS:    5055977  itACCESS:          0  itHIT:          0  itMISS:          0  dtACCESS:          0  dtHIT:          0  dtMISS:          0
cpu0_DTLB LOAD         ACCESS:   30310977  HIT:   25255000  MISS:    5055977  iACCESS:          0  iHIT:          0  iMISS:          0  dACCESS:   30310977  dHIT:   25255000  dMISS:    5055977  itACCESS:          0  itHIT:          0  itMISS:          0  dtACCESS:          0  dtHIT:          0  dtMISS:          0
cpu0_DTLB RFO          ACCESS:          0  HIT:          0  MISS:          0  iACCESS:          0  iHIT:          0  iMISS:          0  dACCESS:          0  dHIT:          0  dMISS:          0  itACCESS:          0  itHIT:          0  itMISS:          0  dtACCESS:          0  dtHIT:          0  dtMISS:          0
cpu0_DTLB PREFETCH     ACCESS:          0  HIT:          0  MISS:          0  iACCESS:          0  iHIT:          0  iMISS:          0  dACCESS:          0  dHIT:          0  dMISS:          0  itACCESS:          0  itHIT:          0  itMISS:          0  dtACCESS:          0  dtHIT:          0  dtMISS:          0
cpu0_DTLB WRITE        ACCESS:          0  HIT:          0  MISS:          0  iACCESS:          0  iHIT:          0  iMISS:          0  dACCESS:          0  dHIT:          0  dMISS:          0  itACCESS:          0  itHIT:          0  itMISS:          0  dtACCESS:          0  dtHIT:          0  dtMISS:          0
cpu0_DTLB TRANSLATION  ACCESS:          0  HIT:          0  MISS:          0  iACCESS:          0  iHIT:          0  iMISS:          0  dACCESS:          0  dHIT:          0  dMISS:          0  itACCESS:          0  itHIT:          0  itMISS:          0  dtACCESS:          0  dtHIT:          0  dtMISS:          0
cpu0_DTLB PREFETCH  REQUESTED:          0  ISSUED:          0  CROSSED:          0  USEFUL:          0  USELESS:          0
cpu0_DTLB AVERAGE iMISS LATENCY: 0 cycles
cpu0_DTLB AVERAGE dMISS LATENCY: 17.4775 cycles
cpu0_DTLB AVERAGE itMISS LATENCY: 0 cycles
cpu0_DTLB AVERAGE dtMISS LATENCY: 0 cycles
cpu0_DTLB PAGE CROSSINGS (TLB HIT):         0 
cpu0_DTLB PAGE CROSSINGS (TLB MISS):         0 
cpu0_DTLB AVERAGE MISS LATENCY: 17.4775 cycles
cpu0_STLB TOTAL       ACCESS:    3175896  HIT:    2825196  MISS:     350700  iACCESS:     463039  iHIT:     347762  iMISS:     115277  dACCESS:    2712857  dHIT:    2477434  dMISS:     235423  itACCESS:          0  itHIT:          0  itMISS:          0  dtACCESS:          0  dtHIT:          0  dtMISS:          0
cpu0_STLB LOAD         ACCESS:    3175896  HIT:    2825196  MISS:     350700  iACCESS:     463039  iHIT:     347762  iMISS:     115277  dACCESS:    2712857  dHIT:    2477434  dMISS:     235423  itACCESS:          0  itHIT:          0  itMISS:          0  dtACCESS:          0  dtHIT:          0  dtMISS:          0
cpu0_STLB RFO          ACCESS:          0  HIT:          0  MISS:          0  iACCESS:          0  iHIT:          0  iMISS:          0  dACCESS:          0  dHIT:          0  dMISS:          0  itACCESS:          0  itHIT:          0  itMISS:          0  dtACCESS:          0  dtHIT:          0  dtMISS:          0
cpu0_STLB PREFETCH     ACCESS:          0  HIT:          0  MISS:          0  iACCESS:          0  iHIT:          0  iMISS:          0  dACCESS:          0  dHIT:          0  dMISS:          0  itACCESS:          0  itHIT:          0  itMISS:          0  dtACCESS:          0  dtHIT:          0  dtMISS:          0
cpu0_STLB WRITE        ACCESS:          0  HIT:          0  MISS:          0  iACCESS:          0  iHIT:          0  iMISS:          0  dACCESS:          0  dHIT:          0  dMISS:          0  itACCESS:          0  itHIT:          0  itMISS:          0  dtACCESS:          0  dtHIT:          0  dtMISS:          0
cpu0_STLB TRANSLATION  ACCESS:          0  HIT:          0  MISS:          0  iACCESS:          0  iHIT:          0  iMISS:          0  dACCESS:          0  dHIT:          0  dMISS:          0  itACCESS:          0  itHIT:          0  itMISS:          0  dtACCESS:          0  dtHIT:          0  dtMISS:          0
cpu0_STLB PREFETCH  REQUESTED:          0  ISSUED:          0  CROSSED:          0  USEFUL:          0  USELESS:          0
cpu0_STLB AVERAGE iMISS LATENCY: 54.7603 cycles
cpu0_STLB AVERAGE dMISS LATENCY: 189.422 cycles
cpu0_STLB AVERAGE itMISS LATENCY: 0 cycles
cpu0_STLB AVERAGE dtMISS LATENCY: 0 cycles
cpu0_STLB PAGE CROSSINGS (TLB HIT):         0 
cpu0_STLB PAGE CROSSINGS (TLB MISS):         0 
cpu0_STLB AVERAGE MISS LATENCY: 244.183 cycles
cpu0_L1D TOTAL       ACCESS:   47251384  HIT:   39779724  MISS:    7471660  iACCESS:          0  iHIT:          0  iMISS:          0  dACCESS:   46735583  dHIT:   39749487  dMISS:    6986096  itACCESS:     128070  itHIT:      14655  itMISS:     113415  dtACCESS:     387731  dtHIT:      15582  dtMISS:     372149
cpu0_L1D LOAD         ACCESS:   21997452  HIT:   18250735  MISS:    3746717  iACCESS:          0  iHIT:          0  iMISS:          0  dACCESS:   21997452  dHIT:   18250735  dMISS:    3746717  itACCESS:          0  itHIT:          0  itMISS:          0  dtACCESS:          0  dtHIT:          0  dtMISS:          0
cpu0_L1D RFO          ACCESS:          0  HIT:          0  MISS:          0  iACCESS:          0  iHIT:          0  iMISS:          0  dACCESS:          0  dHIT:          0  dMISS:          0  itACCESS:          0  itHIT:          0  itMISS:          0  dtACCESS:          0  dtHIT:          0  dtMISS:          0
cpu0_L1D PREFETCH     ACCESS:   14653047  HIT:   12010126  MISS:    2642921  iACCESS:          0  iHIT:          0  iMISS:          0  dACCESS:   14653047  dHIT:   12010126  dMISS:    2642921  itACCESS:          0  itHIT:          0  itMISS:          0  dtACCESS:          0  dtHIT:          0  dtMISS:          0
cpu0_L1D WRITE        ACCESS:   10085084  HIT:    9488626  MISS:     596458  iACCESS:          0  iHIT:          0  iMISS:          0  dACCESS:   10085084  dHIT:    9488626  dMISS:     596458  itACCESS:          0  itHIT:          0  itMISS:          0  dtACCESS:          0  dtHIT:          0  dtMISS:          0
cpu0_L1D TRANSLATION  ACCESS:     515801  HIT:      30237  MISS:     485564  iACCESS:          0  iHIT:          0  iMISS:          0  dACCESS:          0  dHIT:          0  dMISS:          0  itACCESS:     128070  itHIT:      14655  itMISS:     113415  dtACCESS:     387731  dtHIT:      15582  dtMISS:     372149
cpu0_L1D PREFETCH  REQUESTED:   21997452  ISSUED:   18777323  CROSSED:          0  USEFUL:     344190  USELESS:    1001287
cpu0_L1D AVERAGE iMISS LATENCY: 0 cycles
cpu0_L1D AVERAGE dMISS LATENCY: 38.7215 cycles
cpu0_L1D AVERAGE itMISS LATENCY: 2.42512 cycles
cpu0_L1D AVERAGE dtMISS LATENCY: 8.32556 cycles
cpu0_L1D PAGE CROSSINGS (TLB HIT):         0 
cpu0_L1D PAGE CROSSINGS (TLB MISS):         0 
cpu0_L1D AVERAGE MISS LATENCY: 49.4722 cycles
cpu0_L2C TOTAL       ACCESS:    9551886  HIT:    5145427  MISS:    4406459  iACCESS:    3641632  iHIT:    2130104  iMISS:    1511528  dACCESS:    5459988  dHIT:    2958447  dMISS:    2501541  itACCESS:     113196  itHIT:      19761  itMISS:      93435  dtACCESS:     337070  dtHIT:      37115  dtMISS:     299955
cpu0_L2C LOAD         ACCESS:    3163162  HIT:    2040470  MISS:    1122692  iACCESS:     822047  iHIT:     505664  iMISS:     316383  dACCESS:    2341115  dHIT:    1534806  dMISS:     806309  itACCESS:          0  itHIT:          0  itMISS:          0  dtACCESS:          0  dtHIT:          0  dtMISS:          0
cpu0_L2C RFO          ACCESS:     239394  HIT:     106924  MISS:     132470  iACCESS:          0  iHIT:          0  iMISS:          0  dACCESS:     239394  dHIT:     106924  dMISS:     132470  itACCESS:          0  itHIT:          0  itMISS:          0  dtACCESS:          0  dtHIT:          0  dtMISS:          0
cpu0_L2C PREFETCH     ACCESS:    5362155  HIT:    2618575  MISS:    2743580  iACCESS:    2819585  iHIT:    1624440  iMISS:    1195145  dACCESS:    2542570  dHIT:     994135  dMISS:    1548435  itACCESS:          0  itHIT:          0  itMISS:          0  dtACCESS:          0  dtHIT:          0  dtMISS:          0
cpu0_L2C WRITE        ACCESS:     336909  HIT:     322582  MISS:      14327  iACCESS:          0  iHIT:          0  iMISS:          0  dACCESS:     336909  dHIT:     322582  dMISS:      14327  itACCESS:          0  itHIT:          0  itMISS:          0  dtACCESS:          0  dtHIT:          0  dtMISS:          0
cpu0_L2C TRANSLATION  ACCESS:     450266  HIT:      56876  MISS:     393390  iACCESS:          0  iHIT:          0  iMISS:          0  dACCESS:          0  dHIT:          0  dMISS:          0  itACCESS:     113196  itHIT:      19761  itMISS:      93435  dtACCESS:     337070  dtHIT:      37115  dtMISS:     299955
cpu0_L2C PREFETCH  REQUESTED:    1414288  ISSUED:    1414286  CROSSED:          0  USEFUL:     329499  USELESS:     312156
cpu0_L2C AVERAGE iMISS LATENCY: 40.3722 cycles
cpu0_L2C AVERAGE dMISS LATENCY: 76.7558 cycles
cpu0_L2C AVERAGE itMISS LATENCY: 3.85894 cycles
cpu0_L2C AVERAGE dtMISS LATENCY: 13.3563 cycles
cpu0_L2C PAGE CROSSINGS (TLB HIT):         0 
cpu0_L2C PAGE CROSSINGS (TLB MISS):         0 
cpu0_L2C AVERAGE MISS LATENCY: 134.344 cycles
LLC TOTAL       ACCESS:    4390095  HIT:    1429591  MISS:    2960504  iACCESS:    1429451  iHIT:     487025  iMISS:     942426  dACCESS:    2567254  dHIT:     905429  dMISS:    1661825  itACCESS:      93435  itHIT:       8804  itMISS:      84631  dtACCESS:     299955  dtHIT:      28333  dtMISS:     271622
LLC LOAD         ACCESS:    1115564  HIT:     429759  MISS:     685805  iACCESS:     315376  iHIT:     116296  iMISS:     199080  dACCESS:     800188  dHIT:     313463  dMISS:     486725  itACCESS:          0  itHIT:          0  itMISS:          0  dtACCESS:          0  dtHIT:          0  dtMISS:          0
LLC RFO          ACCESS:     132469  HIT:      40061  MISS:      92408  iACCESS:          0  iHIT:          0  iMISS:          0  dACCESS:     132469  dHIT:      40061  dMISS:      92408  itACCESS:          0  itHIT:          0  itMISS:          0  dtACCESS:          0  dtHIT:          0  dtMISS:          0
LLC PREFETCH     ACCESS:    2549586  HIT:     732900  MISS:    1816686  iACCESS:    1114075  iHIT:     370729  iMISS:     743346  dACCESS:    1435511  dHIT:     362171  dMISS:    1073340  itACCESS:          0  itHIT:          0  itMISS:          0  dtACCESS:          0  dtHIT:          0  dtMISS:          0
LLC WRITE        ACCESS:     199086  HIT:     189734  MISS:       9352  iACCESS:          0  iHIT:          0  iMISS:          0  dACCESS:     199086  dHIT:     189734  dMISS:       9352  itACCESS:          0  itHIT:          0  itMISS:          0  dtACCESS:          0  dtHIT:          0  dtMISS:          0
LLC TRANSLATION  ACCESS:     393390  HIT:      37137  MISS:     356253  iACCESS:          0  iHIT:          0  iMISS:          0  dACCESS:          0  dHIT:          0  dMISS:          0  itACCESS:      93435  itHIT:       8804  itMISS:      84631  dtACCESS:     299955  dtHIT:      28333  dtMISS:     271622
LLC PREFETCH  REQUESTED:          0  ISSUED:          0  CROSSED:          0  USEFUL:          0  USELESS:          0
LLC AVERAGE iMISS LATENCY: 50.5926 cycles
LLC AVERAGE dMISS LATENCY: 99.2653 cycles
LLC AVERAGE itMISS LATENCY: 5.11824 cycles
LLC AVERAGE dtMISS LATENCY: 17.876 cycles
LLC PAGE CROSSINGS (TLB HIT):         0 
LLC PAGE CROSSINGS (TLB MISS):         0 
LLC AVERAGE MISS LATENCY: 172.852 cycles

PageTableWalker TOTAL       ACCESS:     169906  
PageTableWalker AVERAGE LATENCY: 6.39673 cycles
PageTableWalker TOTAL LATENCY: 1086842 cycles

DRAM Statistics
Channel 0
 RQ ROW_BUFFER_HIT:     605889
  ROW_BUFFER_MISS:    2328238
 AVG DBUS CONGESTED CYCLE:    3.65187
 WQ ROW_BUFFER_HIT:      62820
  ROW_BUFFER_MISS:      55572  FULL:          0

