last_page:0x200000000000000
VMEM_RES_CAP:0x100000
PAGE_SIZE:4096
LOG2_PAGE_SIZE:12
LOG2_PAGE_TABLE_SIZE:9
page_table_levels:5
WARNING: physical memory size is smaller than virtual memory size
FDiP enabled with aggresivity 16

*** ChampSim Multicore Out-of-Order Simulator ***

Warmup Instructions: 50000000
Simulation Instructions: 100000000
Number of CPUs: 1
Small page size: 4096
Large page size: 2097152

CPU 0 Bimodal branch predictor
Basic BTB sets: 1024 ways: 8 indirect buffer size: 4096 RAS size: 64
Instruction page size distrubution: 0
Loading instruction page size distribution from /home/bsc/bsc018186/scratch/itp_asplos25_AE/dump/smt_srv12_ap_srv582_ap_1024i.pdst
Data page size distrubution: 0
Loading data page size distribution from /home/bsc/bsc018186/scratch/itp_asplos25_AE/dump/smt_srv12_ap_srv582_ap_1024i.pdst
cpu0_L2C IP-based stride prefetcher
cpu0_L1D next line prefetcher
cpu0_STLB using iTP with max lru@8
cpu0_STLB using iTP with instr@0 and data@2
Init sat counter with 3 bits (max:50).
cpu0_L1I next line prefetcher
Off-chip DRAM Size: 4 GiB Channels: 1 Width: 64-bit Data Rate: 3200 MT/s
Heartbeat CPU 0 instructions: 10000003 cycles: 2500263 heartbeat IPC: 3.99959 cumulative IPC: 3.99959 (Simulation time: 0 hr 0 min 39 sec) 
Heartbeat CPU 0 instructions: 20000001 cycles: 5000450 heartbeat IPC: 3.99971 cumulative IPC: 3.99965 (Simulation time: 0 hr 1 min 20 sec) 
Heartbeat CPU 0 instructions: 30000002 cycles: 7500981 heartbeat IPC: 3.99916 cumulative IPC: 3.99948 (Simulation time: 0 hr 2 min 2 sec) 
Heartbeat CPU 0 instructions: 40000001 cycles: 10001042 heartbeat IPC: 3.99991 cumulative IPC: 3.99959 (Simulation time: 0 hr 2 min 44 sec) 
Heartbeat CPU 0 instructions: 50000002 cycles: 12501169 heartbeat IPC: 3.9998 cumulative IPC: 3.99963 (Simulation time: 0 hr 3 min 26 sec) 
Warmup finished CPU 0 instructions: 50000002 cycles: 12501170 cumulative IPC: 3.99963 (Simulation time: 0 hr 3 min 26 sec) 

Warmup complete CPU 0 instructions: 50000002 cycles: 12501170 (Simulation time: 0 hr 3 min 26 sec) 

Heartbeat CPU 0 instructions: 60000002 cycles: 44010622 heartbeat IPC: 0.317366 cumulative IPC: 0.317366 (Simulation time: 0 hr 4 min 54 sec) 
Heartbeat CPU 0 instructions: 70000000 cycles: 75533009 heartbeat IPC: 0.317235 cumulative IPC: 0.3173 (Simulation time: 0 hr 6 min 22 sec) 
Heartbeat CPU 0 instructions: 80000001 cycles: 106301731 heartbeat IPC: 0.325006 cumulative IPC: 0.319828 (Simulation time: 0 hr 7 min 49 sec) 
Heartbeat CPU 0 instructions: 90000000 cycles: 134307358 heartbeat IPC: 0.357072 cumulative IPC: 0.328391 (Simulation time: 0 hr 9 min 11 sec) 
Heartbeat CPU 0 instructions: 100000000 cycles: 165619562 heartbeat IPC: 0.319365 cumulative IPC: 0.326545 (Simulation time: 0 hr 10 min 39 sec) 
Heartbeat CPU 0 instructions: 110000003 cycles: 196130779 heartbeat IPC: 0.327749 cumulative IPC: 0.326745 (Simulation time: 0 hr 12 min 5 sec) 
Heartbeat CPU 0 instructions: 120000002 cycles: 226937164 heartbeat IPC: 0.324608 cumulative IPC: 0.326438 (Simulation time: 0 hr 13 min 32 sec) 
Heartbeat CPU 0 instructions: 130000000 cycles: 258290935 heartbeat IPC: 0.318941 cumulative IPC: 0.325482 (Simulation time: 0 hr 14 min 58 sec) 
Heartbeat CPU 0 instructions: 140000000 cycles: 289597382 heartbeat IPC: 0.319424 cumulative IPC: 0.324797 (Simulation time: 0 hr 16 min 23 sec) 
Heartbeat CPU 0 instructions: 150000002 cycles: 320223069 heartbeat IPC: 0.326524 cumulative IPC: 0.324969 (Simulation time: 0 hr 17 min 47 sec) 
Simulation finished CPU 0 instructions: 100000000 cycles: 307721900 cumulative IPC: 0.324969 (Simulation time: 0 hr 17 min 47 sec) 

Simulation complete CPU 0 instructions: 100000000 cycles: 307721900 (Simulation time: 0 hr 17 min 47 sec) 


ChampSim completed all CPUs

Saving instructions large page distribution to /home/bsc/bsc018186/scratch/itp_asplos25_AE/dump/smt_srv12_ap_srv582_ap_1024i.pdst...
Saving data large page distribution to /home/bsc/bsc018186/scratch/itp_asplos25_AE/dump/smt_srv12_ap_srv582_ap_1024i.pdst...
=== Simulation ===
CPU 0 runs /gpfs/projects/bsc18/MN4/bsc18/romol/ChampSim/traces/qualcomm_srv/smt_srv12_ap_srv582_ap_1024i.champsimtrace.xz

Region of Interest Statistics

CPU 0 cumulative IPC: 0.324969 instructions: 100000000 cycles: 307721900
CPU 0 Branch Prediction Accuracy: 74.5831% MPKI: 46.0686 Average ROB Occupancy at Mispredict: 10.6162
Branch type MPKI
BRANCH_DIRECT_JUMP: 1.46674
BRANCH_INDIRECT: 23.5041
BRANCH_CONDITIONAL: 13.5505
BRANCH_DIRECT_CALL: 2.81826
BRANCH_INDIRECT_CALL: 1.14928
BRANCH_RETURN: 3.57979

Instructions large pages: 0
Instructions small pages: 11403
Large page distribution for instructions: 0%

Data large pages: 0
Data small pages: 9565
Large page distribution for data: 0%

cpu0_L1I TOTAL       ACCESS:   39377526  HIT:   30658363  MISS:    8719163  iACCESS:   39377526  iHIT:   30658363  iMISS:    8719163  dACCESS:          0  dHIT:          0  dMISS:          0  itACCESS:          0  itHIT:          0  itMISS:          0  dtACCESS:          0  dtHIT:          0  dtMISS:          0
cpu0_L1I LOAD         ACCESS:   11728873  HIT:    9362783  MISS:    2366090  iACCESS:   11728873  iHIT:    9362783  iMISS:    2366090  dACCESS:          0  dHIT:          0  dMISS:          0  itACCESS:          0  itHIT:          0  itMISS:          0  dtACCESS:          0  dtHIT:          0  dtMISS:          0
cpu0_L1I RFO          ACCESS:          0  HIT:          0  MISS:          0  iACCESS:          0  iHIT:          0  iMISS:          0  dACCESS:          0  dHIT:          0  dMISS:          0  itACCESS:          0  itHIT:          0  itMISS:          0  dtACCESS:          0  dtHIT:          0  dtMISS:          0
cpu0_L1I PREFETCH     ACCESS:   27648653  HIT:   21295580  MISS:    6353073  iACCESS:   27648653  iHIT:   21295580  iMISS:    6353073  dACCESS:          0  dHIT:          0  dMISS:          0  itACCESS:          0  itHIT:          0  itMISS:          0  dtACCESS:          0  dtHIT:          0  dtMISS:          0
cpu0_L1I WRITE        ACCESS:          0  HIT:          0  MISS:          0  iACCESS:          0  iHIT:          0  iMISS:          0  dACCESS:          0  dHIT:          0  dMISS:          0  itACCESS:          0  itHIT:          0  itMISS:          0  dtACCESS:          0  dtHIT:          0  dtMISS:          0
cpu0_L1I TRANSLATION  ACCESS:          0  HIT:          0  MISS:          0  iACCESS:          0  iHIT:          0  iMISS:          0  dACCESS:          0  dHIT:          0  dMISS:          0  itACCESS:          0  itHIT:          0  itMISS:          0  dtACCESS:          0  dtHIT:          0  dtMISS:          0
cpu0_L1I PREFETCH  REQUESTED:   30428947  ISSUED:   30428749  CROSSED:          0  USEFUL:    2224454  USELESS:     779601
cpu0_L1I AVERAGE iMISS LATENCY: 25.3801 cycles
cpu0_L1I AVERAGE dMISS LATENCY: 0 cycles
cpu0_L1I AVERAGE itMISS LATENCY: 0 cycles
cpu0_L1I AVERAGE dtMISS LATENCY: 0 cycles
cpu0_L1I PAGE CROSSINGS (TLB HIT):         0 
cpu0_L1I PAGE CROSSINGS (TLB MISS):         0 
cpu0_L1I AVERAGE MISS LATENCY: 25.3801 cycles
cpu0_ITLB TOTAL       ACCESS:   33424862  HIT:   31167533  MISS:    2257329  iACCESS:   33424862  iHIT:   31167533  iMISS:    2257329  dACCESS:          0  dHIT:          0  dMISS:          0  itACCESS:          0  itHIT:          0  itMISS:          0  dtACCESS:          0  dtHIT:          0  dtMISS:          0
cpu0_ITLB LOAD         ACCESS:   33424862  HIT:   31167533  MISS:    2257329  iACCESS:   33424862  iHIT:   31167533  iMISS:    2257329  dACCESS:          0  dHIT:          0  dMISS:          0  itACCESS:          0  itHIT:          0  itMISS:          0  dtACCESS:          0  dtHIT:          0  dtMISS:          0
cpu0_ITLB RFO          ACCESS:          0  HIT:          0  MISS:          0  iACCESS:          0  iHIT:          0  iMISS:          0  dACCESS:          0  dHIT:          0  dMISS:          0  itACCESS:          0  itHIT:          0  itMISS:          0  dtACCESS:          0  dtHIT:          0  dtMISS:          0
cpu0_ITLB PREFETCH     ACCESS:          0  HIT:          0  MISS:          0  iACCESS:          0  iHIT:          0  iMISS:          0  dACCESS:          0  dHIT:          0  dMISS:          0  itACCESS:          0  itHIT:          0  itMISS:          0  dtACCESS:          0  dtHIT:          0  dtMISS:          0
cpu0_ITLB WRITE        ACCESS:          0  HIT:          0  MISS:          0  iACCESS:          0  iHIT:          0  iMISS:          0  dACCESS:          0  dHIT:          0  dMISS:          0  itACCESS:          0  itHIT:          0  itMISS:          0  dtACCESS:          0  dtHIT:          0  dtMISS:          0
cpu0_ITLB TRANSLATION  ACCESS:          0  HIT:          0  MISS:          0  iACCESS:          0  iHIT:          0  iMISS:          0  dACCESS:          0  dHIT:          0  dMISS:          0  itACCESS:          0  itHIT:          0  itMISS:          0  dtACCESS:          0  dtHIT:          0  dtMISS:          0
cpu0_ITLB PREFETCH  REQUESTED:          0  ISSUED:          0  CROSSED:          0  USEFUL:     398515  USELESS:      81769
cpu0_ITLB AVERAGE iMISS LATENCY: 7.12921 cycles
cpu0_ITLB AVERAGE dMISS LATENCY: 0 cycles
cpu0_ITLB AVERAGE itMISS LATENCY: 0 cycles
cpu0_ITLB AVERAGE dtMISS LATENCY: 0 cycles
cpu0_ITLB PAGE CROSSINGS (TLB HIT):         0 
cpu0_ITLB PAGE CROSSINGS (TLB MISS):         0 
cpu0_ITLB AVERAGE MISS LATENCY: 7.12921 cycles
cpu0_DTLB TOTAL       ACCESS:   28979209  HIT:   25461914  MISS:    3517295  iACCESS:          0  iHIT:          0  iMISS:          0  dACCESS:   28979209  dHIT:   25461914  dMISS:    3517295  itACCESS:          0  itHIT:          0  itMISS:          0  dtACCESS:          0  dtHIT:          0  dtMISS:          0
cpu0_DTLB LOAD         ACCESS:   28979209  HIT:   25461914  MISS:    3517295  iACCESS:          0  iHIT:          0  iMISS:          0  dACCESS:   28979209  dHIT:   25461914  dMISS:    3517295  itACCESS:          0  itHIT:          0  itMISS:          0  dtACCESS:          0  dtHIT:          0  dtMISS:          0
cpu0_DTLB RFO          ACCESS:          0  HIT:          0  MISS:          0  iACCESS:          0  iHIT:          0  iMISS:          0  dACCESS:          0  dHIT:          0  dMISS:          0  itACCESS:          0  itHIT:          0  itMISS:          0  dtACCESS:          0  dtHIT:          0  dtMISS:          0
cpu0_DTLB PREFETCH     ACCESS:          0  HIT:          0  MISS:          0  iACCESS:          0  iHIT:          0  iMISS:          0  dACCESS:          0  dHIT:          0  dMISS:          0  itACCESS:          0  itHIT:          0  itMISS:          0  dtACCESS:          0  dtHIT:          0  dtMISS:          0
cpu0_DTLB WRITE        ACCESS:          0  HIT:          0  MISS:          0  iACCESS:          0  iHIT:          0  iMISS:          0  dACCESS:          0  dHIT:          0  dMISS:          0  itACCESS:          0  itHIT:          0  itMISS:          0  dtACCESS:          0  dtHIT:          0  dtMISS:          0
cpu0_DTLB TRANSLATION  ACCESS:          0  HIT:          0  MISS:          0  iACCESS:          0  iHIT:          0  iMISS:          0  dACCESS:          0  dHIT:          0  dMISS:          0  itACCESS:          0  itHIT:          0  itMISS:          0  dtACCESS:          0  dtHIT:          0  dtMISS:          0
cpu0_DTLB PREFETCH  REQUESTED:          0  ISSUED:          0  CROSSED:          0  USEFUL:          0  USELESS:          0
cpu0_DTLB AVERAGE iMISS LATENCY: 0 cycles
cpu0_DTLB AVERAGE dMISS LATENCY: 28.805 cycles
cpu0_DTLB AVERAGE itMISS LATENCY: 0 cycles
cpu0_DTLB AVERAGE dtMISS LATENCY: 0 cycles
cpu0_DTLB PAGE CROSSINGS (TLB HIT):         0 
cpu0_DTLB PAGE CROSSINGS (TLB MISS):         0 
cpu0_DTLB AVERAGE MISS LATENCY: 28.805 cycles
cpu0_STLB TOTAL       ACCESS:    2542712  HIT:    2165868  MISS:     376844  iACCESS:     480287  iHIT:     417550  iMISS:      62737  dACCESS:    2062425  dHIT:    1748318  dMISS:     314107  itACCESS:          0  itHIT:          0  itMISS:          0  dtACCESS:          0  dtHIT:          0  dtMISS:          0
cpu0_STLB LOAD         ACCESS:    2542712  HIT:    2165868  MISS:     376844  iACCESS:     480287  iHIT:     417550  iMISS:      62737  dACCESS:    2062425  dHIT:    1748318  dMISS:     314107  itACCESS:          0  itHIT:          0  itMISS:          0  dtACCESS:          0  dtHIT:          0  dtMISS:          0
cpu0_STLB RFO          ACCESS:          0  HIT:          0  MISS:          0  iACCESS:          0  iHIT:          0  iMISS:          0  dACCESS:          0  dHIT:          0  dMISS:          0  itACCESS:          0  itHIT:          0  itMISS:          0  dtACCESS:          0  dtHIT:          0  dtMISS:          0
cpu0_STLB PREFETCH     ACCESS:          0  HIT:          0  MISS:          0  iACCESS:          0  iHIT:          0  iMISS:          0  dACCESS:          0  dHIT:          0  dMISS:          0  itACCESS:          0  itHIT:          0  itMISS:          0  dtACCESS:          0  dtHIT:          0  dtMISS:          0
cpu0_STLB WRITE        ACCESS:          0  HIT:          0  MISS:          0  iACCESS:          0  iHIT:          0  iMISS:          0  dACCESS:          0  dHIT:          0  dMISS:          0  itACCESS:          0  itHIT:          0  itMISS:          0  dtACCESS:          0  dtHIT:          0  dtMISS:          0
cpu0_STLB TRANSLATION  ACCESS:          0  HIT:          0  MISS:          0  iACCESS:          0  iHIT:          0  iMISS:          0  dACCESS:          0  dHIT:          0  dMISS:          0  itACCESS:          0  itHIT:          0  itMISS:          0  dtACCESS:          0  dtHIT:          0  dtMISS:          0
cpu0_STLB PREFETCH  REQUESTED:          0  ISSUED:          0  CROSSED:          0  USEFUL:          0  USELESS:          0
cpu0_STLB AVERAGE iMISS LATENCY: 32.6699 cycles
cpu0_STLB AVERAGE dMISS LATENCY: 224.646 cycles
cpu0_STLB AVERAGE itMISS LATENCY: 0 cycles
cpu0_STLB AVERAGE dtMISS LATENCY: 0 cycles
cpu0_STLB PAGE CROSSINGS (TLB HIT):         0 
cpu0_STLB PAGE CROSSINGS (TLB MISS):         0 
cpu0_STLB AVERAGE MISS LATENCY: 257.316 cycles
cpu0_L1D TOTAL       ACCESS:   44986404  HIT:   39335109  MISS:    5651295  iACCESS:          0  iHIT:          0  iMISS:          0  dACCESS:   44405593  dHIT:   39306295  dMISS:    5099298  itACCESS:      73501  itHIT:       5843  itMISS:      67658  dtACCESS:     507310  dtHIT:      22971  dtMISS:     484339
cpu0_L1D LOAD         ACCESS:   20286297  HIT:   18010488  MISS:    2275809  iACCESS:          0  iHIT:          0  iMISS:          0  dACCESS:   20286297  dHIT:   18010488  dMISS:    2275809  itACCESS:          0  itHIT:          0  itMISS:          0  dtACCESS:          0  dtHIT:          0  dtMISS:          0
cpu0_L1D RFO          ACCESS:          0  HIT:          0  MISS:          0  iACCESS:          0  iHIT:          0  iMISS:          0  dACCESS:          0  dHIT:          0  dMISS:          0  itACCESS:          0  itHIT:          0  itMISS:          0  dtACCESS:          0  dtHIT:          0  dtMISS:          0
cpu0_L1D PREFETCH     ACCESS:   13942302  HIT:   11696897  MISS:    2245405  iACCESS:          0  iHIT:          0  iMISS:          0  dACCESS:   13942302  dHIT:   11696897  dMISS:    2245405  itACCESS:          0  itHIT:          0  itMISS:          0  dtACCESS:          0  dtHIT:          0  dtMISS:          0
cpu0_L1D WRITE        ACCESS:   10176994  HIT:    9598910  MISS:     578084  iACCESS:          0  iHIT:          0  iMISS:          0  dACCESS:   10176994  dHIT:    9598910  dMISS:     578084  itACCESS:          0  itHIT:          0  itMISS:          0  dtACCESS:          0  dtHIT:          0  dtMISS:          0
cpu0_L1D TRANSLATION  ACCESS:     580811  HIT:      28814  MISS:     551997  iACCESS:          0  iHIT:          0  iMISS:          0  dACCESS:          0  dHIT:          0  dMISS:          0  itACCESS:      73501  itHIT:       5843  itMISS:      67658  dtACCESS:     507310  dtHIT:      22971  dtMISS:     484339
cpu0_L1D PREFETCH  REQUESTED:   20286297  ISSUED:   18547704  CROSSED:          0  USEFUL:     361786  USELESS:     933638
cpu0_L1D AVERAGE iMISS LATENCY: 0 cycles
cpu0_L1D AVERAGE dMISS LATENCY: 50.9672 cycles
cpu0_L1D AVERAGE itMISS LATENCY: 2.04847 cycles
cpu0_L1D AVERAGE dtMISS LATENCY: 14.0219 cycles
cpu0_L1D PAGE CROSSINGS (TLB HIT):         0 
cpu0_L1D PAGE CROSSINGS (TLB MISS):         0 
cpu0_L1D AVERAGE MISS LATENCY: 67.0374 cycles
cpu0_L2C TOTAL       ACCESS:    8703617  HIT:    4175763  MISS:    4527854  iACCESS:    3816706  iHIT:    2282897  iMISS:    1533809  dACCESS:    4370012  dHIT:    1826230  dMISS:    2543782  itACCESS:      67215  itHIT:       9441  itMISS:      57774  dtACCESS:     449684  dtHIT:      57195  dtMISS:     392489
cpu0_L2C LOAD         ACCESS:    2058760  HIT:    1001234  MISS:    1057526  iACCESS:     849814  iHIT:     532581  iMISS:     317233  dACCESS:    1208946  dHIT:     468653  dMISS:     740293  itACCESS:          0  itHIT:          0  itMISS:          0  dtACCESS:          0  dtHIT:          0  dtMISS:          0
cpu0_L2C RFO          ACCESS:     215888  HIT:      80970  MISS:     134918  iACCESS:          0  iHIT:          0  iMISS:          0  dACCESS:     215888  dHIT:      80970  dMISS:     134918  itACCESS:          0  itHIT:          0  itMISS:          0  dtACCESS:          0  dtHIT:          0  dtMISS:          0
cpu0_L2C PREFETCH     ACCESS:    5571811  HIT:    2690460  MISS:    2881351  iACCESS:    2966892  iHIT:    1750316  iMISS:    1216576  dACCESS:    2604919  dHIT:     940144  dMISS:    1664775  itACCESS:          0  itHIT:          0  itMISS:          0  dtACCESS:          0  dtHIT:          0  dtMISS:          0
cpu0_L2C WRITE        ACCESS:     340259  HIT:     336463  MISS:       3796  iACCESS:          0  iHIT:          0  iMISS:          0  dACCESS:     340259  dHIT:     336463  dMISS:       3796  itACCESS:          0  itHIT:          0  itMISS:          0  dtACCESS:          0  dtHIT:          0  dtMISS:          0
cpu0_L2C TRANSLATION  ACCESS:     516899  HIT:      66636  MISS:     450263  iACCESS:          0  iHIT:          0  iMISS:          0  dACCESS:          0  dHIT:          0  dMISS:          0  itACCESS:      67215  itHIT:       9441  itMISS:      57774  dtACCESS:     449684  dtHIT:      57195  dtMISS:     392489
cpu0_L2C PREFETCH  REQUESTED:    1547005  ISSUED:    1547000  CROSSED:          0  USEFUL:     363758  USELESS:     334686
cpu0_L2C AVERAGE iMISS LATENCY: 41.9247 cycles
cpu0_L2C AVERAGE dMISS LATENCY: 79.7948 cycles
cpu0_L2C AVERAGE itMISS LATENCY: 2.4099 cycles
cpu0_L2C AVERAGE dtMISS LATENCY: 16.5147 cycles
cpu0_L2C PAGE CROSSINGS (TLB HIT):         0 
cpu0_L2C PAGE CROSSINGS (TLB MISS):         0 
cpu0_L2C AVERAGE MISS LATENCY: 140.644 cycles
LLC TOTAL       ACCESS:    4509604  HIT:    1288462  MISS:    3221142  iACCESS:    1442098  iHIT:     420878  iMISS:    1021220  dACCESS:    2617243  dHIT:     817305  dMISS:    1799938  itACCESS:      57774  itHIT:       3408  itMISS:      54366  dtACCESS:     392489  dtHIT:      46871  dtMISS:     345618
LLC LOAD         ACCESS:    1050567  HIT:     317140  MISS:     733427  iACCESS:     316142  iHIT:     100306  iMISS:     215836  dACCESS:     734425  dHIT:     216834  dMISS:     517591  itACCESS:          0  itHIT:          0  itMISS:          0  dtACCESS:          0  dtHIT:          0  dtMISS:          0
LLC RFO          ACCESS:     134910  HIT:      38908  MISS:      96002  iACCESS:          0  iHIT:          0  iMISS:          0  dACCESS:     134910  dHIT:      38908  dMISS:      96002  itACCESS:          0  itHIT:          0  itMISS:          0  dtACCESS:          0  dtHIT:          0  dtMISS:          0
LLC PREFETCH     ACCESS:    2664652  HIT:     683768  MISS:    1980884  iACCESS:    1125956  iHIT:     320572  iMISS:     805384  dACCESS:    1538696  dHIT:     363196  dMISS:    1175500  itACCESS:          0  itHIT:          0  itMISS:          0  dtACCESS:          0  dtHIT:          0  dtMISS:          0
LLC WRITE        ACCESS:     209212  HIT:     198367  MISS:      10845  iACCESS:          0  iHIT:          0  iMISS:          0  dACCESS:     209212  dHIT:     198367  dMISS:      10845  itACCESS:          0  itHIT:          0  itMISS:          0  dtACCESS:          0  dtHIT:          0  dtMISS:          0
LLC TRANSLATION  ACCESS:     450263  HIT:      50279  MISS:     399984  iACCESS:          0  iHIT:          0  iMISS:          0  dACCESS:          0  dHIT:          0  dMISS:          0  itACCESS:      57774  itHIT:       3408  itMISS:      54366  dtACCESS:     392489  dtHIT:      46871  dtMISS:     345618
LLC PREFETCH  REQUESTED:          0  ISSUED:          0  CROSSED:          0  USEFUL:          0  USELESS:          0
LLC AVERAGE iMISS LATENCY: 50.113 cycles
LLC AVERAGE dMISS LATENCY: 98.211 cycles
LLC AVERAGE itMISS LATENCY: 3.03155 cycles
LLC AVERAGE dtMISS LATENCY: 20.8063 cycles
LLC PAGE CROSSINGS (TLB HIT):         0 
LLC PAGE CROSSINGS (TLB MISS):         0 
LLC AVERAGE MISS LATENCY: 172.162 cycles

PageTableWalker TOTAL       ACCESS:     182126  
PageTableWalker AVERAGE LATENCY: 6.83056 cycles
PageTableWalker TOTAL LATENCY: 1244022 cycles

DRAM Statistics
Channel 0
 RQ ROW_BUFFER_HIT:     700293
  ROW_BUFFER_MISS:    2492076
 AVG DBUS CONGESTED CYCLE:     3.6506
 WQ ROW_BUFFER_HIT:      67595
  ROW_BUFFER_MISS:      55327  FULL:          0

