last_page:0x200000000000000
VMEM_RES_CAP:0x100000
PAGE_SIZE:4096
LOG2_PAGE_SIZE:12
LOG2_PAGE_TABLE_SIZE:9
page_table_levels:5
WARNING: physical memory size is smaller than virtual memory size
FDiP enabled with aggresivity 16

*** ChampSim Multicore Out-of-Order Simulator ***

Warmup Instructions: 50000000
Simulation Instructions: 100000000
Number of CPUs: 1
Small page size: 4096
Large page size: 2097152

CPU 0 Bimodal branch predictor
Basic BTB sets: 1024 ways: 8 indirect buffer size: 4096 RAS size: 64
Instruction page size distrubution: 0
Loading instruction page size distribution from /home/bsc/bsc018186/scratch/itp_asplos25_AE/dump/smt_srv207_ap_srv526_ap_1024i.pdst
Data page size distrubution: 0
Loading data page size distribution from /home/bsc/bsc018186/scratch/itp_asplos25_AE/dump/smt_srv207_ap_srv526_ap_1024i.pdst
cpu0_L2C IP-based stride prefetcher
cpu0_L2C is using xPTP/LRU
	TLB_LOWER_STRESS_THRESHOLD:1
	TLB_UPPER_STRESS_THRESHOLD:4
	MIN_EVICTION_POSITION:4
cpu0_L1D next line prefetcher
cpu0_STLB using iTP with max lru@8
cpu0_STLB using iTP with instr@0 and data@2
Init sat counter with 3 bits (max:50).
cpu0_L1I next line prefetcher
Off-chip DRAM Size: 4 GiB Channels: 1 Width: 64-bit Data Rate: 3200 MT/s
Heartbeat CPU 0 instructions: 10000000 cycles: 2500376 heartbeat IPC: 3.9994 cumulative IPC: 3.9994 (Simulation time: 0 hr 0 min 41 sec) 
Heartbeat CPU 0 instructions: 20000000 cycles: 5000640 heartbeat IPC: 3.99958 cumulative IPC: 3.99949 (Simulation time: 0 hr 1 min 24 sec) 
Heartbeat CPU 0 instructions: 30000003 cycles: 7589376 heartbeat IPC: 3.8629 cumulative IPC: 3.9529 (Simulation time: 0 hr 2 min 8 sec) 
Heartbeat CPU 0 instructions: 40000002 cycles: 10140820 heartbeat IPC: 3.91935 cumulative IPC: 3.94446 (Simulation time: 0 hr 2 min 53 sec) 
Heartbeat CPU 0 instructions: 50000000 cycles: 12667425 heartbeat IPC: 3.95788 cumulative IPC: 3.94714 (Simulation time: 0 hr 3 min 38 sec) 
Warmup finished CPU 0 instructions: 50000000 cycles: 12667426 cumulative IPC: 3.94714 (Simulation time: 0 hr 3 min 38 sec) 

Warmup complete CPU 0 instructions: 50000000 cycles: 12667426 (Simulation time: 0 hr 3 min 38 sec) 

Heartbeat CPU 0 instructions: 60000003 cycles: 39816586 heartbeat IPC: 0.368336 cumulative IPC: 0.368336 (Simulation time: 0 hr 5 min 3 sec) 
Heartbeat CPU 0 instructions: 70000004 cycles: 67470916 heartbeat IPC: 0.361608 cumulative IPC: 0.364941 (Simulation time: 0 hr 6 min 28 sec) 
Heartbeat CPU 0 instructions: 80000002 cycles: 95622000 heartbeat IPC: 0.355227 cumulative IPC: 0.361644 (Simulation time: 0 hr 7 min 52 sec) 
Heartbeat CPU 0 instructions: 90000003 cycles: 123006877 heartbeat IPC: 0.365166 cumulative IPC: 0.362518 (Simulation time: 0 hr 9 min 12 sec) 
Heartbeat CPU 0 instructions: 100000000 cycles: 150413099 heartbeat IPC: 0.364881 cumulative IPC: 0.362988 (Simulation time: 0 hr 10 min 32 sec) 
Heartbeat CPU 0 instructions: 110000000 cycles: 177756029 heartbeat IPC: 0.365726 cumulative IPC: 0.363442 (Simulation time: 0 hr 11 min 53 sec) 
Heartbeat CPU 0 instructions: 120000000 cycles: 204356705 heartbeat IPC: 0.375931 cumulative IPC: 0.365175 (Simulation time: 0 hr 13 min 12 sec) 
Heartbeat CPU 0 instructions: 130000002 cycles: 231045874 heartbeat IPC: 0.374684 cumulative IPC: 0.366337 (Simulation time: 0 hr 14 min 31 sec) 
Heartbeat CPU 0 instructions: 140000002 cycles: 259758380 heartbeat IPC: 0.348281 cumulative IPC: 0.364239 (Simulation time: 0 hr 15 min 54 sec) 
Heartbeat CPU 0 instructions: 150000003 cycles: 287688776 heartbeat IPC: 0.358033 cumulative IPC: 0.363609 (Simulation time: 0 hr 17 min 15 sec) 
Simulation finished CPU 0 instructions: 100000003 cycles: 275021351 cumulative IPC: 0.363609 (Simulation time: 0 hr 17 min 15 sec) 

Simulation complete CPU 0 instructions: 100000003 cycles: 275021351 (Simulation time: 0 hr 17 min 15 sec) 


ChampSim completed all CPUs

Saving instructions large page distribution to /home/bsc/bsc018186/scratch/itp_asplos25_AE/dump/smt_srv207_ap_srv526_ap_1024i.pdst...
Saving data large page distribution to /home/bsc/bsc018186/scratch/itp_asplos25_AE/dump/smt_srv207_ap_srv526_ap_1024i.pdst...
=== Simulation ===
CPU 0 runs /gpfs/projects/bsc18/MN4/bsc18/romol/ChampSim/traces/qualcomm_srv/smt_srv207_ap_srv526_ap_1024i.champsimtrace.xz

Region of Interest Statistics

CPU 0 cumulative IPC: 0.363609 instructions: 100000003 cycles: 275021351
CPU 0 Branch Prediction Accuracy: 75.1657% MPKI: 44.6877 Average ROB Occupancy at Mispredict: 10.9868
Branch type MPKI
BRANCH_DIRECT_JUMP: 1.463
BRANCH_INDIRECT: 23.5899
BRANCH_CONDITIONAL: 12.4119
BRANCH_DIRECT_CALL: 2.63153
BRANCH_INDIRECT_CALL: 1.0038
BRANCH_RETURN: 3.58767

Instructions large pages: 0
Instructions small pages: 15154
Large page distribution for instructions: 0%

Data large pages: 0
Data small pages: 13659
Large page distribution for data: 0%

cpu0_L1I TOTAL       ACCESS:   39108100  HIT:   30072136  MISS:    9035964  iACCESS:   39108100  iHIT:   30072136  iMISS:    9035964  dACCESS:          0  dHIT:          0  dMISS:          0  itACCESS:          0  itHIT:          0  itMISS:          0  dtACCESS:          0  dtHIT:          0  dtMISS:          0
cpu0_L1I LOAD         ACCESS:   11574305  HIT:    9098155  MISS:    2476150  iACCESS:   11574305  iHIT:    9098155  iMISS:    2476150  dACCESS:          0  dHIT:          0  dMISS:          0  itACCESS:          0  itHIT:          0  itMISS:          0  dtACCESS:          0  dtHIT:          0  dtMISS:          0
cpu0_L1I RFO          ACCESS:          0  HIT:          0  MISS:          0  iACCESS:          0  iHIT:          0  iMISS:          0  dACCESS:          0  dHIT:          0  dMISS:          0  itACCESS:          0  itHIT:          0  itMISS:          0  dtACCESS:          0  dtHIT:          0  dtMISS:          0
cpu0_L1I PREFETCH     ACCESS:   27533795  HIT:   20973981  MISS:    6559814  iACCESS:   27533795  iHIT:   20973981  iMISS:    6559814  dACCESS:          0  dHIT:          0  dMISS:          0  itACCESS:          0  itHIT:          0  itMISS:          0  dtACCESS:          0  dtHIT:          0  dtMISS:          0
cpu0_L1I WRITE        ACCESS:          0  HIT:          0  MISS:          0  iACCESS:          0  iHIT:          0  iMISS:          0  dACCESS:          0  dHIT:          0  dMISS:          0  itACCESS:          0  itHIT:          0  itMISS:          0  dtACCESS:          0  dtHIT:          0  dtMISS:          0
cpu0_L1I TRANSLATION  ACCESS:          0  HIT:          0  MISS:          0  iACCESS:          0  iHIT:          0  iMISS:          0  dACCESS:          0  dHIT:          0  dMISS:          0  itACCESS:          0  itHIT:          0  itMISS:          0  dtACCESS:          0  dtHIT:          0  dtMISS:          0
cpu0_L1I PREFETCH  REQUESTED:   30188176  ISSUED:   30187827  CROSSED:          0  USEFUL:    2206759  USELESS:     797655
cpu0_L1I AVERAGE iMISS LATENCY: 22.4984 cycles
cpu0_L1I AVERAGE dMISS LATENCY: 0 cycles
cpu0_L1I AVERAGE itMISS LATENCY: 0 cycles
cpu0_L1I AVERAGE dtMISS LATENCY: 0 cycles
cpu0_L1I PAGE CROSSINGS (TLB HIT):         0 
cpu0_L1I PAGE CROSSINGS (TLB MISS):         0 
cpu0_L1I AVERAGE MISS LATENCY: 22.4984 cycles
cpu0_ITLB TOTAL       ACCESS:   33093542  HIT:   30790705  MISS:    2302837  iACCESS:   33093542  iHIT:   30790705  iMISS:    2302837  dACCESS:          0  dHIT:          0  dMISS:          0  itACCESS:          0  itHIT:          0  itMISS:          0  dtACCESS:          0  dtHIT:          0  dtMISS:          0
cpu0_ITLB LOAD         ACCESS:   33093542  HIT:   30790705  MISS:    2302837  iACCESS:   33093542  iHIT:   30790705  iMISS:    2302837  dACCESS:          0  dHIT:          0  dMISS:          0  itACCESS:          0  itHIT:          0  itMISS:          0  dtACCESS:          0  dtHIT:          0  dtMISS:          0
cpu0_ITLB RFO          ACCESS:          0  HIT:          0  MISS:          0  iACCESS:          0  iHIT:          0  iMISS:          0  dACCESS:          0  dHIT:          0  dMISS:          0  itACCESS:          0  itHIT:          0  itMISS:          0  dtACCESS:          0  dtHIT:          0  dtMISS:          0
cpu0_ITLB PREFETCH     ACCESS:          0  HIT:          0  MISS:          0  iACCESS:          0  iHIT:          0  iMISS:          0  dACCESS:          0  dHIT:          0  dMISS:          0  itACCESS:          0  itHIT:          0  itMISS:          0  dtACCESS:          0  dtHIT:          0  dtMISS:          0
cpu0_ITLB WRITE        ACCESS:          0  HIT:          0  MISS:          0  iACCESS:          0  iHIT:          0  iMISS:          0  dACCESS:          0  dHIT:          0  dMISS:          0  itACCESS:          0  itHIT:          0  itMISS:          0  dtACCESS:          0  dtHIT:          0  dtMISS:          0
cpu0_ITLB TRANSLATION  ACCESS:          0  HIT:          0  MISS:          0  iACCESS:          0  iHIT:          0  iMISS:          0  dACCESS:          0  dHIT:          0  dMISS:          0  itACCESS:          0  itHIT:          0  itMISS:          0  dtACCESS:          0  dtHIT:          0  dtMISS:          0
cpu0_ITLB PREFETCH  REQUESTED:          0  ISSUED:          0  CROSSED:          0  USEFUL:     404729  USELESS:      86998
cpu0_ITLB AVERAGE iMISS LATENCY: 6.06649 cycles
cpu0_ITLB AVERAGE dMISS LATENCY: 0 cycles
cpu0_ITLB AVERAGE itMISS LATENCY: 0 cycles
cpu0_ITLB AVERAGE dtMISS LATENCY: 0 cycles
cpu0_ITLB PAGE CROSSINGS (TLB HIT):         0 
cpu0_ITLB PAGE CROSSINGS (TLB MISS):         0 
cpu0_ITLB AVERAGE MISS LATENCY: 6.06649 cycles
cpu0_DTLB TOTAL       ACCESS:   29262431  HIT:   25700077  MISS:    3562354  iACCESS:          0  iHIT:          0  iMISS:          0  dACCESS:   29262431  dHIT:   25700077  dMISS:    3562354  itACCESS:          0  itHIT:          0  itMISS:          0  dtACCESS:          0  dtHIT:          0  dtMISS:          0
cpu0_DTLB LOAD         ACCESS:   29262431  HIT:   25700077  MISS:    3562354  iACCESS:          0  iHIT:          0  iMISS:          0  dACCESS:   29262431  dHIT:   25700077  dMISS:    3562354  itACCESS:          0  itHIT:          0  itMISS:          0  dtACCESS:          0  dtHIT:          0  dtMISS:          0
cpu0_DTLB RFO          ACCESS:          0  HIT:          0  MISS:          0  iACCESS:          0  iHIT:          0  iMISS:          0  dACCESS:          0  dHIT:          0  dMISS:          0  itACCESS:          0  itHIT:          0  itMISS:          0  dtACCESS:          0  dtHIT:          0  dtMISS:          0
cpu0_DTLB PREFETCH     ACCESS:          0  HIT:          0  MISS:          0  iACCESS:          0  iHIT:          0  iMISS:          0  dACCESS:          0  dHIT:          0  dMISS:          0  itACCESS:          0  itHIT:          0  itMISS:          0  dtACCESS:          0  dtHIT:          0  dtMISS:          0
cpu0_DTLB WRITE        ACCESS:          0  HIT:          0  MISS:          0  iACCESS:          0  iHIT:          0  iMISS:          0  dACCESS:          0  dHIT:          0  dMISS:          0  itACCESS:          0  itHIT:          0  itMISS:          0  dtACCESS:          0  dtHIT:          0  dtMISS:          0
cpu0_DTLB TRANSLATION  ACCESS:          0  HIT:          0  MISS:          0  iACCESS:          0  iHIT:          0  iMISS:          0  dACCESS:          0  dHIT:          0  dMISS:          0  itACCESS:          0  itHIT:          0  itMISS:          0  dtACCESS:          0  dtHIT:          0  dtMISS:          0
cpu0_DTLB PREFETCH  REQUESTED:          0  ISSUED:          0  CROSSED:          0  USEFUL:          0  USELESS:          0
cpu0_DTLB AVERAGE iMISS LATENCY: 0 cycles
cpu0_DTLB AVERAGE dMISS LATENCY: 20.1031 cycles
cpu0_DTLB AVERAGE itMISS LATENCY: 0 cycles
cpu0_DTLB AVERAGE dtMISS LATENCY: 0 cycles
cpu0_DTLB PAGE CROSSINGS (TLB HIT):         0 
cpu0_DTLB PAGE CROSSINGS (TLB MISS):         0 
cpu0_DTLB AVERAGE MISS LATENCY: 20.1031 cycles
cpu0_STLB TOTAL       ACCESS:    2574636  HIT:    2187798  MISS:     386838  iACCESS:     491733  iHIT:     428538  iMISS:      63195  dACCESS:    2082903  dHIT:    1759260  dMISS:     323643  itACCESS:          0  itHIT:          0  itMISS:          0  dtACCESS:          0  dtHIT:          0  dtMISS:          0
cpu0_STLB LOAD         ACCESS:    2574636  HIT:    2187798  MISS:     386838  iACCESS:     491733  iHIT:     428538  iMISS:      63195  dACCESS:    2082903  dHIT:    1759260  dMISS:     323643  itACCESS:          0  itHIT:          0  itMISS:          0  dtACCESS:          0  dtHIT:          0  dtMISS:          0
cpu0_STLB RFO          ACCESS:          0  HIT:          0  MISS:          0  iACCESS:          0  iHIT:          0  iMISS:          0  dACCESS:          0  dHIT:          0  dMISS:          0  itACCESS:          0  itHIT:          0  itMISS:          0  dtACCESS:          0  dtHIT:          0  dtMISS:          0
cpu0_STLB PREFETCH     ACCESS:          0  HIT:          0  MISS:          0  iACCESS:          0  iHIT:          0  iMISS:          0  dACCESS:          0  dHIT:          0  dMISS:          0  itACCESS:          0  itHIT:          0  itMISS:          0  dtACCESS:          0  dtHIT:          0  dtMISS:          0
cpu0_STLB WRITE        ACCESS:          0  HIT:          0  MISS:          0  iACCESS:          0  iHIT:          0  iMISS:          0  dACCESS:          0  dHIT:          0  dMISS:          0  itACCESS:          0  itHIT:          0  itMISS:          0  dtACCESS:          0  dtHIT:          0  dtMISS:          0
cpu0_STLB TRANSLATION  ACCESS:          0  HIT:          0  MISS:          0  iACCESS:          0  iHIT:          0  iMISS:          0  dACCESS:          0  dHIT:          0  dMISS:          0  itACCESS:          0  itHIT:          0  itMISS:          0  dtACCESS:          0  dtHIT:          0  dtMISS:          0
cpu0_STLB PREFETCH  REQUESTED:          0  ISSUED:          0  CROSSED:          0  USEFUL:          0  USELESS:          0
cpu0_STLB AVERAGE iMISS LATENCY: 26.1133 cycles
cpu0_STLB AVERAGE dMISS LATENCY: 141.693 cycles
cpu0_STLB AVERAGE itMISS LATENCY: 0 cycles
cpu0_STLB AVERAGE dtMISS LATENCY: 0 cycles
cpu0_STLB PAGE CROSSINGS (TLB HIT):         0 
cpu0_STLB PAGE CROSSINGS (TLB MISS):         0 
cpu0_STLB AVERAGE MISS LATENCY: 167.807 cycles
cpu0_L1D TOTAL       ACCESS:   45486106  HIT:   39677709  MISS:    5808397  iACCESS:          0  iHIT:          0  iMISS:          0  dACCESS:   44897336  dHIT:   39645741  dMISS:    5251595  itACCESS:      74794  itHIT:       5745  itMISS:      69049  dtACCESS:     513976  dtHIT:      26223  dtMISS:     487753
cpu0_L1D LOAD         ACCESS:   20532464  HIT:   18168590  MISS:    2363874  iACCESS:          0  iHIT:          0  iMISS:          0  dACCESS:   20532464  dHIT:   18168590  dMISS:    2363874  itACCESS:          0  itHIT:          0  itMISS:          0  dtACCESS:          0  dtHIT:          0  dtMISS:          0
cpu0_L1D RFO          ACCESS:          0  HIT:          0  MISS:          0  iACCESS:          0  iHIT:          0  iMISS:          0  dACCESS:          0  dHIT:          0  dMISS:          0  itACCESS:          0  itHIT:          0  itMISS:          0  dtACCESS:          0  dtHIT:          0  dtMISS:          0
cpu0_L1D PREFETCH     ACCESS:   14164931  HIT:   11889882  MISS:    2275049  iACCESS:          0  iHIT:          0  iMISS:          0  dACCESS:   14164931  dHIT:   11889882  dMISS:    2275049  itACCESS:          0  itHIT:          0  itMISS:          0  dtACCESS:          0  dtHIT:          0  dtMISS:          0
cpu0_L1D WRITE        ACCESS:   10199941  HIT:    9587269  MISS:     612672  iACCESS:          0  iHIT:          0  iMISS:          0  dACCESS:   10199941  dHIT:    9587269  dMISS:     612672  itACCESS:          0  itHIT:          0  itMISS:          0  dtACCESS:          0  dtHIT:          0  dtMISS:          0
cpu0_L1D TRANSLATION  ACCESS:     588770  HIT:      31968  MISS:     556802  iACCESS:          0  iHIT:          0  iMISS:          0  dACCESS:          0  dHIT:          0  dMISS:          0  itACCESS:      74794  itHIT:       5745  itMISS:      69049  dtACCESS:     513976  dtHIT:      26223  dtMISS:     487753
cpu0_L1D PREFETCH  REQUESTED:   20532464  ISSUED:   18850676  CROSSED:          0  USEFUL:     373370  USELESS:     966415
cpu0_L1D AVERAGE iMISS LATENCY: 0 cycles
cpu0_L1D AVERAGE dMISS LATENCY: 49.1641 cycles
cpu0_L1D AVERAGE itMISS LATENCY: 1.62923 cycles
cpu0_L1D AVERAGE dtMISS LATENCY: 8.40718 cycles
cpu0_L1D PAGE CROSSINGS (TLB HIT):         0 
cpu0_L1D PAGE CROSSINGS (TLB MISS):         0 
cpu0_L1D AVERAGE MISS LATENCY: 59.2005 cycles
cpu0_L2C TOTAL       ACCESS:    8767557  HIT:    2421079  MISS:    6346478  iACCESS:    3834364  iHIT:    1364099  iMISS:    2470265  dACCESS:    4404415  dHIT:     834815  dMISS:    3569600  itACCESS:      68651  itHIT:      15443  itMISS:      53208  dtACCESS:     460127  dtHIT:     206722  dtMISS:     253405
cpu0_L2C LOAD         ACCESS:    2117640  HIT:     471220  MISS:    1646420  iACCESS:     861532  iHIT:     276677  iMISS:     584855  dACCESS:    1256108  dHIT:     194543  dMISS:    1061565  itACCESS:          0  itHIT:          0  itMISS:          0  dtACCESS:          0  dtHIT:          0  dtMISS:          0
cpu0_L2C RFO          ACCESS:     230366  HIT:      34635  MISS:     195731  iACCESS:          0  iHIT:          0  iMISS:          0  dACCESS:     230366  dHIT:      34635  dMISS:     195731  itACCESS:          0  itHIT:          0  itMISS:          0  dtACCESS:          0  dtHIT:          0  dtMISS:          0
cpu0_L2C PREFETCH     ACCESS:    5538947  HIT:    1567322  MISS:    3971625  iACCESS:    2972832  iHIT:    1087422  iMISS:    1885410  dACCESS:    2566115  dHIT:     479900  dMISS:    2086215  itACCESS:          0  itHIT:          0  itMISS:          0  dtACCESS:          0  dtHIT:          0  dtMISS:          0
cpu0_L2C WRITE        ACCESS:     351826  HIT:     125737  MISS:     226089  iACCESS:          0  iHIT:          0  iMISS:          0  dACCESS:     351826  dHIT:     125737  dMISS:     226089  itACCESS:          0  itHIT:          0  itMISS:          0  dtACCESS:          0  dtHIT:          0  dtMISS:          0
cpu0_L2C TRANSLATION  ACCESS:     528778  HIT:     222165  MISS:     306613  iACCESS:          0  iHIT:          0  iMISS:          0  dACCESS:          0  dHIT:          0  dMISS:          0  itACCESS:      68651  itHIT:      15443  itMISS:      53208  dtACCESS:     460127  dtHIT:     206722  dtMISS:     253405
cpu0_L2C PREFETCH  REQUESTED:    1456420  ISSUED:    1456416  CROSSED:          0  USEFUL:     359571  USELESS:     442531
cpu0_L2C AVERAGE iMISS LATENCY: 26.88 cycles
cpu0_L2C AVERAGE dMISS LATENCY: 54.1312 cycles
cpu0_L2C AVERAGE itMISS LATENCY: 1.38506 cycles
cpu0_L2C AVERAGE dtMISS LATENCY: 6.99843 cycles
cpu0_L2C PAGE CROSSINGS (TLB HIT):         0 
cpu0_L2C PAGE CROSSINGS (TLB MISS):         0 
cpu0_L2C AVERAGE MISS LATENCY: 89.3946 cycles
LLC TOTAL       ACCESS:    6210095  HIT:    3588293  MISS:    2621802  iACCESS:    2388369  iHIT:    1604447  iMISS:     783922  dACCESS:    3515113  dHIT:    1929990  dMISS:    1585123  itACCESS:      53208  itHIT:       9663  itMISS:      43545  dtACCESS:     253405  dtHIT:      44193  dtMISS:     209212
LLC LOAD         ACCESS:    1639860  HIT:    1000113  MISS:     639747  iACCESS:     583477  iHIT:     419191  iMISS:     164286  dACCESS:    1056383  dHIT:     580922  dMISS:     475461  itACCESS:          0  itHIT:          0  itMISS:          0  dtACCESS:          0  dtHIT:          0  dtMISS:          0
LLC RFO          ACCESS:     195714  HIT:     100384  MISS:      95330  iACCESS:          0  iHIT:          0  iMISS:          0  dACCESS:     195714  dHIT:     100384  dMISS:      95330  itACCESS:          0  itHIT:          0  itMISS:          0  dtACCESS:          0  dtHIT:          0  dtMISS:          0
LLC PREFETCH     ACCESS:    3784478  HIT:    2154577  MISS:    1629901  iACCESS:    1804892  iHIT:    1185256  iMISS:     619636  dACCESS:    1979586  dHIT:     969321  dMISS:    1010265  itACCESS:          0  itHIT:          0  itMISS:          0  dtACCESS:          0  dtHIT:          0  dtMISS:          0
LLC WRITE        ACCESS:     283430  HIT:     279363  MISS:       4067  iACCESS:          0  iHIT:          0  iMISS:          0  dACCESS:     283430  dHIT:     279363  dMISS:       4067  itACCESS:          0  itHIT:          0  itMISS:          0  dtACCESS:          0  dtHIT:          0  dtMISS:          0
LLC TRANSLATION  ACCESS:     306613  HIT:      53856  MISS:     252757  iACCESS:          0  iHIT:          0  iMISS:          0  dACCESS:          0  dHIT:          0  dMISS:          0  itACCESS:      53208  itHIT:       9663  itMISS:      43545  dtACCESS:     253405  dtHIT:      44193  dtMISS:     209212
LLC PREFETCH  REQUESTED:          0  ISSUED:          0  CROSSED:          0  USEFUL:          0  USELESS:          0
LLC AVERAGE iMISS LATENCY: 47.3578 cycles
LLC AVERAGE dMISS LATENCY: 107.807 cycles
LLC AVERAGE itMISS LATENCY: 2.95209 cycles
LLC AVERAGE dtMISS LATENCY: 15.0324 cycles
LLC PAGE CROSSINGS (TLB HIT):         0 
LLC PAGE CROSSINGS (TLB MISS):         0 
LLC AVERAGE MISS LATENCY: 173.149 cycles

PageTableWalker TOTAL       ACCESS:     136523  
PageTableWalker AVERAGE LATENCY: 6.24462 cycles
PageTableWalker TOTAL LATENCY: 852534 cycles

DRAM Statistics
Channel 0
 RQ ROW_BUFFER_HIT:     562665
  ROW_BUFFER_MISS:    2043061
 AVG DBUS CONGESTED CYCLE:    3.65206
 WQ ROW_BUFFER_HIT:      64994
  ROW_BUFFER_MISS:      67266  FULL:          0

