last_page:0x200000000000000
VMEM_RES_CAP:0x100000
PAGE_SIZE:4096
LOG2_PAGE_SIZE:12
LOG2_PAGE_TABLE_SIZE:9
page_table_levels:5
WARNING: physical memory size is smaller than virtual memory size
FDiP enabled with aggresivity 16

*** ChampSim Multicore Out-of-Order Simulator ***

Warmup Instructions: 50000000
Simulation Instructions: 100000000
Number of CPUs: 1
Small page size: 4096
Large page size: 2097152

CPU 0 Bimodal branch predictor
Basic BTB sets: 1024 ways: 8 indirect buffer size: 4096 RAS size: 64
Instruction page size distrubution: 0
Loading instruction page size distribution from /home/bsc/bsc018186/scratch/itp_asplos25_AE/dump/smt_srv537_ap_srv697_ap_1024i.pdst
Data page size distrubution: 0
Loading data page size distribution from /home/bsc/bsc018186/scratch/itp_asplos25_AE/dump/smt_srv537_ap_srv697_ap_1024i.pdst
cpu0_L2C IP-based stride prefetcher
cpu0_L1D next line prefetcher
cpu0_L1I next line prefetcher
Off-chip DRAM Size: 4 GiB Channels: 1 Width: 64-bit Data Rate: 3200 MT/s
Heartbeat CPU 0 instructions: 10000002 cycles: 2500431 heartbeat IPC: 3.99932 cumulative IPC: 3.99932 (Simulation time: 0 hr 0 min 46 sec) 
Heartbeat CPU 0 instructions: 20000002 cycles: 5000664 heartbeat IPC: 3.99963 cumulative IPC: 3.99947 (Simulation time: 0 hr 1 min 35 sec) 
Heartbeat CPU 0 instructions: 30000001 cycles: 7500884 heartbeat IPC: 3.99965 cumulative IPC: 3.99953 (Simulation time: 0 hr 2 min 23 sec) 
Heartbeat CPU 0 instructions: 40000003 cycles: 10001028 heartbeat IPC: 3.99978 cumulative IPC: 3.99959 (Simulation time: 0 hr 3 min 10 sec) 
Heartbeat CPU 0 instructions: 50000003 cycles: 12501512 heartbeat IPC: 3.99923 cumulative IPC: 3.99952 (Simulation time: 0 hr 3 min 59 sec) 
Warmup finished CPU 0 instructions: 50000003 cycles: 12501513 cumulative IPC: 3.99952 (Simulation time: 0 hr 3 min 59 sec) 

Warmup complete CPU 0 instructions: 50000003 cycles: 12501513 (Simulation time: 0 hr 3 min 59 sec) 

Heartbeat CPU 0 instructions: 60000003 cycles: 39737432 heartbeat IPC: 0.367163 cumulative IPC: 0.367163 (Simulation time: 0 hr 5 min 37 sec) 
Heartbeat CPU 0 instructions: 70000000 cycles: 65507500 heartbeat IPC: 0.388047 cumulative IPC: 0.377316 (Simulation time: 0 hr 7 min 12 sec) 
Heartbeat CPU 0 instructions: 80000002 cycles: 91320915 heartbeat IPC: 0.387396 cumulative IPC: 0.380617 (Simulation time: 0 hr 8 min 47 sec) 
Heartbeat CPU 0 instructions: 90000000 cycles: 117834316 heartbeat IPC: 0.377168 cumulative IPC: 0.379749 (Simulation time: 0 hr 10 min 24 sec) 
Heartbeat CPU 0 instructions: 100000003 cycles: 144024352 heartbeat IPC: 0.381825 cumulative IPC: 0.380163 (Simulation time: 0 hr 11 min 52 sec) 
Heartbeat CPU 0 instructions: 110000002 cycles: 170420582 heartbeat IPC: 0.378842 cumulative IPC: 0.379942 (Simulation time: 0 hr 13 min 16 sec) 
Heartbeat CPU 0 instructions: 120000001 cycles: 196422337 heartbeat IPC: 0.38459 cumulative IPC: 0.380599 (Simulation time: 0 hr 14 min 40 sec) 
Heartbeat CPU 0 instructions: 130000004 cycles: 222193304 heartbeat IPC: 0.388034 cumulative IPC: 0.381513 (Simulation time: 0 hr 16 min 3 sec) 
Heartbeat CPU 0 instructions: 140000000 cycles: 247628983 heartbeat IPC: 0.393149 cumulative IPC: 0.382772 (Simulation time: 0 hr 17 min 26 sec) 
Heartbeat CPU 0 instructions: 150000003 cycles: 274198176 heartbeat IPC: 0.376376 cumulative IPC: 0.382122 (Simulation time: 0 hr 18 min 50 sec) 
Simulation finished CPU 0 instructions: 100000000 cycles: 261696664 cumulative IPC: 0.382122 (Simulation time: 0 hr 18 min 50 sec) 

Simulation complete CPU 0 instructions: 100000000 cycles: 261696664 (Simulation time: 0 hr 18 min 50 sec) 


ChampSim completed all CPUs

Saving instructions large page distribution to /home/bsc/bsc018186/scratch/itp_asplos25_AE/dump/smt_srv537_ap_srv697_ap_1024i.pdst...
Saving data large page distribution to /home/bsc/bsc018186/scratch/itp_asplos25_AE/dump/smt_srv537_ap_srv697_ap_1024i.pdst...
=== Simulation ===
CPU 0 runs /gpfs/projects/bsc18/MN4/bsc18/romol/ChampSim/traces/qualcomm_srv/smt_srv537_ap_srv697_ap_1024i.champsimtrace.xz

Region of Interest Statistics

CPU 0 cumulative IPC: 0.382122 instructions: 100000000 cycles: 261696664
CPU 0 Branch Prediction Accuracy: 76.0748% MPKI: 43.0951 Average ROB Occupancy at Mispredict: 10.96
Branch type MPKI
BRANCH_DIRECT_JUMP: 1.29082
BRANCH_INDIRECT: 22.4002
BRANCH_CONDITIONAL: 12.5647
BRANCH_DIRECT_CALL: 2.48235
BRANCH_INDIRECT_CALL: 0.935611
BRANCH_RETURN: 3.42151

Instructions large pages: 0
Instructions small pages: 13574
Large page distribution for instructions: 0%

Data large pages: 0
Data small pages: 12278
Large page distribution for data: 0%

cpu0_L1I TOTAL       ACCESS:   39455014  HIT:   30283569  MISS:    9171445  iACCESS:   39455014  iHIT:   30283569  iMISS:    9171445  dACCESS:          0  dHIT:          0  dMISS:          0  itACCESS:          0  itHIT:          0  itMISS:          0  dtACCESS:          0  dtHIT:          0  dtMISS:          0
cpu0_L1I LOAD         ACCESS:   11845662  HIT:    9352122  MISS:    2493540  iACCESS:   11845662  iHIT:    9352122  iMISS:    2493540  dACCESS:          0  dHIT:          0  dMISS:          0  itACCESS:          0  itHIT:          0  itMISS:          0  dtACCESS:          0  dtHIT:          0  dtMISS:          0
cpu0_L1I RFO          ACCESS:          0  HIT:          0  MISS:          0  iACCESS:          0  iHIT:          0  iMISS:          0  dACCESS:          0  dHIT:          0  dMISS:          0  itACCESS:          0  itHIT:          0  itMISS:          0  dtACCESS:          0  dtHIT:          0  dtMISS:          0
cpu0_L1I PREFETCH     ACCESS:   27609352  HIT:   20931447  MISS:    6677905  iACCESS:   27609352  iHIT:   20931447  iMISS:    6677905  dACCESS:          0  dHIT:          0  dMISS:          0  itACCESS:          0  itHIT:          0  itMISS:          0  dtACCESS:          0  dtHIT:          0  dtMISS:          0
cpu0_L1I WRITE        ACCESS:          0  HIT:          0  MISS:          0  iACCESS:          0  iHIT:          0  iMISS:          0  dACCESS:          0  dHIT:          0  dMISS:          0  itACCESS:          0  itHIT:          0  itMISS:          0  dtACCESS:          0  dtHIT:          0  dtMISS:          0
cpu0_L1I TRANSLATION  ACCESS:          0  HIT:          0  MISS:          0  iACCESS:          0  iHIT:          0  iMISS:          0  dACCESS:          0  dHIT:          0  dMISS:          0  itACCESS:          0  itHIT:          0  itMISS:          0  dtACCESS:          0  dtHIT:          0  dtMISS:          0
cpu0_L1I PREFETCH  REQUESTED:   30294031  ISSUED:   30292777  CROSSED:          0  USEFUL:    2199043  USELESS:     749474
cpu0_L1I AVERAGE iMISS LATENCY: 22.9544 cycles
cpu0_L1I AVERAGE dMISS LATENCY: 0 cycles
cpu0_L1I AVERAGE itMISS LATENCY: 0 cycles
cpu0_L1I AVERAGE dtMISS LATENCY: 0 cycles
cpu0_L1I PAGE CROSSINGS (TLB HIT):         0 
cpu0_L1I PAGE CROSSINGS (TLB MISS):         0 
cpu0_L1I AVERAGE MISS LATENCY: 22.9544 cycles
cpu0_ITLB TOTAL       ACCESS:   33077549  HIT:   30878834  MISS:    2198715  iACCESS:   33077549  iHIT:   30878834  iMISS:    2198715  dACCESS:          0  dHIT:          0  dMISS:          0  itACCESS:          0  itHIT:          0  itMISS:          0  dtACCESS:          0  dtHIT:          0  dtMISS:          0
cpu0_ITLB LOAD         ACCESS:   33077549  HIT:   30878834  MISS:    2198715  iACCESS:   33077549  iHIT:   30878834  iMISS:    2198715  dACCESS:          0  dHIT:          0  dMISS:          0  itACCESS:          0  itHIT:          0  itMISS:          0  dtACCESS:          0  dtHIT:          0  dtMISS:          0
cpu0_ITLB RFO          ACCESS:          0  HIT:          0  MISS:          0  iACCESS:          0  iHIT:          0  iMISS:          0  dACCESS:          0  dHIT:          0  dMISS:          0  itACCESS:          0  itHIT:          0  itMISS:          0  dtACCESS:          0  dtHIT:          0  dtMISS:          0
cpu0_ITLB PREFETCH     ACCESS:          0  HIT:          0  MISS:          0  iACCESS:          0  iHIT:          0  iMISS:          0  dACCESS:          0  dHIT:          0  dMISS:          0  itACCESS:          0  itHIT:          0  itMISS:          0  dtACCESS:          0  dtHIT:          0  dtMISS:          0
cpu0_ITLB WRITE        ACCESS:          0  HIT:          0  MISS:          0  iACCESS:          0  iHIT:          0  iMISS:          0  dACCESS:          0  dHIT:          0  dMISS:          0  itACCESS:          0  itHIT:          0  itMISS:          0  dtACCESS:          0  dtHIT:          0  dtMISS:          0
cpu0_ITLB TRANSLATION  ACCESS:          0  HIT:          0  MISS:          0  iACCESS:          0  iHIT:          0  iMISS:          0  dACCESS:          0  dHIT:          0  dMISS:          0  itACCESS:          0  itHIT:          0  itMISS:          0  dtACCESS:          0  dtHIT:          0  dtMISS:          0
cpu0_ITLB PREFETCH  REQUESTED:          0  ISSUED:          0  CROSSED:          0  USEFUL:     383392  USELESS:      77429
cpu0_ITLB AVERAGE iMISS LATENCY: 7.22759 cycles
cpu0_ITLB AVERAGE dMISS LATENCY: 0 cycles
cpu0_ITLB AVERAGE itMISS LATENCY: 0 cycles
cpu0_ITLB AVERAGE dtMISS LATENCY: 0 cycles
cpu0_ITLB PAGE CROSSINGS (TLB HIT):         0 
cpu0_ITLB PAGE CROSSINGS (TLB MISS):         0 
cpu0_ITLB AVERAGE MISS LATENCY: 7.22759 cycles
cpu0_DTLB TOTAL       ACCESS:   28763596  HIT:   25317132  MISS:    3446464  iACCESS:          0  iHIT:          0  iMISS:          0  dACCESS:   28763596  dHIT:   25317132  dMISS:    3446464  itACCESS:          0  itHIT:          0  itMISS:          0  dtACCESS:          0  dtHIT:          0  dtMISS:          0
cpu0_DTLB LOAD         ACCESS:   28763596  HIT:   25317132  MISS:    3446464  iACCESS:          0  iHIT:          0  iMISS:          0  dACCESS:   28763596  dHIT:   25317132  dMISS:    3446464  itACCESS:          0  itHIT:          0  itMISS:          0  dtACCESS:          0  dtHIT:          0  dtMISS:          0
cpu0_DTLB RFO          ACCESS:          0  HIT:          0  MISS:          0  iACCESS:          0  iHIT:          0  iMISS:          0  dACCESS:          0  dHIT:          0  dMISS:          0  itACCESS:          0  itHIT:          0  itMISS:          0  dtACCESS:          0  dtHIT:          0  dtMISS:          0
cpu0_DTLB PREFETCH     ACCESS:          0  HIT:          0  MISS:          0  iACCESS:          0  iHIT:          0  iMISS:          0  dACCESS:          0  dHIT:          0  dMISS:          0  itACCESS:          0  itHIT:          0  itMISS:          0  dtACCESS:          0  dtHIT:          0  dtMISS:          0
cpu0_DTLB WRITE        ACCESS:          0  HIT:          0  MISS:          0  iACCESS:          0  iHIT:          0  iMISS:          0  dACCESS:          0  dHIT:          0  dMISS:          0  itACCESS:          0  itHIT:          0  itMISS:          0  dtACCESS:          0  dtHIT:          0  dtMISS:          0
cpu0_DTLB TRANSLATION  ACCESS:          0  HIT:          0  MISS:          0  iACCESS:          0  iHIT:          0  iMISS:          0  dACCESS:          0  dHIT:          0  dMISS:          0  itACCESS:          0  itHIT:          0  itMISS:          0  dtACCESS:          0  dtHIT:          0  dtMISS:          0
cpu0_DTLB PREFETCH  REQUESTED:          0  ISSUED:          0  CROSSED:          0  USEFUL:          0  USELESS:          0
cpu0_DTLB AVERAGE iMISS LATENCY: 0 cycles
cpu0_DTLB AVERAGE dMISS LATENCY: 16.5703 cycles
cpu0_DTLB AVERAGE itMISS LATENCY: 0 cycles
cpu0_DTLB AVERAGE dtMISS LATENCY: 0 cycles
cpu0_DTLB PAGE CROSSINGS (TLB HIT):         0 
cpu0_DTLB PAGE CROSSINGS (TLB MISS):         0 
cpu0_DTLB AVERAGE MISS LATENCY: 16.5703 cycles
cpu0_STLB TOTAL       ACCESS:    2429758  HIT:    2082532  MISS:     347226  iACCESS:     460833  iHIT:     354233  iMISS:     106600  dACCESS:    1968925  dHIT:    1728299  dMISS:     240626  itACCESS:          0  itHIT:          0  itMISS:          0  dtACCESS:          0  dtHIT:          0  dtMISS:          0
cpu0_STLB LOAD         ACCESS:    2429758  HIT:    2082532  MISS:     347226  iACCESS:     460833  iHIT:     354233  iMISS:     106600  dACCESS:    1968925  dHIT:    1728299  dMISS:     240626  itACCESS:          0  itHIT:          0  itMISS:          0  dtACCESS:          0  dtHIT:          0  dtMISS:          0
cpu0_STLB RFO          ACCESS:          0  HIT:          0  MISS:          0  iACCESS:          0  iHIT:          0  iMISS:          0  dACCESS:          0  dHIT:          0  dMISS:          0  itACCESS:          0  itHIT:          0  itMISS:          0  dtACCESS:          0  dtHIT:          0  dtMISS:          0
cpu0_STLB PREFETCH     ACCESS:          0  HIT:          0  MISS:          0  iACCESS:          0  iHIT:          0  iMISS:          0  dACCESS:          0  dHIT:          0  dMISS:          0  itACCESS:          0  itHIT:          0  itMISS:          0  dtACCESS:          0  dtHIT:          0  dtMISS:          0
cpu0_STLB WRITE        ACCESS:          0  HIT:          0  MISS:          0  iACCESS:          0  iHIT:          0  iMISS:          0  dACCESS:          0  dHIT:          0  dMISS:          0  itACCESS:          0  itHIT:          0  itMISS:          0  dtACCESS:          0  dtHIT:          0  dtMISS:          0
cpu0_STLB TRANSLATION  ACCESS:          0  HIT:          0  MISS:          0  iACCESS:          0  iHIT:          0  iMISS:          0  dACCESS:          0  dHIT:          0  dMISS:          0  itACCESS:          0  itHIT:          0  itMISS:          0  dtACCESS:          0  dtHIT:          0  dtMISS:          0
cpu0_STLB PREFETCH  REQUESTED:          0  ISSUED:          0  CROSSED:          0  USEFUL:          0  USELESS:          0
cpu0_STLB AVERAGE iMISS LATENCY: 35.1829 cycles
cpu0_STLB AVERAGE dMISS LATENCY: 118.991 cycles
cpu0_STLB AVERAGE itMISS LATENCY: 0 cycles
cpu0_STLB AVERAGE dtMISS LATENCY: 0 cycles
cpu0_STLB PAGE CROSSINGS (TLB HIT):         0 
cpu0_STLB PAGE CROSSINGS (TLB MISS):         0 
cpu0_STLB AVERAGE MISS LATENCY: 154.174 cycles
cpu0_L1D TOTAL       ACCESS:   44395961  HIT:   39113223  MISS:    5282738  iACCESS:          0  iHIT:          0  iMISS:          0  dACCESS:   43883852  dHIT:   39079070  dMISS:    4804782  itACCESS:     118547  itHIT:      15796  itMISS:     102751  dtACCESS:     393562  dtHIT:      18357  dtMISS:     375205
cpu0_L1D LOAD         ACCESS:   20007326  HIT:   17862335  MISS:    2144991  iACCESS:          0  iHIT:          0  iMISS:          0  dACCESS:   20007326  dHIT:   17862335  dMISS:    2144991  itACCESS:          0  itHIT:          0  itMISS:          0  dtACCESS:          0  dtHIT:          0  dtMISS:          0
cpu0_L1D RFO          ACCESS:          0  HIT:          0  MISS:          0  iACCESS:          0  iHIT:          0  iMISS:          0  dACCESS:          0  dHIT:          0  dMISS:          0  itACCESS:          0  itHIT:          0  itMISS:          0  dtACCESS:          0  dtHIT:          0  dtMISS:          0
cpu0_L1D PREFETCH     ACCESS:   13713821  HIT:   11593657  MISS:    2120164  iACCESS:          0  iHIT:          0  iMISS:          0  dACCESS:   13713821  dHIT:   11593657  dMISS:    2120164  itACCESS:          0  itHIT:          0  itMISS:          0  dtACCESS:          0  dtHIT:          0  dtMISS:          0
cpu0_L1D WRITE        ACCESS:   10162705  HIT:    9623078  MISS:     539627  iACCESS:          0  iHIT:          0  iMISS:          0  dACCESS:   10162705  dHIT:    9623078  dMISS:     539627  itACCESS:          0  itHIT:          0  itMISS:          0  dtACCESS:          0  dtHIT:          0  dtMISS:          0
cpu0_L1D TRANSLATION  ACCESS:     512109  HIT:      34153  MISS:     477956  iACCESS:          0  iHIT:          0  iMISS:          0  dACCESS:          0  dHIT:          0  dMISS:          0  itACCESS:     118547  itHIT:      15796  itMISS:     102751  dtACCESS:     393562  dtHIT:      18357  dtMISS:     375205
cpu0_L1D PREFETCH  REQUESTED:   20007326  ISSUED:   18276235  CROSSED:          0  USEFUL:     370774  USELESS:     904326
cpu0_L1D AVERAGE iMISS LATENCY: 0 cycles
cpu0_L1D AVERAGE dMISS LATENCY: 50.5463 cycles
cpu0_L1D AVERAGE itMISS LATENCY: 2.12285 cycles
cpu0_L1D AVERAGE dtMISS LATENCY: 6.8357 cycles
cpu0_L1D PAGE CROSSINGS (TLB HIT):         0 
cpu0_L1D PAGE CROSSINGS (TLB MISS):         0 
cpu0_L1D AVERAGE MISS LATENCY: 59.5048 cycles
cpu0_L2C TOTAL       ACCESS:    8478833  HIT:    1534662  MISS:    6944171  iACCESS:    3747686  iHIT:     803874  iMISS:    2943812  dACCESS:    4279800  dHIT:     546624  dMISS:    3733176  itACCESS:     102677  itHIT:      36416  itMISS:      66261  dtACCESS:     348670  dtHIT:     147748  dtMISS:     200922
cpu0_L2C LOAD         ACCESS:    2026473  HIT:     219212  MISS:    1807261  iACCESS:     837262  iHIT:     119994  iMISS:     717268  dACCESS:    1189211  dHIT:      99218  dMISS:    1089993  itACCESS:          0  itHIT:          0  itMISS:          0  dtACCESS:          0  dtHIT:          0  dtMISS:          0
cpu0_L2C RFO          ACCESS:     208018  HIT:      30428  MISS:     177590  iACCESS:          0  iHIT:          0  iMISS:          0  dACCESS:     208018  dHIT:      30428  dMISS:     177590  itACCESS:          0  itHIT:          0  itMISS:          0  dtACCESS:          0  dtHIT:          0  dtMISS:          0
cpu0_L2C PREFETCH     ACCESS:    5447313  HIT:     994898  MISS:    4452415  iACCESS:    2910424  iHIT:     683880  iMISS:    2226544  dACCESS:    2536889  dHIT:     311018  dMISS:    2225871  itACCESS:          0  itHIT:          0  itMISS:          0  dtACCESS:          0  dtHIT:          0  dtMISS:          0
cpu0_L2C WRITE        ACCESS:     345682  HIT:     105960  MISS:     239722  iACCESS:          0  iHIT:          0  iMISS:          0  dACCESS:     345682  dHIT:     105960  dMISS:     239722  itACCESS:          0  itHIT:          0  itMISS:          0  dtACCESS:          0  dtHIT:          0  dtMISS:          0
cpu0_L2C TRANSLATION  ACCESS:     451347  HIT:     184164  MISS:     267183  iACCESS:          0  iHIT:          0  iMISS:          0  dACCESS:          0  dHIT:          0  dMISS:          0  itACCESS:     102677  itHIT:      36416  itMISS:      66261  dtACCESS:     348670  dtHIT:     147748  dtMISS:     200922
cpu0_L2C PREFETCH  REQUESTED:    1507186  ISSUED:    1507183  CROSSED:          0  USEFUL:     415671  USELESS:     478469
cpu0_L2C AVERAGE iMISS LATENCY: 25.5726 cycles
cpu0_L2C AVERAGE dMISS LATENCY: 47.4938 cycles
cpu0_L2C AVERAGE itMISS LATENCY: 1.47197 cycles
cpu0_L2C AVERAGE dtMISS LATENCY: 4.7172 cycles
cpu0_L2C PAGE CROSSINGS (TLB HIT):         0 
cpu0_L2C PAGE CROSSINGS (TLB MISS):         0 
cpu0_L2C AVERAGE MISS LATENCY: 79.2555 cycles
LLC TOTAL       ACCESS:    6757944  HIT:    4259402  MISS:    2498542  iACCESS:    2850815  iHIT:    2070497  iMISS:     780318  dACCESS:    3639946  dHIT:    2124312  dMISS:    1515634  itACCESS:      66261  itHIT:      16307  itMISS:      49954  dtACCESS:     200922  dtHIT:      48286  dtMISS:     152636
LLC LOAD         ACCESS:    1801862  HIT:    1207480  MISS:     594382  iACCESS:     715864  iHIT:     553613  iMISS:     162251  dACCESS:    1085998  dHIT:     653867  dMISS:     432131  itACCESS:          0  itHIT:          0  itMISS:          0  dtACCESS:          0  dtHIT:          0  dtMISS:          0
LLC RFO          ACCESS:     177572  HIT:      93777  MISS:      83795  iACCESS:          0  iHIT:          0  iMISS:          0  dACCESS:     177572  dHIT:      93777  dMISS:      83795  itACCESS:          0  itHIT:          0  itMISS:          0  dtACCESS:          0  dtHIT:          0  dtMISS:          0
LLC PREFETCH     ACCESS:    4243286  HIT:    2633634  MISS:    1609652  iACCESS:    2134951  iHIT:    1516884  iMISS:     618067  dACCESS:    2108335  dHIT:    1116750  dMISS:     991585  itACCESS:          0  itHIT:          0  itMISS:          0  dtACCESS:          0  dtHIT:          0  dtMISS:          0
LLC WRITE        ACCESS:     268041  HIT:     259918  MISS:       8123  iACCESS:          0  iHIT:          0  iMISS:          0  dACCESS:     268041  dHIT:     259918  dMISS:       8123  itACCESS:          0  itHIT:          0  itMISS:          0  dtACCESS:          0  dtHIT:          0  dtMISS:          0
LLC TRANSLATION  ACCESS:     267183  HIT:      64593  MISS:     202590  iACCESS:          0  iHIT:          0  iMISS:          0  dACCESS:          0  dHIT:          0  dMISS:          0  itACCESS:      66261  itHIT:      16307  itMISS:      49954  dtACCESS:     200922  dtHIT:      48286  dtMISS:     152636
LLC PREFETCH  REQUESTED:          0  ISSUED:          0  CROSSED:          0  USEFUL:          0  USELESS:          0
LLC AVERAGE iMISS LATENCY: 48.9287 cycles
LLC AVERAGE dMISS LATENCY: 106.387 cycles
LLC AVERAGE itMISS LATENCY: 3.56897 cycles
LLC AVERAGE dtMISS LATENCY: 11.5271 cycles
LLC PAGE CROSSINGS (TLB HIT):         0 
LLC PAGE CROSSINGS (TLB MISS):         0 
LLC AVERAGE MISS LATENCY: 170.412 cycles

PageTableWalker TOTAL       ACCESS:     172882  
PageTableWalker AVERAGE LATENCY: 5.85871 cycles
PageTableWalker TOTAL LATENCY: 1012864 cycles

DRAM Statistics
Channel 0
 RQ ROW_BUFFER_HIT:     559287
  ROW_BUFFER_MISS:    1920826
 AVG DBUS CONGESTED CYCLE:    3.64908
 WQ ROW_BUFFER_HIT:      61251
  ROW_BUFFER_MISS:      58059  FULL:          0

