last_page:0x200000000000000
VMEM_RES_CAP:0x100000
PAGE_SIZE:4096
LOG2_PAGE_SIZE:12
LOG2_PAGE_TABLE_SIZE:9
page_table_levels:5
WARNING: physical memory size is smaller than virtual memory size
FDiP enabled with aggresivity 16

*** ChampSim Multicore Out-of-Order Simulator ***

Warmup Instructions: 50000000
Simulation Instructions: 100000000
Number of CPUs: 1
Small page size: 4096
Large page size: 2097152

CPU 0 Bimodal branch predictor
Basic BTB sets: 1024 ways: 8 indirect buffer size: 4096 RAS size: 64
Instruction page size distrubution: 0
Loading instruction page size distribution from /home/bsc/bsc018186/scratch/itp_asplos25_AE/dump/smt_srv12_ap_srv495_ap_1024i.pdst
Data page size distrubution: 0
Loading data page size distribution from /home/bsc/bsc018186/scratch/itp_asplos25_AE/dump/smt_srv12_ap_srv495_ap_1024i.pdst
cpu0_L2C IP-based stride prefetcher
cpu0_L1D next line prefetcher
cpu0_L1I next line prefetcher
Off-chip DRAM Size: 4 GiB Channels: 1 Width: 64-bit Data Rate: 3200 MT/s
Heartbeat CPU 0 instructions: 10000000 cycles: 2500553 heartbeat IPC: 3.99912 cumulative IPC: 3.99912 (Simulation time: 0 hr 0 min 44 sec) 
Heartbeat CPU 0 instructions: 20000002 cycles: 5000641 heartbeat IPC: 3.99987 cumulative IPC: 3.99949 (Simulation time: 0 hr 1 min 31 sec) 
Heartbeat CPU 0 instructions: 30000000 cycles: 7501616 heartbeat IPC: 3.99844 cumulative IPC: 3.99914 (Simulation time: 0 hr 2 min 19 sec) 
Heartbeat CPU 0 instructions: 40000003 cycles: 10001841 heartbeat IPC: 3.99965 cumulative IPC: 3.99927 (Simulation time: 0 hr 3 min 7 sec) 
Heartbeat CPU 0 instructions: 50000000 cycles: 12502089 heartbeat IPC: 3.99961 cumulative IPC: 3.99934 (Simulation time: 0 hr 3 min 54 sec) 
Warmup finished CPU 0 instructions: 50000000 cycles: 12502090 cumulative IPC: 3.99934 (Simulation time: 0 hr 3 min 54 sec) 

Warmup complete CPU 0 instructions: 50000000 cycles: 12502090 (Simulation time: 0 hr 3 min 54 sec) 

Heartbeat CPU 0 instructions: 60000001 cycles: 41957533 heartbeat IPC: 0.339496 cumulative IPC: 0.339496 (Simulation time: 0 hr 5 min 30 sec) 
Heartbeat CPU 0 instructions: 70000003 cycles: 70804368 heartbeat IPC: 0.346659 cumulative IPC: 0.34304 (Simulation time: 0 hr 7 min 9 sec) 
Heartbeat CPU 0 instructions: 80000000 cycles: 100378030 heartbeat IPC: 0.338139 cumulative IPC: 0.341391 (Simulation time: 0 hr 8 min 44 sec) 
Heartbeat CPU 0 instructions: 90000000 cycles: 126892319 heartbeat IPC: 0.377156 cumulative IPC: 0.349681 (Simulation time: 0 hr 10 min 18 sec) 
Heartbeat CPU 0 instructions: 100000001 cycles: 155293762 heartbeat IPC: 0.352095 cumulative IPC: 0.350161 (Simulation time: 0 hr 11 min 52 sec) 
Heartbeat CPU 0 instructions: 110000000 cycles: 184433857 heartbeat IPC: 0.34317 cumulative IPC: 0.348976 (Simulation time: 0 hr 13 min 20 sec) 
Heartbeat CPU 0 instructions: 120000000 cycles: 212811142 heartbeat IPC: 0.352395 cumulative IPC: 0.34946 (Simulation time: 0 hr 14 min 48 sec) 
Heartbeat CPU 0 instructions: 130000002 cycles: 241106353 heartbeat IPC: 0.353417 cumulative IPC: 0.34995 (Simulation time: 0 hr 16 min 13 sec) 
Heartbeat CPU 0 instructions: 140000000 cycles: 269515123 heartbeat IPC: 0.352004 cumulative IPC: 0.350177 (Simulation time: 0 hr 17 min 39 sec) 
Heartbeat CPU 0 instructions: 150000002 cycles: 297776534 heartbeat IPC: 0.35384 cumulative IPC: 0.35054 (Simulation time: 0 hr 19 min 8 sec) 
Simulation finished CPU 0 instructions: 100000002 cycles: 285274445 cumulative IPC: 0.35054 (Simulation time: 0 hr 19 min 8 sec) 

Simulation complete CPU 0 instructions: 100000002 cycles: 285274445 (Simulation time: 0 hr 19 min 8 sec) 


ChampSim completed all CPUs

Saving instructions large page distribution to /home/bsc/bsc018186/scratch/itp_asplos25_AE/dump/smt_srv12_ap_srv495_ap_1024i.pdst...
Saving data large page distribution to /home/bsc/bsc018186/scratch/itp_asplos25_AE/dump/smt_srv12_ap_srv495_ap_1024i.pdst...
=== Simulation ===
CPU 0 runs /gpfs/projects/bsc18/MN4/bsc18/romol/ChampSim/traces/qualcomm_srv/smt_srv12_ap_srv495_ap_1024i.champsimtrace.xz

Region of Interest Statistics

CPU 0 cumulative IPC: 0.35054 instructions: 100000002 cycles: 285274445
CPU 0 Branch Prediction Accuracy: 74.6867% MPKI: 45.8673 Average ROB Occupancy at Mispredict: 10.2437
Branch type MPKI
BRANCH_DIRECT_JUMP: 1.43963
BRANCH_INDIRECT: 23.3814
BRANCH_CONDITIONAL: 13.5832
BRANCH_DIRECT_CALL: 2.79
BRANCH_INDIRECT_CALL: 1.12068
BRANCH_RETURN: 3.55247

Instructions large pages: 0
Instructions small pages: 11363
Large page distribution for instructions: 0%

Data large pages: 0
Data small pages: 9536
Large page distribution for data: 0%

cpu0_L1I TOTAL       ACCESS:   39645455  HIT:   30391308  MISS:    9254147  iACCESS:   39645455  iHIT:   30391308  iMISS:    9254147  dACCESS:          0  dHIT:          0  dMISS:          0  itACCESS:          0  itHIT:          0  itMISS:          0  dtACCESS:          0  dtHIT:          0  dtMISS:          0
cpu0_L1I LOAD         ACCESS:   11768799  HIT:    9263466  MISS:    2505333  iACCESS:   11768799  iHIT:    9263466  iMISS:    2505333  dACCESS:          0  dHIT:          0  dMISS:          0  itACCESS:          0  itHIT:          0  itMISS:          0  dtACCESS:          0  dtHIT:          0  dtMISS:          0
cpu0_L1I RFO          ACCESS:          0  HIT:          0  MISS:          0  iACCESS:          0  iHIT:          0  iMISS:          0  dACCESS:          0  dHIT:          0  dMISS:          0  itACCESS:          0  itHIT:          0  itMISS:          0  dtACCESS:          0  dtHIT:          0  dtMISS:          0
cpu0_L1I PREFETCH     ACCESS:   27876656  HIT:   21127842  MISS:    6748814  iACCESS:   27876656  iHIT:   21127842  iMISS:    6748814  dACCESS:          0  dHIT:          0  dMISS:          0  itACCESS:          0  itHIT:          0  itMISS:          0  dtACCESS:          0  dtHIT:          0  dtMISS:          0
cpu0_L1I WRITE        ACCESS:          0  HIT:          0  MISS:          0  iACCESS:          0  iHIT:          0  iMISS:          0  dACCESS:          0  dHIT:          0  dMISS:          0  itACCESS:          0  itHIT:          0  itMISS:          0  dtACCESS:          0  dtHIT:          0  dtMISS:          0
cpu0_L1I TRANSLATION  ACCESS:          0  HIT:          0  MISS:          0  iACCESS:          0  iHIT:          0  iMISS:          0  dACCESS:          0  dHIT:          0  dMISS:          0  itACCESS:          0  itHIT:          0  itMISS:          0  dtACCESS:          0  dtHIT:          0  dtMISS:          0
cpu0_L1I PREFETCH  REQUESTED:   30410155  ISSUED:   30408714  CROSSED:          0  USEFUL:    2226696  USELESS:     773708
cpu0_L1I AVERAGE iMISS LATENCY: 25.1842 cycles
cpu0_L1I AVERAGE dMISS LATENCY: 0 cycles
cpu0_L1I AVERAGE itMISS LATENCY: 0 cycles
cpu0_L1I AVERAGE dtMISS LATENCY: 0 cycles
cpu0_L1I PAGE CROSSINGS (TLB HIT):         0 
cpu0_L1I PAGE CROSSINGS (TLB MISS):         0 
cpu0_L1I AVERAGE MISS LATENCY: 25.1842 cycles
cpu0_ITLB TOTAL       ACCESS:   33420936  HIT:   31175353  MISS:    2245583  iACCESS:   33420936  iHIT:   31175353  iMISS:    2245583  dACCESS:          0  dHIT:          0  dMISS:          0  itACCESS:          0  itHIT:          0  itMISS:          0  dtACCESS:          0  dtHIT:          0  dtMISS:          0
cpu0_ITLB LOAD         ACCESS:   33420936  HIT:   31175353  MISS:    2245583  iACCESS:   33420936  iHIT:   31175353  iMISS:    2245583  dACCESS:          0  dHIT:          0  dMISS:          0  itACCESS:          0  itHIT:          0  itMISS:          0  dtACCESS:          0  dtHIT:          0  dtMISS:          0
cpu0_ITLB RFO          ACCESS:          0  HIT:          0  MISS:          0  iACCESS:          0  iHIT:          0  iMISS:          0  dACCESS:          0  dHIT:          0  dMISS:          0  itACCESS:          0  itHIT:          0  itMISS:          0  dtACCESS:          0  dtHIT:          0  dtMISS:          0
cpu0_ITLB PREFETCH     ACCESS:          0  HIT:          0  MISS:          0  iACCESS:          0  iHIT:          0  iMISS:          0  dACCESS:          0  dHIT:          0  dMISS:          0  itACCESS:          0  itHIT:          0  itMISS:          0  dtACCESS:          0  dtHIT:          0  dtMISS:          0
cpu0_ITLB WRITE        ACCESS:          0  HIT:          0  MISS:          0  iACCESS:          0  iHIT:          0  iMISS:          0  dACCESS:          0  dHIT:          0  dMISS:          0  itACCESS:          0  itHIT:          0  itMISS:          0  dtACCESS:          0  dtHIT:          0  dtMISS:          0
cpu0_ITLB TRANSLATION  ACCESS:          0  HIT:          0  MISS:          0  iACCESS:          0  iHIT:          0  iMISS:          0  dACCESS:          0  dHIT:          0  dMISS:          0  itACCESS:          0  itHIT:          0  itMISS:          0  dtACCESS:          0  dtHIT:          0  dtMISS:          0
cpu0_ITLB PREFETCH  REQUESTED:          0  ISSUED:          0  CROSSED:          0  USEFUL:     396840  USELESS:      80603
cpu0_ITLB AVERAGE iMISS LATENCY: 8.15757 cycles
cpu0_ITLB AVERAGE dMISS LATENCY: 0 cycles
cpu0_ITLB AVERAGE itMISS LATENCY: 0 cycles
cpu0_ITLB AVERAGE dtMISS LATENCY: 0 cycles
cpu0_ITLB PAGE CROSSINGS (TLB HIT):         0 
cpu0_ITLB PAGE CROSSINGS (TLB MISS):         0 
cpu0_ITLB AVERAGE MISS LATENCY: 8.15757 cycles
cpu0_DTLB TOTAL       ACCESS:   29007138  HIT:   25475075  MISS:    3532063  iACCESS:          0  iHIT:          0  iMISS:          0  dACCESS:   29007138  dHIT:   25475075  dMISS:    3532063  itACCESS:          0  itHIT:          0  itMISS:          0  dtACCESS:          0  dtHIT:          0  dtMISS:          0
cpu0_DTLB LOAD         ACCESS:   29007138  HIT:   25475075  MISS:    3532063  iACCESS:          0  iHIT:          0  iMISS:          0  dACCESS:   29007138  dHIT:   25475075  dMISS:    3532063  itACCESS:          0  itHIT:          0  itMISS:          0  dtACCESS:          0  dtHIT:          0  dtMISS:          0
cpu0_DTLB RFO          ACCESS:          0  HIT:          0  MISS:          0  iACCESS:          0  iHIT:          0  iMISS:          0  dACCESS:          0  dHIT:          0  dMISS:          0  itACCESS:          0  itHIT:          0  itMISS:          0  dtACCESS:          0  dtHIT:          0  dtMISS:          0
cpu0_DTLB PREFETCH     ACCESS:          0  HIT:          0  MISS:          0  iACCESS:          0  iHIT:          0  iMISS:          0  dACCESS:          0  dHIT:          0  dMISS:          0  itACCESS:          0  itHIT:          0  itMISS:          0  dtACCESS:          0  dtHIT:          0  dtMISS:          0
cpu0_DTLB WRITE        ACCESS:          0  HIT:          0  MISS:          0  iACCESS:          0  iHIT:          0  iMISS:          0  dACCESS:          0  dHIT:          0  dMISS:          0  itACCESS:          0  itHIT:          0  itMISS:          0  dtACCESS:          0  dtHIT:          0  dtMISS:          0
cpu0_DTLB TRANSLATION  ACCESS:          0  HIT:          0  MISS:          0  iACCESS:          0  iHIT:          0  iMISS:          0  dACCESS:          0  dHIT:          0  dMISS:          0  itACCESS:          0  itHIT:          0  itMISS:          0  dtACCESS:          0  dtHIT:          0  dtMISS:          0
cpu0_DTLB PREFETCH  REQUESTED:          0  ISSUED:          0  CROSSED:          0  USEFUL:          0  USELESS:          0
cpu0_DTLB AVERAGE iMISS LATENCY: 0 cycles
cpu0_DTLB AVERAGE dMISS LATENCY: 17.5549 cycles
cpu0_DTLB AVERAGE itMISS LATENCY: 0 cycles
cpu0_DTLB AVERAGE dtMISS LATENCY: 0 cycles
cpu0_DTLB PAGE CROSSINGS (TLB HIT):         0 
cpu0_DTLB PAGE CROSSINGS (TLB MISS):         0 
cpu0_DTLB AVERAGE MISS LATENCY: 17.5549 cycles
cpu0_STLB TOTAL       ACCESS:    2561025  HIT:    2179043  MISS:     381982  iACCESS:     477452  iHIT:     357254  iMISS:     120198  dACCESS:    2083573  dHIT:    1821789  dMISS:     261784  itACCESS:          0  itHIT:          0  itMISS:          0  dtACCESS:          0  dtHIT:          0  dtMISS:          0
cpu0_STLB LOAD         ACCESS:    2561025  HIT:    2179043  MISS:     381982  iACCESS:     477452  iHIT:     357254  iMISS:     120198  dACCESS:    2083573  dHIT:    1821789  dMISS:     261784  itACCESS:          0  itHIT:          0  itMISS:          0  dtACCESS:          0  dtHIT:          0  dtMISS:          0
cpu0_STLB RFO          ACCESS:          0  HIT:          0  MISS:          0  iACCESS:          0  iHIT:          0  iMISS:          0  dACCESS:          0  dHIT:          0  dMISS:          0  itACCESS:          0  itHIT:          0  itMISS:          0  dtACCESS:          0  dtHIT:          0  dtMISS:          0
cpu0_STLB PREFETCH     ACCESS:          0  HIT:          0  MISS:          0  iACCESS:          0  iHIT:          0  iMISS:          0  dACCESS:          0  dHIT:          0  dMISS:          0  itACCESS:          0  itHIT:          0  itMISS:          0  dtACCESS:          0  dtHIT:          0  dtMISS:          0
cpu0_STLB WRITE        ACCESS:          0  HIT:          0  MISS:          0  iACCESS:          0  iHIT:          0  iMISS:          0  dACCESS:          0  dHIT:          0  dMISS:          0  itACCESS:          0  itHIT:          0  itMISS:          0  dtACCESS:          0  dtHIT:          0  dtMISS:          0
cpu0_STLB TRANSLATION  ACCESS:          0  HIT:          0  MISS:          0  iACCESS:          0  iHIT:          0  iMISS:          0  dACCESS:          0  dHIT:          0  dMISS:          0  itACCESS:          0  itHIT:          0  itMISS:          0  dtACCESS:          0  dtHIT:          0  dtMISS:          0
cpu0_STLB PREFETCH  REQUESTED:          0  ISSUED:          0  CROSSED:          0  USEFUL:          0  USELESS:          0
cpu0_STLB AVERAGE iMISS LATENCY: 37.9575 cycles
cpu0_STLB AVERAGE dMISS LATENCY: 118.481 cycles
cpu0_STLB AVERAGE itMISS LATENCY: 0 cycles
cpu0_STLB AVERAGE dtMISS LATENCY: 0 cycles
cpu0_STLB PAGE CROSSINGS (TLB HIT):         0 
cpu0_STLB PAGE CROSSINGS (TLB MISS):         0 
cpu0_STLB AVERAGE MISS LATENCY: 156.439 cycles
cpu0_L1D TOTAL       ACCESS:   45153926  HIT:   39366981  MISS:    5786945  iACCESS:          0  iHIT:          0  iMISS:          0  dACCESS:   44591869  dHIT:   39333350  dMISS:    5258519  itACCESS:     135143  itHIT:      15257  itMISS:     119886  dtACCESS:     426914  dtHIT:      18374  dtMISS:     408540
cpu0_L1D LOAD         ACCESS:   20374643  HIT:   18028517  MISS:    2346126  iACCESS:          0  iHIT:          0  iMISS:          0  dACCESS:   20374643  dHIT:   18028517  dMISS:    2346126  itACCESS:          0  itHIT:          0  itMISS:          0  dtACCESS:          0  dtHIT:          0  dtMISS:          0
cpu0_L1D RFO          ACCESS:          0  HIT:          0  MISS:          0  iACCESS:          0  iHIT:          0  iMISS:          0  dACCESS:          0  dHIT:          0  dMISS:          0  itACCESS:          0  itHIT:          0  itMISS:          0  dtACCESS:          0  dtHIT:          0  dtMISS:          0
cpu0_L1D PREFETCH     ACCESS:   14044511  HIT:   11711626  MISS:    2332885  iACCESS:          0  iHIT:          0  iMISS:          0  dACCESS:   14044511  dHIT:   11711626  dMISS:    2332885  itACCESS:          0  itHIT:          0  itMISS:          0  dtACCESS:          0  dtHIT:          0  dtMISS:          0
cpu0_L1D WRITE        ACCESS:   10172715  HIT:    9593207  MISS:     579508  iACCESS:          0  iHIT:          0  iMISS:          0  dACCESS:   10172715  dHIT:    9593207  dMISS:     579508  itACCESS:          0  itHIT:          0  itMISS:          0  dtACCESS:          0  dtHIT:          0  dtMISS:          0
cpu0_L1D TRANSLATION  ACCESS:     562057  HIT:      33631  MISS:     528426  iACCESS:          0  iHIT:          0  iMISS:          0  dACCESS:          0  dHIT:          0  dMISS:          0  itACCESS:     135143  itHIT:      15257  itMISS:     119886  dtACCESS:     426914  dtHIT:      18374  dtMISS:     408540
cpu0_L1D PREFETCH  REQUESTED:   20374643  ISSUED:   18600085  CROSSED:          0  USEFUL:     364388  USELESS:     933253
cpu0_L1D AVERAGE iMISS LATENCY: 0 cycles
cpu0_L1D AVERAGE dMISS LATENCY: 51.3509 cycles
cpu0_L1D AVERAGE itMISS LATENCY: 2.29677 cycles
cpu0_L1D AVERAGE dtMISS LATENCY: 7.01106 cycles
cpu0_L1D PAGE CROSSINGS (TLB HIT):         0 
cpu0_L1D PAGE CROSSINGS (TLB MISS):         0 
cpu0_L1D AVERAGE MISS LATENCY: 60.6587 cycles
cpu0_L2C TOTAL       ACCESS:    8672878  HIT:    1490899  MISS:    7181979  iACCESS:    3806985  iHIT:     765351  iMISS:    3041634  dACCESS:    4372749  dHIT:     528702  dMISS:    3844047  itACCESS:     118633  itHIT:      41603  itMISS:      77030  dtACCESS:     374511  dtHIT:     155243  dtMISS:     219268
cpu0_L2C LOAD         ACCESS:    2049569  HIT:     193840  MISS:    1855729  iACCESS:     842131  iHIT:     105367  iMISS:     736764  dACCESS:    1207438  dHIT:      88473  dMISS:    1118965  itACCESS:          0  itHIT:          0  itMISS:          0  dtACCESS:          0  dtHIT:          0  dtMISS:          0
cpu0_L2C RFO          ACCESS:     214903  HIT:      27156  MISS:     187747  iACCESS:          0  iHIT:          0  iMISS:          0  dACCESS:     214903  dHIT:      27156  dMISS:     187747  itACCESS:          0  itHIT:          0  itMISS:          0  dtACCESS:          0  dtHIT:          0  dtMISS:          0
cpu0_L2C PREFETCH     ACCESS:    5575480  HIT:     976961  MISS:    4598519  iACCESS:    2964854  iHIT:     659984  iMISS:    2304870  dACCESS:    2610626  dHIT:     316977  dMISS:    2293649  itACCESS:          0  itHIT:          0  itMISS:          0  dtACCESS:          0  dtHIT:          0  dtMISS:          0
cpu0_L2C WRITE        ACCESS:     339782  HIT:      96096  MISS:     243686  iACCESS:          0  iHIT:          0  iMISS:          0  dACCESS:     339782  dHIT:      96096  dMISS:     243686  itACCESS:          0  itHIT:          0  itMISS:          0  dtACCESS:          0  dtHIT:          0  dtMISS:          0
cpu0_L2C TRANSLATION  ACCESS:     493144  HIT:     196846  MISS:     296298  iACCESS:          0  iHIT:          0  iMISS:          0  dACCESS:          0  dHIT:          0  dMISS:          0  itACCESS:     118633  itHIT:      41603  itMISS:      77030  dtACCESS:     374511  dtHIT:     155243  dtMISS:     219268
cpu0_L2C PREFETCH  REQUESTED:    1550330  ISSUED:    1550324  CROSSED:          0  USEFUL:     422509  USELESS:     501199
cpu0_L2C AVERAGE iMISS LATENCY: 27.9458 cycles
cpu0_L2C AVERAGE dMISS LATENCY: 51.4249 cycles
cpu0_L2C AVERAGE itMISS LATENCY: 1.69082 cycles
cpu0_L2C AVERAGE dtMISS LATENCY: 5.14717 cycles
cpu0_L2C PAGE CROSSINGS (TLB HIT):         0 
cpu0_L2C PAGE CROSSINGS (TLB MISS):         0 
cpu0_L2C AVERAGE MISS LATENCY: 86.2087 cycles
LLC TOTAL       ACCESS:    6981224  HIT:    4132358  MISS:    2848866  iACCESS:    2946867  iHIT:    2035392  iMISS:     911475  dACCESS:    3738059  dHIT:    2029200  dMISS:    1708859  itACCESS:      77030  itHIT:      17402  itMISS:      59628  dtACCESS:     219268  dtHIT:      50364  dtMISS:     168904
LLC LOAD         ACCESS:    1848434  HIT:    1165088  MISS:     683346  iACCESS:     735355  iHIT:     545246  iMISS:     190109  dACCESS:    1113079  dHIT:     619842  dMISS:     493237  itACCESS:          0  itHIT:          0  itMISS:          0  dtACCESS:          0  dtHIT:          0  dtMISS:          0
LLC RFO          ACCESS:     187690  HIT:      93592  MISS:      94098  iACCESS:          0  iHIT:          0  iMISS:          0  dACCESS:     187690  dHIT:      93592  dMISS:      94098  itACCESS:          0  itHIT:          0  itMISS:          0  dtACCESS:          0  dtHIT:          0  dtMISS:          0
LLC PREFETCH     ACCESS:    4376564  HIT:    2539841  MISS:    1836723  iACCESS:    2211512  iHIT:    1490146  iMISS:     721366  dACCESS:    2165052  dHIT:    1049695  dMISS:    1115357  itACCESS:          0  itHIT:          0  itMISS:          0  dtACCESS:          0  dtHIT:          0  dtMISS:          0
LLC WRITE        ACCESS:     272238  HIT:     266071  MISS:       6167  iACCESS:          0  iHIT:          0  iMISS:          0  dACCESS:     272238  dHIT:     266071  dMISS:       6167  itACCESS:          0  itHIT:          0  itMISS:          0  dtACCESS:          0  dtHIT:          0  dtMISS:          0
LLC TRANSLATION  ACCESS:     296298  HIT:      67766  MISS:     228532  iACCESS:          0  iHIT:          0  iMISS:          0  dACCESS:          0  dHIT:          0  dMISS:          0  itACCESS:      77030  itHIT:      17402  itMISS:      59628  dtACCESS:     219268  dtHIT:      50364  dtMISS:     168904
LLC PREFETCH  REQUESTED:          0  ISSUED:          0  CROSSED:          0  USEFUL:          0  USELESS:          0
LLC AVERAGE iMISS LATENCY: 50.3509 cycles
LLC AVERAGE dMISS LATENCY: 106.89 cycles
LLC AVERAGE itMISS LATENCY: 3.7296 cycles
LLC AVERAGE dtMISS LATENCY: 11.4602 cycles
LLC PAGE CROSSINGS (TLB HIT):         0 
LLC PAGE CROSSINGS (TLB MISS):         0 
LLC AVERAGE MISS LATENCY: 172.43 cycles

PageTableWalker TOTAL       ACCESS:     186600  
PageTableWalker AVERAGE LATENCY: 5.85771 cycles
PageTableWalker TOTAL LATENCY: 1093048 cycles

DRAM Statistics
Channel 0
 RQ ROW_BUFFER_HIT:     635565
  ROW_BUFFER_MISS:    2188689
 AVG DBUS CONGESTED CYCLE:    3.65818
 WQ ROW_BUFFER_HIT:      68130
  ROW_BUFFER_MISS:      62574  FULL:          0

