last_page:0x200000000000000
VMEM_RES_CAP:0x100000
PAGE_SIZE:4096
LOG2_PAGE_SIZE:12
LOG2_PAGE_TABLE_SIZE:9
page_table_levels:5
WARNING: physical memory size is smaller than virtual memory size
FDiP enabled with aggresivity 16

*** ChampSim Multicore Out-of-Order Simulator ***

Warmup Instructions: 50000000
Simulation Instructions: 100000000
Number of CPUs: 1
Small page size: 4096
Large page size: 2097152

CPU 0 Bimodal branch predictor
Basic BTB sets: 1024 ways: 8 indirect buffer size: 4096 RAS size: 64
Instruction page size distrubution: 0
Loading instruction page size distribution from /home/bsc/bsc018186/scratch/itp_asplos25_AE/dump/smt_srv207_ap_srv346_ap_1024i.pdst
Data page size distrubution: 0
Loading data page size distribution from /home/bsc/bsc018186/scratch/itp_asplos25_AE/dump/smt_srv207_ap_srv346_ap_1024i.pdst
cpu0_L2C IP-based stride prefetcher
cpu0_L1D next line prefetcher
CHiRPing...
cpu0_L1I next line prefetcher
Off-chip DRAM Size: 4 GiB Channels: 1 Width: 64-bit Data Rate: 3200 MT/s
Heartbeat CPU 0 instructions: 10000002 cycles: 2500633 heartbeat IPC: 3.99899 cumulative IPC: 3.99899 (Simulation time: 0 hr 0 min 40 sec) 
Heartbeat CPU 0 instructions: 20000003 cycles: 5000899 heartbeat IPC: 3.99958 cumulative IPC: 3.99929 (Simulation time: 0 hr 1 min 22 sec) 
Heartbeat CPU 0 instructions: 30000000 cycles: 7501125 heartbeat IPC: 3.99964 cumulative IPC: 3.99941 (Simulation time: 0 hr 2 min 5 sec) 
Heartbeat CPU 0 instructions: 40000002 cycles: 10001528 heartbeat IPC: 3.99936 cumulative IPC: 3.99939 (Simulation time: 0 hr 2 min 48 sec) 
Heartbeat CPU 0 instructions: 50000000 cycles: 12502057 heartbeat IPC: 3.99916 cumulative IPC: 3.99935 (Simulation time: 0 hr 3 min 30 sec) 
Warmup finished CPU 0 instructions: 50000000 cycles: 12502058 cumulative IPC: 3.99935 (Simulation time: 0 hr 3 min 30 sec) 

Warmup complete CPU 0 instructions: 50000000 cycles: 12502058 (Simulation time: 0 hr 3 min 30 sec) 

Heartbeat CPU 0 instructions: 60000000 cycles: 40041632 heartbeat IPC: 0.363114 cumulative IPC: 0.363114 (Simulation time: 0 hr 4 min 55 sec) 
Heartbeat CPU 0 instructions: 70000003 cycles: 67405302 heartbeat IPC: 0.365449 cumulative IPC: 0.364278 (Simulation time: 0 hr 6 min 19 sec) 
Heartbeat CPU 0 instructions: 80000001 cycles: 96331196 heartbeat IPC: 0.345711 cumulative IPC: 0.357871 (Simulation time: 0 hr 7 min 45 sec) 
Heartbeat CPU 0 instructions: 90000000 cycles: 123446011 heartbeat IPC: 0.368803 cumulative IPC: 0.360543 (Simulation time: 0 hr 9 min 9 sec) 
Heartbeat CPU 0 instructions: 100000003 cycles: 150717917 heartbeat IPC: 0.366678 cumulative IPC: 0.361754 (Simulation time: 0 hr 10 min 33 sec) 
Heartbeat CPU 0 instructions: 110000001 cycles: 178224401 heartbeat IPC: 0.363551 cumulative IPC: 0.362052 (Simulation time: 0 hr 11 min 58 sec) 
Heartbeat CPU 0 instructions: 120000000 cycles: 205450471 heartbeat IPC: 0.367295 cumulative IPC: 0.362792 (Simulation time: 0 hr 13 min 24 sec) 
Heartbeat CPU 0 instructions: 130000002 cycles: 232357691 heartbeat IPC: 0.371648 cumulative IPC: 0.363876 (Simulation time: 0 hr 14 min 49 sec) 
Heartbeat CPU 0 instructions: 140000002 cycles: 260343860 heartbeat IPC: 0.35732 cumulative IPC: 0.363135 (Simulation time: 0 hr 16 min 15 sec) 
Heartbeat CPU 0 instructions: 150000000 cycles: 287266173 heartbeat IPC: 0.37144 cumulative IPC: 0.363949 (Simulation time: 0 hr 17 min 41 sec) 
Simulation finished CPU 0 instructions: 100000000 cycles: 274764116 cumulative IPC: 0.363949 (Simulation time: 0 hr 17 min 41 sec) 

Simulation complete CPU 0 instructions: 100000000 cycles: 274764116 (Simulation time: 0 hr 17 min 41 sec) 


ChampSim completed all CPUs

Saving instructions large page distribution to /home/bsc/bsc018186/scratch/itp_asplos25_AE/dump/smt_srv207_ap_srv346_ap_1024i.pdst...
Saving data large page distribution to /home/bsc/bsc018186/scratch/itp_asplos25_AE/dump/smt_srv207_ap_srv346_ap_1024i.pdst...
=== Simulation ===
CPU 0 runs /gpfs/projects/bsc18/MN4/bsc18/romol/ChampSim/traces/qualcomm_srv/smt_srv207_ap_srv346_ap_1024i.champsimtrace.xz

Region of Interest Statistics

CPU 0 cumulative IPC: 0.363949 instructions: 100000000 cycles: 274764116
CPU 0 Branch Prediction Accuracy: 75.4377% MPKI: 44.1056 Average ROB Occupancy at Mispredict: 11.0347
Branch type MPKI
BRANCH_DIRECT_JUMP: 1.34655
BRANCH_INDIRECT: 23.3342
BRANCH_CONDITIONAL: 12.4584
BRANCH_DIRECT_CALL: 2.53533
BRANCH_INDIRECT_CALL: 0.940281
BRANCH_RETURN: 3.49092

Instructions large pages: 0
Instructions small pages: 14696
Large page distribution for instructions: 0%

Data large pages: 0
Data small pages: 13288
Large page distribution for data: 0%

cpu0_L1I TOTAL       ACCESS:   39258589  HIT:   30106384  MISS:    9152205  iACCESS:   39258589  iHIT:   30106384  iMISS:    9152205  dACCESS:          0  dHIT:          0  dMISS:          0  itACCESS:          0  itHIT:          0  itMISS:          0  dtACCESS:          0  dtHIT:          0  dtMISS:          0
cpu0_L1I LOAD         ACCESS:   11663177  HIT:    9173336  MISS:    2489841  iACCESS:   11663177  iHIT:    9173336  iMISS:    2489841  dACCESS:          0  dHIT:          0  dMISS:          0  itACCESS:          0  itHIT:          0  itMISS:          0  dtACCESS:          0  dtHIT:          0  dtMISS:          0
cpu0_L1I RFO          ACCESS:          0  HIT:          0  MISS:          0  iACCESS:          0  iHIT:          0  iMISS:          0  dACCESS:          0  dHIT:          0  dMISS:          0  itACCESS:          0  itHIT:          0  itMISS:          0  dtACCESS:          0  dtHIT:          0  dtMISS:          0
cpu0_L1I PREFETCH     ACCESS:   27595412  HIT:   20933048  MISS:    6662364  iACCESS:   27595412  iHIT:   20933048  iMISS:    6662364  dACCESS:          0  dHIT:          0  dMISS:          0  itACCESS:          0  itHIT:          0  itMISS:          0  dtACCESS:          0  dtHIT:          0  dtMISS:          0
cpu0_L1I WRITE        ACCESS:          0  HIT:          0  MISS:          0  iACCESS:          0  iHIT:          0  iMISS:          0  dACCESS:          0  dHIT:          0  dMISS:          0  itACCESS:          0  itHIT:          0  itMISS:          0  dtACCESS:          0  dtHIT:          0  dtMISS:          0
cpu0_L1I TRANSLATION  ACCESS:          0  HIT:          0  MISS:          0  iACCESS:          0  iHIT:          0  iMISS:          0  dACCESS:          0  dHIT:          0  dMISS:          0  itACCESS:          0  itHIT:          0  itMISS:          0  dtACCESS:          0  dtHIT:          0  dtMISS:          0
cpu0_L1I PREFETCH  REQUESTED:   30169936  ISSUED:   30168553  CROSSED:          0  USEFUL:    2186796  USELESS:     771923
cpu0_L1I AVERAGE iMISS LATENCY: 23.8679 cycles
cpu0_L1I AVERAGE dMISS LATENCY: 0 cycles
cpu0_L1I AVERAGE itMISS LATENCY: 0 cycles
cpu0_L1I AVERAGE dtMISS LATENCY: 0 cycles
cpu0_L1I PAGE CROSSINGS (TLB HIT):         0 
cpu0_L1I PAGE CROSSINGS (TLB MISS):         0 
cpu0_L1I AVERAGE MISS LATENCY: 23.8679 cycles
cpu0_ITLB TOTAL       ACCESS:   33003642  HIT:   30787369  MISS:    2216273  iACCESS:   33003642  iHIT:   30787369  iMISS:    2216273  dACCESS:          0  dHIT:          0  dMISS:          0  itACCESS:          0  itHIT:          0  itMISS:          0  dtACCESS:          0  dtHIT:          0  dtMISS:          0
cpu0_ITLB LOAD         ACCESS:   33003642  HIT:   30787369  MISS:    2216273  iACCESS:   33003642  iHIT:   30787369  iMISS:    2216273  dACCESS:          0  dHIT:          0  dMISS:          0  itACCESS:          0  itHIT:          0  itMISS:          0  dtACCESS:          0  dtHIT:          0  dtMISS:          0
cpu0_ITLB RFO          ACCESS:          0  HIT:          0  MISS:          0  iACCESS:          0  iHIT:          0  iMISS:          0  dACCESS:          0  dHIT:          0  dMISS:          0  itACCESS:          0  itHIT:          0  itMISS:          0  dtACCESS:          0  dtHIT:          0  dtMISS:          0
cpu0_ITLB PREFETCH     ACCESS:          0  HIT:          0  MISS:          0  iACCESS:          0  iHIT:          0  iMISS:          0  dACCESS:          0  dHIT:          0  dMISS:          0  itACCESS:          0  itHIT:          0  itMISS:          0  dtACCESS:          0  dtHIT:          0  dtMISS:          0
cpu0_ITLB WRITE        ACCESS:          0  HIT:          0  MISS:          0  iACCESS:          0  iHIT:          0  iMISS:          0  dACCESS:          0  dHIT:          0  dMISS:          0  itACCESS:          0  itHIT:          0  itMISS:          0  dtACCESS:          0  dtHIT:          0  dtMISS:          0
cpu0_ITLB TRANSLATION  ACCESS:          0  HIT:          0  MISS:          0  iACCESS:          0  iHIT:          0  iMISS:          0  dACCESS:          0  dHIT:          0  dMISS:          0  itACCESS:          0  itHIT:          0  itMISS:          0  dtACCESS:          0  dtHIT:          0  dtMISS:          0
cpu0_ITLB PREFETCH  REQUESTED:          0  ISSUED:          0  CROSSED:          0  USEFUL:     390891  USELESS:      79529
cpu0_ITLB AVERAGE iMISS LATENCY: 7.7886 cycles
cpu0_ITLB AVERAGE dMISS LATENCY: 0 cycles
cpu0_ITLB AVERAGE itMISS LATENCY: 0 cycles
cpu0_ITLB AVERAGE dtMISS LATENCY: 0 cycles
cpu0_ITLB PAGE CROSSINGS (TLB HIT):         0 
cpu0_ITLB PAGE CROSSINGS (TLB MISS):         0 
cpu0_ITLB AVERAGE MISS LATENCY: 7.7886 cycles
cpu0_DTLB TOTAL       ACCESS:   29131715  HIT:   25580097  MISS:    3551618  iACCESS:          0  iHIT:          0  iMISS:          0  dACCESS:   29131715  dHIT:   25580097  dMISS:    3551618  itACCESS:          0  itHIT:          0  itMISS:          0  dtACCESS:          0  dtHIT:          0  dtMISS:          0
cpu0_DTLB LOAD         ACCESS:   29131715  HIT:   25580097  MISS:    3551618  iACCESS:          0  iHIT:          0  iMISS:          0  dACCESS:   29131715  dHIT:   25580097  dMISS:    3551618  itACCESS:          0  itHIT:          0  itMISS:          0  dtACCESS:          0  dtHIT:          0  dtMISS:          0
cpu0_DTLB RFO          ACCESS:          0  HIT:          0  MISS:          0  iACCESS:          0  iHIT:          0  iMISS:          0  dACCESS:          0  dHIT:          0  dMISS:          0  itACCESS:          0  itHIT:          0  itMISS:          0  dtACCESS:          0  dtHIT:          0  dtMISS:          0
cpu0_DTLB PREFETCH     ACCESS:          0  HIT:          0  MISS:          0  iACCESS:          0  iHIT:          0  iMISS:          0  dACCESS:          0  dHIT:          0  dMISS:          0  itACCESS:          0  itHIT:          0  itMISS:          0  dtACCESS:          0  dtHIT:          0  dtMISS:          0
cpu0_DTLB WRITE        ACCESS:          0  HIT:          0  MISS:          0  iACCESS:          0  iHIT:          0  iMISS:          0  dACCESS:          0  dHIT:          0  dMISS:          0  itACCESS:          0  itHIT:          0  itMISS:          0  dtACCESS:          0  dtHIT:          0  dtMISS:          0
cpu0_DTLB TRANSLATION  ACCESS:          0  HIT:          0  MISS:          0  iACCESS:          0  iHIT:          0  iMISS:          0  dACCESS:          0  dHIT:          0  dMISS:          0  itACCESS:          0  itHIT:          0  itMISS:          0  dtACCESS:          0  dtHIT:          0  dtMISS:          0
cpu0_DTLB PREFETCH  REQUESTED:          0  ISSUED:          0  CROSSED:          0  USEFUL:          0  USELESS:          0
cpu0_DTLB AVERAGE iMISS LATENCY: 0 cycles
cpu0_DTLB AVERAGE dMISS LATENCY: 17.3642 cycles
cpu0_DTLB AVERAGE itMISS LATENCY: 0 cycles
cpu0_DTLB AVERAGE dtMISS LATENCY: 0 cycles
cpu0_DTLB PAGE CROSSINGS (TLB HIT):         0 
cpu0_DTLB PAGE CROSSINGS (TLB MISS):         0 
cpu0_DTLB AVERAGE MISS LATENCY: 17.3642 cycles
cpu0_STLB TOTAL       ACCESS:    2557637  HIT:    2185548  MISS:     372089  iACCESS:     470435  iHIT:     360135  iMISS:     110300  dACCESS:    2087202  dHIT:    1825413  dMISS:     261789  itACCESS:          0  itHIT:          0  itMISS:          0  dtACCESS:          0  dtHIT:          0  dtMISS:          0
cpu0_STLB LOAD         ACCESS:    2557637  HIT:    2185548  MISS:     372089  iACCESS:     470435  iHIT:     360135  iMISS:     110300  dACCESS:    2087202  dHIT:    1825413  dMISS:     261789  itACCESS:          0  itHIT:          0  itMISS:          0  dtACCESS:          0  dtHIT:          0  dtMISS:          0
cpu0_STLB RFO          ACCESS:          0  HIT:          0  MISS:          0  iACCESS:          0  iHIT:          0  iMISS:          0  dACCESS:          0  dHIT:          0  dMISS:          0  itACCESS:          0  itHIT:          0  itMISS:          0  dtACCESS:          0  dtHIT:          0  dtMISS:          0
cpu0_STLB PREFETCH     ACCESS:          0  HIT:          0  MISS:          0  iACCESS:          0  iHIT:          0  iMISS:          0  dACCESS:          0  dHIT:          0  dMISS:          0  itACCESS:          0  itHIT:          0  itMISS:          0  dtACCESS:          0  dtHIT:          0  dtMISS:          0
cpu0_STLB WRITE        ACCESS:          0  HIT:          0  MISS:          0  iACCESS:          0  iHIT:          0  iMISS:          0  dACCESS:          0  dHIT:          0  dMISS:          0  itACCESS:          0  itHIT:          0  itMISS:          0  dtACCESS:          0  dtHIT:          0  dtMISS:          0
cpu0_STLB TRANSLATION  ACCESS:          0  HIT:          0  MISS:          0  iACCESS:          0  iHIT:          0  iMISS:          0  dACCESS:          0  dHIT:          0  dMISS:          0  itACCESS:          0  itHIT:          0  itMISS:          0  dtACCESS:          0  dtHIT:          0  dtMISS:          0
cpu0_STLB PREFETCH  REQUESTED:          0  ISSUED:          0  CROSSED:          0  USEFUL:          0  USELESS:          0
cpu0_STLB AVERAGE iMISS LATENCY: 36.3053 cycles
cpu0_STLB AVERAGE dMISS LATENCY: 120.664 cycles
cpu0_STLB AVERAGE itMISS LATENCY: 0 cycles
cpu0_STLB AVERAGE dtMISS LATENCY: 0 cycles
cpu0_STLB PAGE CROSSINGS (TLB HIT):         0 
cpu0_STLB PAGE CROSSINGS (TLB MISS):         0 
cpu0_STLB AVERAGE MISS LATENCY: 156.97 cycles
cpu0_L1D TOTAL       ACCESS:   45068578  HIT:   39546495  MISS:    5522083  iACCESS:          0  iHIT:          0  iMISS:          0  dACCESS:   44527717  dHIT:   39511596  dMISS:    5016121  itACCESS:     123879  itHIT:      14405  itMISS:     109474  dtACCESS:     416982  dtHIT:      20494  dtMISS:     396488
cpu0_L1D LOAD         ACCESS:   20408146  HIT:   18149833  MISS:    2258313  iACCESS:          0  iHIT:          0  iMISS:          0  dACCESS:   20408146  dHIT:   18149833  dMISS:    2258313  itACCESS:          0  itHIT:          0  itMISS:          0  dtACCESS:          0  dtHIT:          0  dtMISS:          0
cpu0_L1D RFO          ACCESS:          0  HIT:          0  MISS:          0  iACCESS:          0  iHIT:          0  iMISS:          0  dACCESS:          0  dHIT:          0  dMISS:          0  itACCESS:          0  itHIT:          0  itMISS:          0  dtACCESS:          0  dtHIT:          0  dtMISS:          0
cpu0_L1D PREFETCH     ACCESS:   14012948  HIT:   11828349  MISS:    2184599  iACCESS:          0  iHIT:          0  iMISS:          0  dACCESS:   14012948  dHIT:   11828349  dMISS:    2184599  itACCESS:          0  itHIT:          0  itMISS:          0  dtACCESS:          0  dtHIT:          0  dtMISS:          0
cpu0_L1D WRITE        ACCESS:   10106623  HIT:    9533414  MISS:     573209  iACCESS:          0  iHIT:          0  iMISS:          0  dACCESS:   10106623  dHIT:    9533414  dMISS:     573209  itACCESS:          0  itHIT:          0  itMISS:          0  dtACCESS:          0  dtHIT:          0  dtMISS:          0
cpu0_L1D TRANSLATION  ACCESS:     540861  HIT:      34899  MISS:     505962  iACCESS:          0  iHIT:          0  iMISS:          0  dACCESS:          0  dHIT:          0  dMISS:          0  itACCESS:     123879  itHIT:      14405  itMISS:     109474  dtACCESS:     416982  dtHIT:      20494  dtMISS:     396488
cpu0_L1D PREFETCH  REQUESTED:   20408146  ISSUED:   18733350  CROSSED:          0  USEFUL:     377571  USELESS:     951751
cpu0_L1D AVERAGE iMISS LATENCY: 0 cycles
cpu0_L1D AVERAGE dMISS LATENCY: 52.0373 cycles
cpu0_L1D AVERAGE itMISS LATENCY: 2.25929 cycles
cpu0_L1D AVERAGE dtMISS LATENCY: 7.17495 cycles
cpu0_L1D PAGE CROSSINGS (TLB HIT):         0 
cpu0_L1D PAGE CROSSINGS (TLB MISS):         0 
cpu0_L1D AVERAGE MISS LATENCY: 61.4715 cycles
cpu0_L2C TOTAL       ACCESS:    8628681  HIT:    1495672  MISS:    7133009  iACCESS:    3763603  iHIT:     763680  iMISS:    2999923  dACCESS:    4383629  dHIT:     540235  dMISS:    3843394  itACCESS:     109161  itHIT:      36896  itMISS:      72265  dtACCESS:     372288  dtHIT:     154861  dtMISS:     217427
cpu0_L2C LOAD         ACCESS:    2077967  HIT:     202102  MISS:    1875865  iACCESS:     839575  iHIT:     103435  iMISS:     736140  dACCESS:    1238392  dHIT:      98667  dMISS:    1139725  itACCESS:          0  itHIT:          0  itMISS:          0  dtACCESS:          0  dtHIT:          0  dtMISS:          0
cpu0_L2C RFO          ACCESS:     218885  HIT:      29199  MISS:     189686  iACCESS:          0  iHIT:          0  iMISS:          0  dACCESS:     218885  dHIT:      29199  dMISS:     189686  itACCESS:          0  itHIT:          0  itMISS:          0  dtACCESS:          0  dtHIT:          0  dtMISS:          0
cpu0_L2C PREFETCH     ACCESS:    5501165  HIT:     966007  MISS:    4535158  iACCESS:    2924028  iHIT:     660245  iMISS:    2263783  dACCESS:    2577137  dHIT:     305762  dMISS:    2271375  itACCESS:          0  itHIT:          0  itMISS:          0  dtACCESS:          0  dtHIT:          0  dtMISS:          0
cpu0_L2C WRITE        ACCESS:     349215  HIT:     106607  MISS:     242608  iACCESS:          0  iHIT:          0  iMISS:          0  dACCESS:     349215  dHIT:     106607  dMISS:     242608  itACCESS:          0  itHIT:          0  itMISS:          0  dtACCESS:          0  dtHIT:          0  dtMISS:          0
cpu0_L2C TRANSLATION  ACCESS:     481449  HIT:     191757  MISS:     289692  iACCESS:          0  iHIT:          0  iMISS:          0  dACCESS:          0  dHIT:          0  dMISS:          0  itACCESS:     109161  itHIT:      36896  itMISS:      72265  dtACCESS:     372288  dtHIT:     154861  dtMISS:     217427
cpu0_L2C PREFETCH  REQUESTED:    1487559  ISSUED:    1487555  CROSSED:          0  USEFUL:     405023  USELESS:     486469
cpu0_L2C AVERAGE iMISS LATENCY: 26.0346 cycles
cpu0_L2C AVERAGE dMISS LATENCY: 49.2444 cycles
cpu0_L2C AVERAGE itMISS LATENCY: 1.6008 cycles
cpu0_L2C AVERAGE dtMISS LATENCY: 5.05189 cycles
cpu0_L2C PAGE CROSSINGS (TLB HIT):         0 
cpu0_L2C PAGE CROSSINGS (TLB MISS):         0 
cpu0_L2C AVERAGE MISS LATENCY: 81.9317 cycles
LLC TOTAL       ACCESS:    6960595  HIT:    4312226  MISS:    2648369  iACCESS:    2912318  iHIT:    2099362  iMISS:     812956  dACCESS:    3758585  dHIT:    2146153  dMISS:    1612432  itACCESS:      72265  itHIT:      16626  itMISS:      55639  dtACCESS:     217427  dtHIT:      50085  dtMISS:     167342
LLC LOAD         ACCESS:    1869855  HIT:    1222405  MISS:     647450  iACCESS:     734788  iHIT:     564807  iMISS:     169981  dACCESS:    1135067  dHIT:     657598  dMISS:     477469  itACCESS:          0  itHIT:          0  itMISS:          0  dtACCESS:          0  dtHIT:          0  dtMISS:          0
LLC RFO          ACCESS:     189657  HIT:     102365  MISS:      87292  iACCESS:          0  iHIT:          0  iMISS:          0  dACCESS:     189657  dHIT:     102365  dMISS:      87292  itACCESS:          0  itHIT:          0  itMISS:          0  dtACCESS:          0  dtHIT:          0  dtMISS:          0
LLC PREFETCH     ACCESS:    4335011  HIT:    2650832  MISS:    1684179  iACCESS:    2177530  iHIT:    1534555  iMISS:     642975  dACCESS:    2157481  dHIT:    1116277  dMISS:    1041204  itACCESS:          0  itHIT:          0  itMISS:          0  dtACCESS:          0  dtHIT:          0  dtMISS:          0
LLC WRITE        ACCESS:     276380  HIT:     269913  MISS:       6467  iACCESS:          0  iHIT:          0  iMISS:          0  dACCESS:     276380  dHIT:     269913  dMISS:       6467  itACCESS:          0  itHIT:          0  itMISS:          0  dtACCESS:          0  dtHIT:          0  dtMISS:          0
LLC TRANSLATION  ACCESS:     289692  HIT:      66711  MISS:     222981  iACCESS:          0  iHIT:          0  iMISS:          0  dACCESS:          0  dHIT:          0  dMISS:          0  itACCESS:      72265  itHIT:      16626  itMISS:      55639  dtACCESS:     217427  dtHIT:      50085  dtMISS:     167342
LLC PREFETCH  REQUESTED:          0  ISSUED:          0  CROSSED:          0  USEFUL:          0  USELESS:          0
LLC AVERAGE iMISS LATENCY: 48.7711 cycles
LLC AVERAGE dMISS LATENCY: 107.669 cycles
LLC AVERAGE itMISS LATENCY: 3.77387 cycles
LLC AVERAGE dtMISS LATENCY: 11.9893 cycles
LLC PAGE CROSSINGS (TLB HIT):         0 
LLC PAGE CROSSINGS (TLB MISS):         0 
LLC AVERAGE MISS LATENCY: 172.203 cycles

PageTableWalker TOTAL       ACCESS:     180906  
PageTableWalker AVERAGE LATENCY: 6.00462 cycles
PageTableWalker TOTAL LATENCY: 1086270 cycles

DRAM Statistics
Channel 0
 RQ ROW_BUFFER_HIT:     574291
  ROW_BUFFER_MISS:    2056649
 AVG DBUS CONGESTED CYCLE:    3.64823
 WQ ROW_BUFFER_HIT:      65538
  ROW_BUFFER_MISS:      61435  FULL:          0

