last_page:0x200000000000000
VMEM_RES_CAP:0x100000
PAGE_SIZE:4096
LOG2_PAGE_SIZE:12
LOG2_PAGE_TABLE_SIZE:9
page_table_levels:5
WARNING: physical memory size is smaller than virtual memory size
FDiP enabled with aggresivity 16

*** ChampSim Multicore Out-of-Order Simulator ***

Warmup Instructions: 50000000
Simulation Instructions: 100000000
Number of CPUs: 1
Small page size: 4096
Large page size: 2097152

CPU 0 Bimodal branch predictor
Basic BTB sets: 1024 ways: 8 indirect buffer size: 4096 RAS size: 64
Instruction page size distrubution: 0
Loading instruction page size distribution from /home/bsc/bsc018186/scratch/itp_asplos25_AE/dump/smt_srv207_ap_srv259_ap_1024i.pdst
Data page size distrubution: 0
Loading data page size distribution from /home/bsc/bsc018186/scratch/itp_asplos25_AE/dump/smt_srv207_ap_srv259_ap_1024i.pdst
cpu0_L2C IP-based stride prefetcher
cpu0_L2C is using PTP replacement policy:
	TLB_STRESS_THRESHOLD:0
	PTE_EVICTION_RATIO:0
cpu0_L1D next line prefetcher
cpu0_L1I next line prefetcher
Off-chip DRAM Size: 4 GiB Channels: 1 Width: 64-bit Data Rate: 3200 MT/s
Heartbeat CPU 0 instructions: 10000000 cycles: 2500630 heartbeat IPC: 3.999 cumulative IPC: 3.999 (Simulation time: 0 hr 0 min 39 sec) 
Heartbeat CPU 0 instructions: 20000003 cycles: 5001033 heartbeat IPC: 3.99936 cumulative IPC: 3.99918 (Simulation time: 0 hr 1 min 19 sec) 
Heartbeat CPU 0 instructions: 30000000 cycles: 7501299 heartbeat IPC: 3.99958 cumulative IPC: 3.99931 (Simulation time: 0 hr 2 min 1 sec) 
Heartbeat CPU 0 instructions: 40000002 cycles: 10001773 heartbeat IPC: 3.99925 cumulative IPC: 3.9993 (Simulation time: 0 hr 2 min 42 sec) 
Heartbeat CPU 0 instructions: 50000000 cycles: 12502167 heartbeat IPC: 3.99937 cumulative IPC: 3.99931 (Simulation time: 0 hr 3 min 23 sec) 
Warmup finished CPU 0 instructions: 50000000 cycles: 12502168 cumulative IPC: 3.99931 (Simulation time: 0 hr 3 min 23 sec) 

Warmup complete CPU 0 instructions: 50000000 cycles: 12502168 (Simulation time: 0 hr 3 min 23 sec) 

Heartbeat CPU 0 instructions: 60000000 cycles: 41739633 heartbeat IPC: 0.342027 cumulative IPC: 0.342027 (Simulation time: 0 hr 4 min 50 sec) 
Heartbeat CPU 0 instructions: 70000002 cycles: 72108281 heartbeat IPC: 0.329288 cumulative IPC: 0.335537 (Simulation time: 0 hr 6 min 18 sec) 
Heartbeat CPU 0 instructions: 80000002 cycles: 102006456 heartbeat IPC: 0.334469 cumulative IPC: 0.33518 (Simulation time: 0 hr 7 min 51 sec) 
Heartbeat CPU 0 instructions: 90000000 cycles: 131559486 heartbeat IPC: 0.338375 cumulative IPC: 0.335973 (Simulation time: 0 hr 9 min 30 sec) 
Heartbeat CPU 0 instructions: 100000000 cycles: 161848424 heartbeat IPC: 0.330154 cumulative IPC: 0.334793 (Simulation time: 0 hr 11 min 10 sec) 
Heartbeat CPU 0 instructions: 110000002 cycles: 192201406 heartbeat IPC: 0.329457 cumulative IPC: 0.333892 (Simulation time: 0 hr 12 min 49 sec) 
Heartbeat CPU 0 instructions: 120000001 cycles: 220422974 heartbeat IPC: 0.354339 cumulative IPC: 0.336667 (Simulation time: 0 hr 14 min 26 sec) 
Heartbeat CPU 0 instructions: 130000002 cycles: 248908397 heartbeat IPC: 0.351057 cumulative IPC: 0.338401 (Simulation time: 0 hr 16 min 1 sec) 
Heartbeat CPU 0 instructions: 140000002 cycles: 278618340 heartbeat IPC: 0.336588 cumulative IPC: 0.338199 (Simulation time: 0 hr 17 min 41 sec) 
Heartbeat CPU 0 instructions: 150000000 cycles: 309027484 heartbeat IPC: 0.328849 cumulative IPC: 0.33724 (Simulation time: 0 hr 19 min 21 sec) 
Simulation finished CPU 0 instructions: 100000000 cycles: 296525317 cumulative IPC: 0.33724 (Simulation time: 0 hr 19 min 21 sec) 

Simulation complete CPU 0 instructions: 100000000 cycles: 296525317 (Simulation time: 0 hr 19 min 21 sec) 


ChampSim completed all CPUs

Saving instructions large page distribution to /home/bsc/bsc018186/scratch/itp_asplos25_AE/dump/smt_srv207_ap_srv259_ap_1024i.pdst...
Saving data large page distribution to /home/bsc/bsc018186/scratch/itp_asplos25_AE/dump/smt_srv207_ap_srv259_ap_1024i.pdst...
=== Simulation ===
CPU 0 runs /gpfs/projects/bsc18/MN4/bsc18/romol/ChampSim/traces/qualcomm_srv/smt_srv207_ap_srv259_ap_1024i.champsimtrace.xz

Region of Interest Statistics

CPU 0 cumulative IPC: 0.33724 instructions: 100000000 cycles: 296525317
CPU 0 Branch Prediction Accuracy: 75.9618% MPKI: 43.2597 Average ROB Occupancy at Mispredict: 11.459
Branch type MPKI
BRANCH_DIRECT_JUMP: 1.33409
BRANCH_INDIRECT: 23.4031
BRANCH_CONDITIONAL: 11.6055
BRANCH_DIRECT_CALL: 2.4575
BRANCH_INDIRECT_CALL: 1.00686
BRANCH_RETURN: 3.45271

Instructions large pages: 0
Instructions small pages: 11193
Large page distribution for instructions: 0%

Data large pages: 0
Data small pages: 9904
Large page distribution for data: 0%

cpu0_L1I TOTAL       ACCESS:   38707850  HIT:   29921787  MISS:    8786063  iACCESS:   38707850  iHIT:   29921787  iMISS:    8786063  dACCESS:          0  dHIT:          0  dMISS:          0  itACCESS:          0  itHIT:          0  itMISS:          0  dtACCESS:          0  dtHIT:          0  dtMISS:          0
cpu0_L1I LOAD         ACCESS:   11507318  HIT:    9085564  MISS:    2421754  iACCESS:   11507318  iHIT:    9085564  iMISS:    2421754  dACCESS:          0  dHIT:          0  dMISS:          0  itACCESS:          0  itHIT:          0  itMISS:          0  dtACCESS:          0  dtHIT:          0  dtMISS:          0
cpu0_L1I RFO          ACCESS:          0  HIT:          0  MISS:          0  iACCESS:          0  iHIT:          0  iMISS:          0  dACCESS:          0  dHIT:          0  dMISS:          0  itACCESS:          0  itHIT:          0  itMISS:          0  dtACCESS:          0  dtHIT:          0  dtMISS:          0
cpu0_L1I PREFETCH     ACCESS:   27200532  HIT:   20836223  MISS:    6364309  iACCESS:   27200532  iHIT:   20836223  iMISS:    6364309  dACCESS:          0  dHIT:          0  dMISS:          0  itACCESS:          0  itHIT:          0  itMISS:          0  dtACCESS:          0  dtHIT:          0  dtMISS:          0
cpu0_L1I WRITE        ACCESS:          0  HIT:          0  MISS:          0  iACCESS:          0  iHIT:          0  iMISS:          0  dACCESS:          0  dHIT:          0  dMISS:          0  itACCESS:          0  itHIT:          0  itMISS:          0  dtACCESS:          0  dtHIT:          0  dtMISS:          0
cpu0_L1I TRANSLATION  ACCESS:          0  HIT:          0  MISS:          0  iACCESS:          0  iHIT:          0  iMISS:          0  dACCESS:          0  dHIT:          0  dMISS:          0  itACCESS:          0  itHIT:          0  itMISS:          0  dtACCESS:          0  dtHIT:          0  dtMISS:          0
cpu0_L1I PREFETCH  REQUESTED:   29975562  ISSUED:   29975553  CROSSED:          0  USEFUL:    2199389  USELESS:     791703
cpu0_L1I AVERAGE iMISS LATENCY: 22.4405 cycles
cpu0_L1I AVERAGE dMISS LATENCY: 0 cycles
cpu0_L1I AVERAGE itMISS LATENCY: 0 cycles
cpu0_L1I AVERAGE dtMISS LATENCY: 0 cycles
cpu0_L1I PAGE CROSSINGS (TLB HIT):         0 
cpu0_L1I PAGE CROSSINGS (TLB MISS):         0 
cpu0_L1I AVERAGE MISS LATENCY: 22.4405 cycles
cpu0_ITLB TOTAL       ACCESS:   32759075  HIT:   30459754  MISS:    2299321  iACCESS:   32759075  iHIT:   30459754  iMISS:    2299321  dACCESS:          0  dHIT:          0  dMISS:          0  itACCESS:          0  itHIT:          0  itMISS:          0  dtACCESS:          0  dtHIT:          0  dtMISS:          0
cpu0_ITLB LOAD         ACCESS:   32759075  HIT:   30459754  MISS:    2299321  iACCESS:   32759075  iHIT:   30459754  iMISS:    2299321  dACCESS:          0  dHIT:          0  dMISS:          0  itACCESS:          0  itHIT:          0  itMISS:          0  dtACCESS:          0  dtHIT:          0  dtMISS:          0
cpu0_ITLB RFO          ACCESS:          0  HIT:          0  MISS:          0  iACCESS:          0  iHIT:          0  iMISS:          0  dACCESS:          0  dHIT:          0  dMISS:          0  itACCESS:          0  itHIT:          0  itMISS:          0  dtACCESS:          0  dtHIT:          0  dtMISS:          0
cpu0_ITLB PREFETCH     ACCESS:          0  HIT:          0  MISS:          0  iACCESS:          0  iHIT:          0  iMISS:          0  dACCESS:          0  dHIT:          0  dMISS:          0  itACCESS:          0  itHIT:          0  itMISS:          0  dtACCESS:          0  dtHIT:          0  dtMISS:          0
cpu0_ITLB WRITE        ACCESS:          0  HIT:          0  MISS:          0  iACCESS:          0  iHIT:          0  iMISS:          0  dACCESS:          0  dHIT:          0  dMISS:          0  itACCESS:          0  itHIT:          0  itMISS:          0  dtACCESS:          0  dtHIT:          0  dtMISS:          0
cpu0_ITLB TRANSLATION  ACCESS:          0  HIT:          0  MISS:          0  iACCESS:          0  iHIT:          0  iMISS:          0  dACCESS:          0  dHIT:          0  dMISS:          0  itACCESS:          0  itHIT:          0  itMISS:          0  dtACCESS:          0  dtHIT:          0  dtMISS:          0
cpu0_ITLB PREFETCH  REQUESTED:          0  ISSUED:          0  CROSSED:          0  USEFUL:     394178  USELESS:      84732
cpu0_ITLB AVERAGE iMISS LATENCY: 10.126 cycles
cpu0_ITLB AVERAGE dMISS LATENCY: 0 cycles
cpu0_ITLB AVERAGE itMISS LATENCY: 0 cycles
cpu0_ITLB AVERAGE dtMISS LATENCY: 0 cycles
cpu0_ITLB PAGE CROSSINGS (TLB HIT):         0 
cpu0_ITLB PAGE CROSSINGS (TLB MISS):         0 
cpu0_ITLB AVERAGE MISS LATENCY: 10.126 cycles
cpu0_DTLB TOTAL       ACCESS:   29129465  HIT:   25537366  MISS:    3592099  iACCESS:          0  iHIT:          0  iMISS:          0  dACCESS:   29129465  dHIT:   25537366  dMISS:    3592099  itACCESS:          0  itHIT:          0  itMISS:          0  dtACCESS:          0  dtHIT:          0  dtMISS:          0
cpu0_DTLB LOAD         ACCESS:   29129465  HIT:   25537366  MISS:    3592099  iACCESS:          0  iHIT:          0  iMISS:          0  dACCESS:   29129465  dHIT:   25537366  dMISS:    3592099  itACCESS:          0  itHIT:          0  itMISS:          0  dtACCESS:          0  dtHIT:          0  dtMISS:          0
cpu0_DTLB RFO          ACCESS:          0  HIT:          0  MISS:          0  iACCESS:          0  iHIT:          0  iMISS:          0  dACCESS:          0  dHIT:          0  dMISS:          0  itACCESS:          0  itHIT:          0  itMISS:          0  dtACCESS:          0  dtHIT:          0  dtMISS:          0
cpu0_DTLB PREFETCH     ACCESS:          0  HIT:          0  MISS:          0  iACCESS:          0  iHIT:          0  iMISS:          0  dACCESS:          0  dHIT:          0  dMISS:          0  itACCESS:          0  itHIT:          0  itMISS:          0  dtACCESS:          0  dtHIT:          0  dtMISS:          0
cpu0_DTLB WRITE        ACCESS:          0  HIT:          0  MISS:          0  iACCESS:          0  iHIT:          0  iMISS:          0  dACCESS:          0  dHIT:          0  dMISS:          0  itACCESS:          0  itHIT:          0  itMISS:          0  dtACCESS:          0  dtHIT:          0  dtMISS:          0
cpu0_DTLB TRANSLATION  ACCESS:          0  HIT:          0  MISS:          0  iACCESS:          0  iHIT:          0  iMISS:          0  dACCESS:          0  dHIT:          0  dMISS:          0  itACCESS:          0  itHIT:          0  itMISS:          0  dtACCESS:          0  dtHIT:          0  dtMISS:          0
cpu0_DTLB PREFETCH  REQUESTED:          0  ISSUED:          0  CROSSED:          0  USEFUL:          0  USELESS:          0
cpu0_DTLB AVERAGE iMISS LATENCY: 0 cycles
cpu0_DTLB AVERAGE dMISS LATENCY: 25.8321 cycles
cpu0_DTLB AVERAGE itMISS LATENCY: 0 cycles
cpu0_DTLB AVERAGE dtMISS LATENCY: 0 cycles
cpu0_DTLB PAGE CROSSINGS (TLB HIT):         0 
cpu0_DTLB PAGE CROSSINGS (TLB MISS):         0 
cpu0_DTLB AVERAGE MISS LATENCY: 25.8321 cycles
cpu0_STLB TOTAL       ACCESS:    2574735  HIT:    2193925  MISS:     380810  iACCESS:     478913  iHIT:     370131  iMISS:     108782  dACCESS:    2095822  dHIT:    1823794  dMISS:     272028  itACCESS:          0  itHIT:          0  itMISS:          0  dtACCESS:          0  dtHIT:          0  dtMISS:          0
cpu0_STLB LOAD         ACCESS:    2574735  HIT:    2193925  MISS:     380810  iACCESS:     478913  iHIT:     370131  iMISS:     108782  dACCESS:    2095822  dHIT:    1823794  dMISS:     272028  itACCESS:          0  itHIT:          0  itMISS:          0  dtACCESS:          0  dtHIT:          0  dtMISS:          0
cpu0_STLB RFO          ACCESS:          0  HIT:          0  MISS:          0  iACCESS:          0  iHIT:          0  iMISS:          0  dACCESS:          0  dHIT:          0  dMISS:          0  itACCESS:          0  itHIT:          0  itMISS:          0  dtACCESS:          0  dtHIT:          0  dtMISS:          0
cpu0_STLB PREFETCH     ACCESS:          0  HIT:          0  MISS:          0  iACCESS:          0  iHIT:          0  iMISS:          0  dACCESS:          0  dHIT:          0  dMISS:          0  itACCESS:          0  itHIT:          0  itMISS:          0  dtACCESS:          0  dtHIT:          0  dtMISS:          0
cpu0_STLB WRITE        ACCESS:          0  HIT:          0  MISS:          0  iACCESS:          0  iHIT:          0  iMISS:          0  dACCESS:          0  dHIT:          0  dMISS:          0  itACCESS:          0  itHIT:          0  itMISS:          0  dtACCESS:          0  dtHIT:          0  dtMISS:          0
cpu0_STLB TRANSLATION  ACCESS:          0  HIT:          0  MISS:          0  iACCESS:          0  iHIT:          0  iMISS:          0  dACCESS:          0  dHIT:          0  dMISS:          0  itACCESS:          0  itHIT:          0  itMISS:          0  dtACCESS:          0  dtHIT:          0  dtMISS:          0
cpu0_STLB PREFETCH  REQUESTED:          0  ISSUED:          0  CROSSED:          0  USEFUL:          0  USELESS:          0
cpu0_STLB AVERAGE iMISS LATENCY: 51.1008 cycles
cpu0_STLB AVERAGE dMISS LATENCY: 199.339 cycles
cpu0_STLB AVERAGE itMISS LATENCY: 0 cycles
cpu0_STLB AVERAGE dtMISS LATENCY: 0 cycles
cpu0_STLB PAGE CROSSINGS (TLB HIT):         0 
cpu0_STLB PAGE CROSSINGS (TLB MISS):         0 
cpu0_STLB AVERAGE MISS LATENCY: 250.44 cycles
cpu0_L1D TOTAL       ACCESS:   45555677  HIT:   39495538  MISS:    6060139  iACCESS:          0  iHIT:          0  iMISS:          0  dACCESS:   44995046  dHIT:   39464479  dMISS:    5530567  itACCESS:     123523  itHIT:      12021  itMISS:     111502  dtACCESS:     437108  dtHIT:      19038  dtMISS:     418070
cpu0_L1D LOAD         ACCESS:   20641886  HIT:   18144593  MISS:    2497293  iACCESS:          0  iHIT:          0  iMISS:          0  dACCESS:   20641886  dHIT:   18144593  dMISS:    2497293  itACCESS:          0  itHIT:          0  itMISS:          0  dtACCESS:          0  dtHIT:          0  dtMISS:          0
cpu0_L1D RFO          ACCESS:          0  HIT:          0  MISS:          0  iACCESS:          0  iHIT:          0  iMISS:          0  dACCESS:          0  dHIT:          0  dMISS:          0  itACCESS:          0  itHIT:          0  itMISS:          0  dtACCESS:          0  dtHIT:          0  dtMISS:          0
cpu0_L1D PREFETCH     ACCESS:   14263501  HIT:   11822384  MISS:    2441117  iACCESS:          0  iHIT:          0  iMISS:          0  dACCESS:   14263501  dHIT:   11822384  dMISS:    2441117  itACCESS:          0  itHIT:          0  itMISS:          0  dtACCESS:          0  dtHIT:          0  dtMISS:          0
cpu0_L1D WRITE        ACCESS:   10089659  HIT:    9497502  MISS:     592157  iACCESS:          0  iHIT:          0  iMISS:          0  dACCESS:   10089659  dHIT:    9497502  dMISS:     592157  itACCESS:          0  itHIT:          0  itMISS:          0  dtACCESS:          0  dtHIT:          0  dtMISS:          0
cpu0_L1D TRANSLATION  ACCESS:     560631  HIT:      31059  MISS:     529572  iACCESS:          0  iHIT:          0  iMISS:          0  dACCESS:          0  dHIT:          0  dMISS:          0  itACCESS:     123523  itHIT:      12021  itMISS:     111502  dtACCESS:     437108  dtHIT:      19038  dtMISS:     418070
cpu0_L1D PREFETCH  REQUESTED:   20641886  ISSUED:   18791313  CROSSED:          0  USEFUL:     375113  USELESS:     951684
cpu0_L1D AVERAGE iMISS LATENCY: 0 cycles
cpu0_L1D AVERAGE dMISS LATENCY: 49.3483 cycles
cpu0_L1D AVERAGE itMISS LATENCY: 3.03993 cycles
cpu0_L1D AVERAGE dtMISS LATENCY: 11.7595 cycles
cpu0_L1D PAGE CROSSINGS (TLB HIT):         0 
cpu0_L1D PAGE CROSSINGS (TLB MISS):         0 
cpu0_L1D AVERAGE MISS LATENCY: 64.1476 cycles
cpu0_L2C TOTAL       ACCESS:    8721055  HIT:    4282187  MISS:    4438868  iACCESS:    3827355  iHIT:    2365489  iMISS:    1461866  dACCESS:    4397159  dHIT:    1859568  dMISS:    2537591  itACCESS:     110748  itHIT:      17184  itMISS:      93564  dtACCESS:     385793  dtHIT:      39946  dtMISS:     345847
cpu0_L2C LOAD         ACCESS:    2121648  HIT:    1036964  MISS:    1084684  iACCESS:     871404  iHIT:     561290  iMISS:     310114  dACCESS:    1250244  dHIT:     475674  dMISS:     774570  itACCESS:          0  itHIT:          0  itMISS:          0  dtACCESS:          0  dtHIT:          0  dtMISS:          0
cpu0_L2C RFO          ACCESS:     224248  HIT:      89792  MISS:     134456  iACCESS:          0  iHIT:          0  iMISS:          0  dACCESS:     224248  dHIT:      89792  dMISS:     134456  itACCESS:          0  itHIT:          0  itMISS:          0  dtACCESS:          0  dtHIT:          0  dtMISS:          0
cpu0_L2C PREFETCH     ACCESS:    5532820  HIT:    2756527  MISS:    2776293  iACCESS:    2955951  iHIT:    1804199  iMISS:    1151752  dACCESS:    2576869  dHIT:     952328  dMISS:    1624541  itACCESS:          0  itHIT:          0  itMISS:          0  dtACCESS:          0  dtHIT:          0  dtMISS:          0
cpu0_L2C WRITE        ACCESS:     345798  HIT:     341774  MISS:       4024  iACCESS:          0  iHIT:          0  iMISS:          0  dACCESS:     345798  dHIT:     341774  dMISS:       4024  itACCESS:          0  itHIT:          0  itMISS:          0  dtACCESS:          0  dtHIT:          0  dtMISS:          0
cpu0_L2C TRANSLATION  ACCESS:     496541  HIT:      57130  MISS:     439411  iACCESS:          0  iHIT:          0  iMISS:          0  dACCESS:          0  dHIT:          0  dMISS:          0  itACCESS:     110748  itHIT:      17184  itMISS:      93564  dtACCESS:     385793  dtHIT:      39946  dtMISS:     345847
cpu0_L2C PREFETCH  REQUESTED:    1508082  ISSUED:    1508082  CROSSED:          0  USEFUL:     344799  USELESS:     305136
cpu0_L2C AVERAGE iMISS LATENCY: 37.0101 cycles
cpu0_L2C AVERAGE dMISS LATENCY: 80.5 cycles
cpu0_L2C AVERAGE itMISS LATENCY: 3.90388 cycles
cpu0_L2C AVERAGE dtMISS LATENCY: 15.1891 cycles
cpu0_L2C PAGE CROSSINGS (TLB HIT):         0 
cpu0_L2C PAGE CROSSINGS (TLB MISS):         0 
cpu0_L2C AVERAGE MISS LATENCY: 136.604 cycles
LLC TOTAL       ACCESS:    4457294  HIT:    1458990  MISS:    2998304  iACCESS:    1385301  iHIT:     519305  iMISS:     865996  dACCESS:    2632582  dHIT:     897981  dMISS:    1734601  itACCESS:      93564  itHIT:       6967  itMISS:      86597  dtACCESS:     345847  dtHIT:      34737  dtMISS:     311110
LLC LOAD         ACCESS:    1076180  HIT:     355665  MISS:     720515  iACCESS:     308987  iHIT:     123365  iMISS:     185622  dACCESS:     767193  dHIT:     232300  dMISS:     534893  itACCESS:          0  itHIT:          0  itMISS:          0  dtACCESS:          0  dtHIT:          0  dtMISS:          0
LLC RFO          ACCESS:     134451  HIT:      40373  MISS:      94078  iACCESS:          0  iHIT:          0  iMISS:          0  dACCESS:     134451  dHIT:      40373  dMISS:      94078  itACCESS:          0  itHIT:          0  itMISS:          0  dtACCESS:          0  dtHIT:          0  dtMISS:          0
LLC PREFETCH     ACCESS:    2598333  HIT:     822286  MISS:    1776047  iACCESS:    1076314  iHIT:     395940  iMISS:     680374  dACCESS:    1522019  dHIT:     426346  dMISS:    1095673  itACCESS:          0  itHIT:          0  itMISS:          0  dtACCESS:          0  dtHIT:          0  dtMISS:          0
LLC WRITE        ACCESS:     208919  HIT:     198962  MISS:       9957  iACCESS:          0  iHIT:          0  iMISS:          0  dACCESS:     208919  dHIT:     198962  dMISS:       9957  itACCESS:          0  itHIT:          0  itMISS:          0  dtACCESS:          0  dtHIT:          0  dtMISS:          0
LLC TRANSLATION  ACCESS:     439411  HIT:      41704  MISS:     397707  iACCESS:          0  iHIT:          0  iMISS:          0  dACCESS:          0  dHIT:          0  dMISS:          0  itACCESS:      93564  itHIT:       6967  itMISS:      86597  dtACCESS:     345847  dtHIT:      34737  dtMISS:     311110
LLC PREFETCH  REQUESTED:          0  ISSUED:          0  CROSSED:          0  USEFUL:          0  USELESS:          0
LLC AVERAGE iMISS LATENCY: 45.7108 cycles
LLC AVERAGE dMISS LATENCY: 104.271 cycles
LLC AVERAGE itMISS LATENCY: 5.16064 cycles
LLC AVERAGE dtMISS LATENCY: 20.2058 cycles
LLC PAGE CROSSINGS (TLB HIT):         0 
LLC PAGE CROSSINGS (TLB MISS):         0 
LLC AVERAGE MISS LATENCY: 175.348 cycles

PageTableWalker TOTAL       ACCESS:     187590  
PageTableWalker AVERAGE LATENCY: 6.5096 cycles
PageTableWalker TOTAL LATENCY: 1221134 cycles

DRAM Statistics
Channel 0
 RQ ROW_BUFFER_HIT:     610078
  ROW_BUFFER_MISS:    2357225
 AVG DBUS CONGESTED CYCLE:     3.6496
 WQ ROW_BUFFER_HIT:      67015
  ROW_BUFFER_MISS:      55771  FULL:          0

