last_page:0x200000000000000
VMEM_RES_CAP:0x100000
PAGE_SIZE:4096
LOG2_PAGE_SIZE:12
LOG2_PAGE_TABLE_SIZE:9
page_table_levels:5
WARNING: physical memory size is smaller than virtual memory size
FDiP enabled with aggresivity 16

*** ChampSim Multicore Out-of-Order Simulator ***

Warmup Instructions: 50000000
Simulation Instructions: 100000000
Number of CPUs: 1
Small page size: 4096
Large page size: 2097152

CPU 0 Bimodal branch predictor
Basic BTB sets: 1024 ways: 8 indirect buffer size: 4096 RAS size: 64
Instruction page size distrubution: 0
Loading instruction page size distribution from /home/bsc/bsc018186/scratch/itp_asplos25_AE/dump/smt_srv540_ap_srv224_ap_1024i.pdst
Data page size distrubution: 0
Loading data page size distribution from /home/bsc/bsc018186/scratch/itp_asplos25_AE/dump/smt_srv540_ap_srv224_ap_1024i.pdst
cpu0_L2C IP-based stride prefetcher
cpu0_L2C is using PTP replacement policy:
	TLB_STRESS_THRESHOLD:0
	PTE_EVICTION_RATIO:0
cpu0_L1D next line prefetcher
cpu0_L1I next line prefetcher
Off-chip DRAM Size: 4 GiB Channels: 1 Width: 64-bit Data Rate: 3200 MT/s
Heartbeat CPU 0 instructions: 10000002 cycles: 2500471 heartbeat IPC: 3.99925 cumulative IPC: 3.99925 (Simulation time: 0 hr 0 min 45 sec) 
Heartbeat CPU 0 instructions: 20000002 cycles: 5000731 heartbeat IPC: 3.99959 cumulative IPC: 3.99942 (Simulation time: 0 hr 1 min 32 sec) 
Heartbeat CPU 0 instructions: 30000001 cycles: 7501092 heartbeat IPC: 3.99943 cumulative IPC: 3.99942 (Simulation time: 0 hr 2 min 19 sec) 
Heartbeat CPU 0 instructions: 40000001 cycles: 10048555 heartbeat IPC: 3.92548 cumulative IPC: 3.98068 (Simulation time: 0 hr 3 min 7 sec) 
Heartbeat CPU 0 instructions: 50000002 cycles: 12608883 heartbeat IPC: 3.90575 cumulative IPC: 3.96546 (Simulation time: 0 hr 3 min 57 sec) 
Warmup finished CPU 0 instructions: 50000002 cycles: 12608884 cumulative IPC: 3.96546 (Simulation time: 0 hr 3 min 57 sec) 

Warmup complete CPU 0 instructions: 50000002 cycles: 12608884 (Simulation time: 0 hr 3 min 57 sec) 

Heartbeat CPU 0 instructions: 60000002 cycles: 29065942 heartbeat IPC: 0.607642 cumulative IPC: 0.607643 (Simulation time: 0 hr 5 min 18 sec) 
Heartbeat CPU 0 instructions: 70000003 cycles: 57311087 heartbeat IPC: 0.354044 cumulative IPC: 0.447406 (Simulation time: 0 hr 6 min 54 sec) 
Heartbeat CPU 0 instructions: 80000002 cycles: 85588800 heartbeat IPC: 0.353636 cumulative IPC: 0.411072 (Simulation time: 0 hr 8 min 27 sec) 
Heartbeat CPU 0 instructions: 90000000 cycles: 115248926 heartbeat IPC: 0.337153 cumulative IPC: 0.389712 (Simulation time: 0 hr 10 min 5 sec) 
Heartbeat CPU 0 instructions: 100000001 cycles: 144982597 heartbeat IPC: 0.33632 cumulative IPC: 0.377719 (Simulation time: 0 hr 11 min 44 sec) 
Heartbeat CPU 0 instructions: 110000001 cycles: 173283596 heartbeat IPC: 0.353345 cumulative IPC: 0.373426 (Simulation time: 0 hr 13 min 20 sec) 
Heartbeat CPU 0 instructions: 120000004 cycles: 202103935 heartbeat IPC: 0.346978 cumulative IPC: 0.369403 (Simulation time: 0 hr 14 min 57 sec) 
Heartbeat CPU 0 instructions: 130000003 cycles: 231455941 heartbeat IPC: 0.340693 cumulative IPC: 0.365553 (Simulation time: 0 hr 16 min 36 sec) 
Heartbeat CPU 0 instructions: 140000002 cycles: 260649226 heartbeat IPC: 0.342545 cumulative IPC: 0.362845 (Simulation time: 0 hr 18 min 4 sec) 
Heartbeat CPU 0 instructions: 150000001 cycles: 288742887 heartbeat IPC: 0.355953 cumulative IPC: 0.362144 (Simulation time: 0 hr 19 min 27 sec) 
Simulation finished CPU 0 instructions: 100000004 cycles: 276134005 cumulative IPC: 0.362144 (Simulation time: 0 hr 19 min 27 sec) 

Simulation complete CPU 0 instructions: 100000004 cycles: 276134005 (Simulation time: 0 hr 19 min 27 sec) 


ChampSim completed all CPUs

Saving instructions large page distribution to /home/bsc/bsc018186/scratch/itp_asplos25_AE/dump/smt_srv540_ap_srv224_ap_1024i.pdst...
Saving data large page distribution to /home/bsc/bsc018186/scratch/itp_asplos25_AE/dump/smt_srv540_ap_srv224_ap_1024i.pdst...
=== Simulation ===
CPU 0 runs /gpfs/projects/bsc18/MN4/bsc18/romol/ChampSim/traces/qualcomm_srv/smt_srv540_ap_srv224_ap_1024i.champsimtrace.xz

Region of Interest Statistics

CPU 0 cumulative IPC: 0.362144 instructions: 100000004 cycles: 276134005
CPU 0 Branch Prediction Accuracy: 76.9778% MPKI: 42.7248 Average ROB Occupancy at Mispredict: 11.5431
Branch type MPKI
BRANCH_DIRECT_JUMP: 1.25324
BRANCH_INDIRECT: 22.4673
BRANCH_CONDITIONAL: 12.3144
BRANCH_DIRECT_CALL: 2.36653
BRANCH_INDIRECT_CALL: 1.00633
BRANCH_RETURN: 3.31707

Instructions large pages: 0
Instructions small pages: 13228
Large page distribution for instructions: 0%

Data large pages: 0
Data small pages: 11873
Large page distribution for data: 0%

cpu0_L1I TOTAL       ACCESS:   39550618  HIT:   31483766  MISS:    8066852  iACCESS:   39550618  iHIT:   31483766  iMISS:    8066852  dACCESS:          0  dHIT:          0  dMISS:          0  itACCESS:          0  itHIT:          0  itMISS:          0  dtACCESS:          0  dtHIT:          0  dtMISS:          0
cpu0_L1I LOAD         ACCESS:   11673779  HIT:    9474117  MISS:    2199662  iACCESS:   11673779  iHIT:    9474117  iMISS:    2199662  dACCESS:          0  dHIT:          0  dMISS:          0  itACCESS:          0  itHIT:          0  itMISS:          0  dtACCESS:          0  dtHIT:          0  dtMISS:          0
cpu0_L1I RFO          ACCESS:          0  HIT:          0  MISS:          0  iACCESS:          0  iHIT:          0  iMISS:          0  dACCESS:          0  dHIT:          0  dMISS:          0  itACCESS:          0  itHIT:          0  itMISS:          0  dtACCESS:          0  dtHIT:          0  dtMISS:          0
cpu0_L1I PREFETCH     ACCESS:   27876839  HIT:   22009649  MISS:    5867190  iACCESS:   27876839  iHIT:   22009649  iMISS:    5867190  dACCESS:          0  dHIT:          0  dMISS:          0  itACCESS:          0  itHIT:          0  itMISS:          0  dtACCESS:          0  dtHIT:          0  dtMISS:          0
cpu0_L1I WRITE        ACCESS:          0  HIT:          0  MISS:          0  iACCESS:          0  iHIT:          0  iMISS:          0  dACCESS:          0  dHIT:          0  dMISS:          0  itACCESS:          0  itHIT:          0  itMISS:          0  dtACCESS:          0  dtHIT:          0  dtMISS:          0
cpu0_L1I TRANSLATION  ACCESS:          0  HIT:          0  MISS:          0  iACCESS:          0  iHIT:          0  iMISS:          0  dACCESS:          0  dHIT:          0  dMISS:          0  itACCESS:          0  itHIT:          0  itMISS:          0  dtACCESS:          0  dtHIT:          0  dtMISS:          0
cpu0_L1I PREFETCH  REQUESTED:   30720958  ISSUED:   30720681  CROSSED:          0  USEFUL:    2051803  USELESS:     699034
cpu0_L1I AVERAGE iMISS LATENCY: 23.1758 cycles
cpu0_L1I AVERAGE dMISS LATENCY: 0 cycles
cpu0_L1I AVERAGE itMISS LATENCY: 0 cycles
cpu0_L1I AVERAGE dtMISS LATENCY: 0 cycles
cpu0_L1I PAGE CROSSINGS (TLB HIT):         0 
cpu0_L1I PAGE CROSSINGS (TLB MISS):         0 
cpu0_L1I AVERAGE MISS LATENCY: 23.1758 cycles
cpu0_ITLB TOTAL       ACCESS:   33259017  HIT:   31204653  MISS:    2054364  iACCESS:   33259017  iHIT:   31204653  iMISS:    2054364  dACCESS:          0  dHIT:          0  dMISS:          0  itACCESS:          0  itHIT:          0  itMISS:          0  dtACCESS:          0  dtHIT:          0  dtMISS:          0
cpu0_ITLB LOAD         ACCESS:   33259017  HIT:   31204653  MISS:    2054364  iACCESS:   33259017  iHIT:   31204653  iMISS:    2054364  dACCESS:          0  dHIT:          0  dMISS:          0  itACCESS:          0  itHIT:          0  itMISS:          0  dtACCESS:          0  dtHIT:          0  dtMISS:          0
cpu0_ITLB RFO          ACCESS:          0  HIT:          0  MISS:          0  iACCESS:          0  iHIT:          0  iMISS:          0  dACCESS:          0  dHIT:          0  dMISS:          0  itACCESS:          0  itHIT:          0  itMISS:          0  dtACCESS:          0  dtHIT:          0  dtMISS:          0
cpu0_ITLB PREFETCH     ACCESS:          0  HIT:          0  MISS:          0  iACCESS:          0  iHIT:          0  iMISS:          0  dACCESS:          0  dHIT:          0  dMISS:          0  itACCESS:          0  itHIT:          0  itMISS:          0  dtACCESS:          0  dtHIT:          0  dtMISS:          0
cpu0_ITLB WRITE        ACCESS:          0  HIT:          0  MISS:          0  iACCESS:          0  iHIT:          0  iMISS:          0  dACCESS:          0  dHIT:          0  dMISS:          0  itACCESS:          0  itHIT:          0  itMISS:          0  dtACCESS:          0  dtHIT:          0  dtMISS:          0
cpu0_ITLB TRANSLATION  ACCESS:          0  HIT:          0  MISS:          0  iACCESS:          0  iHIT:          0  iMISS:          0  dACCESS:          0  dHIT:          0  dMISS:          0  itACCESS:          0  itHIT:          0  itMISS:          0  dtACCESS:          0  dtHIT:          0  dtMISS:          0
cpu0_ITLB PREFETCH  REQUESTED:          0  ISSUED:          0  CROSSED:          0  USEFUL:     356671  USELESS:      74025
cpu0_ITLB AVERAGE iMISS LATENCY: 10.028 cycles
cpu0_ITLB AVERAGE dMISS LATENCY: 0 cycles
cpu0_ITLB AVERAGE itMISS LATENCY: 0 cycles
cpu0_ITLB AVERAGE dtMISS LATENCY: 0 cycles
cpu0_ITLB PAGE CROSSINGS (TLB HIT):         0 
cpu0_ITLB PAGE CROSSINGS (TLB MISS):         0 
cpu0_ITLB AVERAGE MISS LATENCY: 10.028 cycles
cpu0_DTLB TOTAL       ACCESS:   29631345  HIT:   24876264  MISS:    4755081  iACCESS:          0  iHIT:          0  iMISS:          0  dACCESS:   29631345  dHIT:   24876264  dMISS:    4755081  itACCESS:          0  itHIT:          0  itMISS:          0  dtACCESS:          0  dtHIT:          0  dtMISS:          0
cpu0_DTLB LOAD         ACCESS:   29631345  HIT:   24876264  MISS:    4755081  iACCESS:          0  iHIT:          0  iMISS:          0  dACCESS:   29631345  dHIT:   24876264  dMISS:    4755081  itACCESS:          0  itHIT:          0  itMISS:          0  dtACCESS:          0  dtHIT:          0  dtMISS:          0
cpu0_DTLB RFO          ACCESS:          0  HIT:          0  MISS:          0  iACCESS:          0  iHIT:          0  iMISS:          0  dACCESS:          0  dHIT:          0  dMISS:          0  itACCESS:          0  itHIT:          0  itMISS:          0  dtACCESS:          0  dtHIT:          0  dtMISS:          0
cpu0_DTLB PREFETCH     ACCESS:          0  HIT:          0  MISS:          0  iACCESS:          0  iHIT:          0  iMISS:          0  dACCESS:          0  dHIT:          0  dMISS:          0  itACCESS:          0  itHIT:          0  itMISS:          0  dtACCESS:          0  dtHIT:          0  dtMISS:          0
cpu0_DTLB WRITE        ACCESS:          0  HIT:          0  MISS:          0  iACCESS:          0  iHIT:          0  iMISS:          0  dACCESS:          0  dHIT:          0  dMISS:          0  itACCESS:          0  itHIT:          0  itMISS:          0  dtACCESS:          0  dtHIT:          0  dtMISS:          0
cpu0_DTLB TRANSLATION  ACCESS:          0  HIT:          0  MISS:          0  iACCESS:          0  iHIT:          0  iMISS:          0  dACCESS:          0  dHIT:          0  dMISS:          0  itACCESS:          0  itHIT:          0  itMISS:          0  dtACCESS:          0  dtHIT:          0  dtMISS:          0
cpu0_DTLB PREFETCH  REQUESTED:          0  ISSUED:          0  CROSSED:          0  USEFUL:          0  USELESS:          0
cpu0_DTLB AVERAGE iMISS LATENCY: 0 cycles
cpu0_DTLB AVERAGE dMISS LATENCY: 18.1155 cycles
cpu0_DTLB AVERAGE itMISS LATENCY: 0 cycles
cpu0_DTLB AVERAGE dtMISS LATENCY: 0 cycles
cpu0_DTLB PAGE CROSSINGS (TLB HIT):         0 
cpu0_DTLB PAGE CROSSINGS (TLB MISS):         0 
cpu0_DTLB AVERAGE MISS LATENCY: 18.1155 cycles
cpu0_STLB TOTAL       ACCESS:    3033163  HIT:    2690810  MISS:     342353  iACCESS:     430706  iHIT:     327451  iMISS:     103255  dACCESS:    2602457  dHIT:    2363359  dMISS:     239098  itACCESS:          0  itHIT:          0  itMISS:          0  dtACCESS:          0  dtHIT:          0  dtMISS:          0
cpu0_STLB LOAD         ACCESS:    3033163  HIT:    2690810  MISS:     342353  iACCESS:     430706  iHIT:     327451  iMISS:     103255  dACCESS:    2602457  dHIT:    2363359  dMISS:     239098  itACCESS:          0  itHIT:          0  itMISS:          0  dtACCESS:          0  dtHIT:          0  dtMISS:          0
cpu0_STLB RFO          ACCESS:          0  HIT:          0  MISS:          0  iACCESS:          0  iHIT:          0  iMISS:          0  dACCESS:          0  dHIT:          0  dMISS:          0  itACCESS:          0  itHIT:          0  itMISS:          0  dtACCESS:          0  dtHIT:          0  dtMISS:          0
cpu0_STLB PREFETCH     ACCESS:          0  HIT:          0  MISS:          0  iACCESS:          0  iHIT:          0  iMISS:          0  dACCESS:          0  dHIT:          0  dMISS:          0  itACCESS:          0  itHIT:          0  itMISS:          0  dtACCESS:          0  dtHIT:          0  dtMISS:          0
cpu0_STLB WRITE        ACCESS:          0  HIT:          0  MISS:          0  iACCESS:          0  iHIT:          0  iMISS:          0  dACCESS:          0  dHIT:          0  dMISS:          0  itACCESS:          0  itHIT:          0  itMISS:          0  dtACCESS:          0  dtHIT:          0  dtMISS:          0
cpu0_STLB TRANSLATION  ACCESS:          0  HIT:          0  MISS:          0  iACCESS:          0  iHIT:          0  iMISS:          0  dACCESS:          0  dHIT:          0  dMISS:          0  itACCESS:          0  itHIT:          0  itMISS:          0  dtACCESS:          0  dtHIT:          0  dtMISS:          0
cpu0_STLB PREFETCH  REQUESTED:          0  ISSUED:          0  CROSSED:          0  USEFUL:          0  USELESS:          0
cpu0_STLB AVERAGE iMISS LATENCY: 50.1144 cycles
cpu0_STLB AVERAGE dMISS LATENCY: 190.272 cycles
cpu0_STLB AVERAGE itMISS LATENCY: 0 cycles
cpu0_STLB AVERAGE dtMISS LATENCY: 0 cycles
cpu0_STLB PAGE CROSSINGS (TLB HIT):         0 
cpu0_STLB PAGE CROSSINGS (TLB MISS):         0 
cpu0_STLB AVERAGE MISS LATENCY: 240.386 cycles
cpu0_L1D TOTAL       ACCESS:   45516080  HIT:   39281674  MISS:    6234406  iACCESS:          0  iHIT:          0  iMISS:          0  dACCESS:   45019848  dHIT:   39250901  dMISS:    5768947  itACCESS:     115412  itHIT:      12291  itMISS:     103121  dtACCESS:     380820  dtHIT:      18482  dtMISS:     362338
cpu0_L1D LOAD         ACCESS:   21068356  HIT:   18125296  MISS:    2943060  iACCESS:          0  iHIT:          0  iMISS:          0  dACCESS:   21068356  dHIT:   18125296  dMISS:    2943060  itACCESS:          0  itHIT:          0  itMISS:          0  dtACCESS:          0  dtHIT:          0  dtMISS:          0
cpu0_L1D RFO          ACCESS:          0  HIT:          0  MISS:          0  iACCESS:          0  iHIT:          0  iMISS:          0  dACCESS:          0  dHIT:          0  dMISS:          0  itACCESS:          0  itHIT:          0  itMISS:          0  dtACCESS:          0  dtHIT:          0  dtMISS:          0
cpu0_L1D PREFETCH     ACCESS:   13930976  HIT:   11644798  MISS:    2286178  iACCESS:          0  iHIT:          0  iMISS:          0  dACCESS:   13930976  dHIT:   11644798  dMISS:    2286178  itACCESS:          0  itHIT:          0  itMISS:          0  dtACCESS:          0  dtHIT:          0  dtMISS:          0
cpu0_L1D WRITE        ACCESS:   10020516  HIT:    9480807  MISS:     539709  iACCESS:          0  iHIT:          0  iMISS:          0  dACCESS:   10020516  dHIT:    9480807  dMISS:     539709  itACCESS:          0  itHIT:          0  itMISS:          0  dtACCESS:          0  dtHIT:          0  dtMISS:          0
cpu0_L1D TRANSLATION  ACCESS:     496232  HIT:      30773  MISS:     465459  iACCESS:          0  iHIT:          0  iMISS:          0  dACCESS:          0  dHIT:          0  dMISS:          0  itACCESS:     115412  itHIT:      12291  itMISS:     103121  dtACCESS:     380820  dtHIT:      18482  dtMISS:     362338
cpu0_L1D PREFETCH  REQUESTED:   21068356  ISSUED:   18549543  CROSSED:          0  USEFUL:     339981  USELESS:    1016800
cpu0_L1D AVERAGE iMISS LATENCY: 0 cycles
cpu0_L1D AVERAGE dMISS LATENCY: 42.0766 cycles
cpu0_L1D AVERAGE itMISS LATENCY: 2.59697 cycles
cpu0_L1D AVERAGE dtMISS LATENCY: 9.65086 cycles
cpu0_L1D PAGE CROSSINGS (TLB HIT):         0 
cpu0_L1D PAGE CROSSINGS (TLB MISS):         0 
cpu0_L1D AVERAGE MISS LATENCY: 54.3244 cycles
cpu0_L2C TOTAL       ACCESS:    8954107  HIT:    4716468  MISS:    4237639  iACCESS:    3495358  iHIT:    2094288  iMISS:    1401070  dACCESS:    5014296  dHIT:    2561665  dMISS:    2452631  itACCESS:     102955  itHIT:      19428  itMISS:      83527  dtACCESS:     341498  dtHIT:      41087  dtMISS:     300411
cpu0_L2C LOAD         ACCESS:    2670592  HIT:    1612069  MISS:    1058523  iACCESS:     780620  iHIT:     482207  iMISS:     298413  dACCESS:    1889972  dHIT:    1129862  dMISS:     760110  itACCESS:          0  itHIT:          0  itMISS:          0  dtACCESS:          0  dtHIT:          0  dtMISS:          0
cpu0_L2C RFO          ACCESS:     216603  HIT:      92455  MISS:     124148  iACCESS:          0  iHIT:          0  iMISS:          0  dACCESS:     216603  dHIT:      92455  dMISS:     124148  itACCESS:          0  itHIT:          0  itMISS:          0  dtACCESS:          0  dtHIT:          0  dtMISS:          0
cpu0_L2C PREFETCH     ACCESS:    5288128  HIT:    2634734  MISS:    2653394  iACCESS:    2714738  iHIT:    1612081  iMISS:    1102657  dACCESS:    2573390  dHIT:    1022653  dMISS:    1550737  itACCESS:          0  itHIT:          0  itMISS:          0  dtACCESS:          0  dtHIT:          0  dtMISS:          0
cpu0_L2C WRITE        ACCESS:     334331  HIT:     316695  MISS:      17636  iACCESS:          0  iHIT:          0  iMISS:          0  dACCESS:     334331  dHIT:     316695  dMISS:      17636  itACCESS:          0  itHIT:          0  itMISS:          0  dtACCESS:          0  dtHIT:          0  dtMISS:          0
cpu0_L2C TRANSLATION  ACCESS:     444453  HIT:      60515  MISS:     383938  iACCESS:          0  iHIT:          0  iMISS:          0  dACCESS:          0  dHIT:          0  dMISS:          0  itACCESS:     102955  itHIT:      19428  itMISS:      83527  dtACCESS:     341498  dtHIT:      41087  dtMISS:     300411
cpu0_L2C PREFETCH  REQUESTED:    1438528  ISSUED:    1438495  CROSSED:          0  USEFUL:     339025  USELESS:     302468
cpu0_L2C AVERAGE iMISS LATENCY: 37.1158 cycles
cpu0_L2C AVERAGE dMISS LATENCY: 73.6264 cycles
cpu0_L2C AVERAGE itMISS LATENCY: 3.58164 cycles
cpu0_L2C AVERAGE dtMISS LATENCY: 13.3977 cycles
cpu0_L2C PAGE CROSSINGS (TLB HIT):         0 
cpu0_L2C PAGE CROSSINGS (TLB MISS):         0 
cpu0_L2C AVERAGE MISS LATENCY: 127.722 cycles
LLC TOTAL       ACCESS:    4224355  HIT:    1507085  MISS:    2717270  iACCESS:    1316132  iHIT:     477454  iMISS:     838678  dACCESS:    2524285  dHIT:     987785  dMISS:    1536500  itACCESS:      83527  itHIT:       7365  itMISS:      76162  dtACCESS:     300411  dtHIT:      34481  dtMISS:     265930
LLC LOAD         ACCESS:    1053427  HIT:     432294  MISS:     621133  iACCESS:     297146  iHIT:     116945  iMISS:     180201  dACCESS:     756281  dHIT:     315349  dMISS:     440932  itACCESS:          0  itHIT:          0  itMISS:          0  dtACCESS:          0  dtHIT:          0  dtMISS:          0
LLC RFO          ACCESS:     124138  HIT:      43384  MISS:      80754  iACCESS:          0  iHIT:          0  iMISS:          0  dACCESS:     124138  dHIT:      43384  dMISS:      80754  itACCESS:          0  itHIT:          0  itMISS:          0  dtACCESS:          0  dtHIT:          0  dtMISS:          0
LLC PREFETCH     ACCESS:    2460369  HIT:     797127  MISS:    1663242  iACCESS:    1018986  iHIT:     360509  iMISS:     658477  dACCESS:    1441383  dHIT:     436618  dMISS:    1004765  itACCESS:          0  itHIT:          0  itMISS:          0  dtACCESS:          0  dtHIT:          0  dtMISS:          0
LLC WRITE        ACCESS:     202483  HIT:     192434  MISS:      10049  iACCESS:          0  iHIT:          0  iMISS:          0  dACCESS:     202483  dHIT:     192434  dMISS:      10049  itACCESS:          0  itHIT:          0  itMISS:          0  dtACCESS:          0  dtHIT:          0  dtMISS:          0
LLC TRANSLATION  ACCESS:     383938  HIT:      41846  MISS:     342092  iACCESS:          0  iHIT:          0  iMISS:          0  dACCESS:          0  dHIT:          0  dMISS:          0  itACCESS:      83527  itHIT:       7365  itMISS:      76162  dtACCESS:     300411  dtHIT:      34481  dtMISS:     265930
LLC PREFETCH  REQUESTED:          0  ISSUED:          0  CROSSED:          0  USEFUL:          0  USELESS:          0
LLC AVERAGE iMISS LATENCY: 48.3502 cycles
LLC AVERAGE dMISS LATENCY: 98.75 cycles
LLC AVERAGE itMISS LATENCY: 4.97615 cycles
LLC AVERAGE dtMISS LATENCY: 18.7091 cycles
LLC PAGE CROSSINGS (TLB HIT):         0 
LLC PAGE CROSSINGS (TLB MISS):         0 
LLC AVERAGE MISS LATENCY: 170.786 cycles

PageTableWalker TOTAL       ACCESS:     163968  
PageTableWalker AVERAGE LATENCY: 6.27802 cycles
PageTableWalker TOTAL LATENCY: 1029393 cycles

DRAM Statistics
Channel 0
 RQ ROW_BUFFER_HIT:     588756
  ROW_BUFFER_MISS:    2107945
 AVG DBUS CONGESTED CYCLE:     3.6492
 WQ ROW_BUFFER_HIT:      58603
  ROW_BUFFER_MISS:      49513  FULL:          0

