last_page:0x200000000000000
VMEM_RES_CAP:0x100000
PAGE_SIZE:4096
LOG2_PAGE_SIZE:12
LOG2_PAGE_TABLE_SIZE:9
page_table_levels:5
WARNING: physical memory size is smaller than virtual memory size
FDiP enabled with aggresivity 16

*** ChampSim Multicore Out-of-Order Simulator ***

Warmup Instructions: 50000000
Simulation Instructions: 100000000
Number of CPUs: 1
Small page size: 4096
Large page size: 2097152

CPU 0 Bimodal branch predictor
Basic BTB sets: 1024 ways: 8 indirect buffer size: 4096 RAS size: 64
Instruction page size distrubution: 0
Loading instruction page size distribution from /home/bsc/bsc018186/scratch/itp_asplos25_AE/dump/smt_srv85_ap_srv259_ap_1024i.pdst
Data page size distrubution: 0
Loading data page size distribution from /home/bsc/bsc018186/scratch/itp_asplos25_AE/dump/smt_srv85_ap_srv259_ap_1024i.pdst
cpu0_L2C IP-based stride prefetcher
cpu0_L1D next line prefetcher
cpu0_L1I next line prefetcher
Off-chip DRAM Size: 4 GiB Channels: 1 Width: 64-bit Data Rate: 3200 MT/s
Heartbeat CPU 0 instructions: 10000002 cycles: 2500473 heartbeat IPC: 3.99925 cumulative IPC: 3.99925 (Simulation time: 0 hr 0 min 39 sec) 
Heartbeat CPU 0 instructions: 20000003 cycles: 5000925 heartbeat IPC: 3.99928 cumulative IPC: 3.99927 (Simulation time: 0 hr 1 min 21 sec) 
Heartbeat CPU 0 instructions: 30000003 cycles: 7501272 heartbeat IPC: 3.99945 cumulative IPC: 3.99933 (Simulation time: 0 hr 2 min 3 sec) 
Heartbeat CPU 0 instructions: 40000000 cycles: 10001711 heartbeat IPC: 3.9993 cumulative IPC: 3.99932 (Simulation time: 0 hr 2 min 44 sec) 
Heartbeat CPU 0 instructions: 50000000 cycles: 12502076 heartbeat IPC: 3.99942 cumulative IPC: 3.99934 (Simulation time: 0 hr 3 min 26 sec) 
Warmup finished CPU 0 instructions: 50000000 cycles: 12502077 cumulative IPC: 3.99934 (Simulation time: 0 hr 3 min 26 sec) 

Warmup complete CPU 0 instructions: 50000000 cycles: 12502077 (Simulation time: 0 hr 3 min 26 sec) 

Heartbeat CPU 0 instructions: 60000000 cycles: 40717423 heartbeat IPC: 0.354418 cumulative IPC: 0.354418 (Simulation time: 0 hr 4 min 53 sec) 
Heartbeat CPU 0 instructions: 70000002 cycles: 70694552 heartbeat IPC: 0.333588 cumulative IPC: 0.343688 (Simulation time: 0 hr 6 min 20 sec) 
Heartbeat CPU 0 instructions: 80000002 cycles: 100036011 heartbeat IPC: 0.340815 cumulative IPC: 0.342725 (Simulation time: 0 hr 7 min 48 sec) 
Heartbeat CPU 0 instructions: 90000002 cycles: 128604021 heartbeat IPC: 0.350042 cumulative IPC: 0.344525 (Simulation time: 0 hr 9 min 14 sec) 
Heartbeat CPU 0 instructions: 100000000 cycles: 158221508 heartbeat IPC: 0.337639 cumulative IPC: 0.343126 (Simulation time: 0 hr 10 min 42 sec) 
Heartbeat CPU 0 instructions: 110000002 cycles: 187808280 heartbeat IPC: 0.337989 cumulative IPC: 0.342259 (Simulation time: 0 hr 12 min 10 sec) 
Heartbeat CPU 0 instructions: 120000001 cycles: 216389750 heartbeat IPC: 0.349878 cumulative IPC: 0.343327 (Simulation time: 0 hr 13 min 39 sec) 
Heartbeat CPU 0 instructions: 130000002 cycles: 247075910 heartbeat IPC: 0.32588 cumulative IPC: 0.341045 (Simulation time: 0 hr 15 min 9 sec) 
Heartbeat CPU 0 instructions: 140000004 cycles: 275010248 heartbeat IPC: 0.357983 cumulative IPC: 0.342847 (Simulation time: 0 hr 16 min 36 sec) 
Heartbeat CPU 0 instructions: 150000000 cycles: 305245615 heartbeat IPC: 0.330739 cumulative IPC: 0.341596 (Simulation time: 0 hr 18 min 6 sec) 
Simulation finished CPU 0 instructions: 100000000 cycles: 292743539 cumulative IPC: 0.341596 (Simulation time: 0 hr 18 min 6 sec) 

Simulation complete CPU 0 instructions: 100000000 cycles: 292743539 (Simulation time: 0 hr 18 min 6 sec) 


ChampSim completed all CPUs

Saving instructions large page distribution to /home/bsc/bsc018186/scratch/itp_asplos25_AE/dump/smt_srv85_ap_srv259_ap_1024i.pdst...
Saving data large page distribution to /home/bsc/bsc018186/scratch/itp_asplos25_AE/dump/smt_srv85_ap_srv259_ap_1024i.pdst...
=== Simulation ===
CPU 0 runs /gpfs/projects/bsc18/MN4/bsc18/romol/ChampSim/traces/qualcomm_srv/smt_srv85_ap_srv259_ap_1024i.champsimtrace.xz

Region of Interest Statistics

CPU 0 cumulative IPC: 0.341596 instructions: 100000000 cycles: 292743539
CPU 0 Branch Prediction Accuracy: 76.3208% MPKI: 42.6441 Average ROB Occupancy at Mispredict: 11.4583
Branch type MPKI
BRANCH_DIRECT_JUMP: 1.3339
BRANCH_INDIRECT: 22.7744
BRANCH_CONDITIONAL: 11.6746
BRANCH_DIRECT_CALL: 2.44996
BRANCH_INDIRECT_CALL: 0.991811
BRANCH_RETURN: 3.41944

Instructions large pages: 0
Instructions small pages: 9620
Large page distribution for instructions: 0%

Data large pages: 0
Data small pages: 8501
Large page distribution for data: 0%

cpu0_L1I TOTAL       ACCESS:   38885796  HIT:   30126098  MISS:    8759698  iACCESS:   38885796  iHIT:   30126098  iMISS:    8759698  dACCESS:          0  dHIT:          0  dMISS:          0  itACCESS:          0  itHIT:          0  itMISS:          0  dtACCESS:          0  dtHIT:          0  dtMISS:          0
cpu0_L1I LOAD         ACCESS:   11687689  HIT:    9276285  MISS:    2411404  iACCESS:   11687689  iHIT:    9276285  iMISS:    2411404  dACCESS:          0  dHIT:          0  dMISS:          0  itACCESS:          0  itHIT:          0  itMISS:          0  dtACCESS:          0  dtHIT:          0  dtMISS:          0
cpu0_L1I RFO          ACCESS:          0  HIT:          0  MISS:          0  iACCESS:          0  iHIT:          0  iMISS:          0  dACCESS:          0  dHIT:          0  dMISS:          0  itACCESS:          0  itHIT:          0  itMISS:          0  dtACCESS:          0  dtHIT:          0  dtMISS:          0
cpu0_L1I PREFETCH     ACCESS:   27198107  HIT:   20849813  MISS:    6348294  iACCESS:   27198107  iHIT:   20849813  iMISS:    6348294  dACCESS:          0  dHIT:          0  dMISS:          0  itACCESS:          0  itHIT:          0  itMISS:          0  dtACCESS:          0  dtHIT:          0  dtMISS:          0
cpu0_L1I WRITE        ACCESS:          0  HIT:          0  MISS:          0  iACCESS:          0  iHIT:          0  iMISS:          0  dACCESS:          0  dHIT:          0  dMISS:          0  itACCESS:          0  itHIT:          0  itMISS:          0  dtACCESS:          0  dtHIT:          0  dtMISS:          0
cpu0_L1I TRANSLATION  ACCESS:          0  HIT:          0  MISS:          0  iACCESS:          0  iHIT:          0  iMISS:          0  dACCESS:          0  dHIT:          0  dMISS:          0  itACCESS:          0  itHIT:          0  itMISS:          0  dtACCESS:          0  dtHIT:          0  dtMISS:          0
cpu0_L1I PREFETCH  REQUESTED:   30073141  ISSUED:   30072857  CROSSED:          0  USEFUL:    2201935  USELESS:     766643
cpu0_L1I AVERAGE iMISS LATENCY: 22.1902 cycles
cpu0_L1I AVERAGE dMISS LATENCY: 0 cycles
cpu0_L1I AVERAGE itMISS LATENCY: 0 cycles
cpu0_L1I AVERAGE dtMISS LATENCY: 0 cycles
cpu0_L1I PAGE CROSSINGS (TLB HIT):         0 
cpu0_L1I PAGE CROSSINGS (TLB MISS):         0 
cpu0_L1I AVERAGE MISS LATENCY: 22.1902 cycles
cpu0_ITLB TOTAL       ACCESS:   32819498  HIT:   30552882  MISS:    2266616  iACCESS:   32819498  iHIT:   30552882  iMISS:    2266616  dACCESS:          0  dHIT:          0  dMISS:          0  itACCESS:          0  itHIT:          0  itMISS:          0  dtACCESS:          0  dtHIT:          0  dtMISS:          0
cpu0_ITLB LOAD         ACCESS:   32819498  HIT:   30552882  MISS:    2266616  iACCESS:   32819498  iHIT:   30552882  iMISS:    2266616  dACCESS:          0  dHIT:          0  dMISS:          0  itACCESS:          0  itHIT:          0  itMISS:          0  dtACCESS:          0  dtHIT:          0  dtMISS:          0
cpu0_ITLB RFO          ACCESS:          0  HIT:          0  MISS:          0  iACCESS:          0  iHIT:          0  iMISS:          0  dACCESS:          0  dHIT:          0  dMISS:          0  itACCESS:          0  itHIT:          0  itMISS:          0  dtACCESS:          0  dtHIT:          0  dtMISS:          0
cpu0_ITLB PREFETCH     ACCESS:          0  HIT:          0  MISS:          0  iACCESS:          0  iHIT:          0  iMISS:          0  dACCESS:          0  dHIT:          0  dMISS:          0  itACCESS:          0  itHIT:          0  itMISS:          0  dtACCESS:          0  dtHIT:          0  dtMISS:          0
cpu0_ITLB WRITE        ACCESS:          0  HIT:          0  MISS:          0  iACCESS:          0  iHIT:          0  iMISS:          0  dACCESS:          0  dHIT:          0  dMISS:          0  itACCESS:          0  itHIT:          0  itMISS:          0  dtACCESS:          0  dtHIT:          0  dtMISS:          0
cpu0_ITLB TRANSLATION  ACCESS:          0  HIT:          0  MISS:          0  iACCESS:          0  iHIT:          0  iMISS:          0  dACCESS:          0  dHIT:          0  dMISS:          0  itACCESS:          0  itHIT:          0  itMISS:          0  dtACCESS:          0  dtHIT:          0  dtMISS:          0
cpu0_ITLB PREFETCH  REQUESTED:          0  ISSUED:          0  CROSSED:          0  USEFUL:     386202  USELESS:      82236
cpu0_ITLB AVERAGE iMISS LATENCY: 10.0679 cycles
cpu0_ITLB AVERAGE dMISS LATENCY: 0 cycles
cpu0_ITLB AVERAGE itMISS LATENCY: 0 cycles
cpu0_ITLB AVERAGE dtMISS LATENCY: 0 cycles
cpu0_ITLB PAGE CROSSINGS (TLB HIT):         0 
cpu0_ITLB PAGE CROSSINGS (TLB MISS):         0 
cpu0_ITLB AVERAGE MISS LATENCY: 10.0679 cycles
cpu0_DTLB TOTAL       ACCESS:   28788689  HIT:   25119914  MISS:    3668775  iACCESS:          0  iHIT:          0  iMISS:          0  dACCESS:   28788689  dHIT:   25119914  dMISS:    3668775  itACCESS:          0  itHIT:          0  itMISS:          0  dtACCESS:          0  dtHIT:          0  dtMISS:          0
cpu0_DTLB LOAD         ACCESS:   28788689  HIT:   25119914  MISS:    3668775  iACCESS:          0  iHIT:          0  iMISS:          0  dACCESS:   28788689  dHIT:   25119914  dMISS:    3668775  itACCESS:          0  itHIT:          0  itMISS:          0  dtACCESS:          0  dtHIT:          0  dtMISS:          0
cpu0_DTLB RFO          ACCESS:          0  HIT:          0  MISS:          0  iACCESS:          0  iHIT:          0  iMISS:          0  dACCESS:          0  dHIT:          0  dMISS:          0  itACCESS:          0  itHIT:          0  itMISS:          0  dtACCESS:          0  dtHIT:          0  dtMISS:          0
cpu0_DTLB PREFETCH     ACCESS:          0  HIT:          0  MISS:          0  iACCESS:          0  iHIT:          0  iMISS:          0  dACCESS:          0  dHIT:          0  dMISS:          0  itACCESS:          0  itHIT:          0  itMISS:          0  dtACCESS:          0  dtHIT:          0  dtMISS:          0
cpu0_DTLB WRITE        ACCESS:          0  HIT:          0  MISS:          0  iACCESS:          0  iHIT:          0  iMISS:          0  dACCESS:          0  dHIT:          0  dMISS:          0  itACCESS:          0  itHIT:          0  itMISS:          0  dtACCESS:          0  dtHIT:          0  dtMISS:          0
cpu0_DTLB TRANSLATION  ACCESS:          0  HIT:          0  MISS:          0  iACCESS:          0  iHIT:          0  iMISS:          0  dACCESS:          0  dHIT:          0  dMISS:          0  itACCESS:          0  itHIT:          0  itMISS:          0  dtACCESS:          0  dtHIT:          0  dtMISS:          0
cpu0_DTLB PREFETCH  REQUESTED:          0  ISSUED:          0  CROSSED:          0  USEFUL:          0  USELESS:          0
cpu0_DTLB AVERAGE iMISS LATENCY: 0 cycles
cpu0_DTLB AVERAGE dMISS LATENCY: 25.3301 cycles
cpu0_DTLB AVERAGE itMISS LATENCY: 0 cycles
cpu0_DTLB AVERAGE dtMISS LATENCY: 0 cycles
cpu0_DTLB PAGE CROSSINGS (TLB HIT):         0 
cpu0_DTLB PAGE CROSSINGS (TLB MISS):         0 
cpu0_DTLB AVERAGE MISS LATENCY: 25.3301 cycles
cpu0_STLB TOTAL       ACCESS:    2599586  HIT:    2219753  MISS:     379833  iACCESS:     468444  iHIT:     359984  iMISS:     108460  dACCESS:    2131142  dHIT:    1859769  dMISS:     271373  itACCESS:          0  itHIT:          0  itMISS:          0  dtACCESS:          0  dtHIT:          0  dtMISS:          0
cpu0_STLB LOAD         ACCESS:    2599586  HIT:    2219753  MISS:     379833  iACCESS:     468444  iHIT:     359984  iMISS:     108460  dACCESS:    2131142  dHIT:    1859769  dMISS:     271373  itACCESS:          0  itHIT:          0  itMISS:          0  dtACCESS:          0  dtHIT:          0  dtMISS:          0
cpu0_STLB RFO          ACCESS:          0  HIT:          0  MISS:          0  iACCESS:          0  iHIT:          0  iMISS:          0  dACCESS:          0  dHIT:          0  dMISS:          0  itACCESS:          0  itHIT:          0  itMISS:          0  dtACCESS:          0  dtHIT:          0  dtMISS:          0
cpu0_STLB PREFETCH     ACCESS:          0  HIT:          0  MISS:          0  iACCESS:          0  iHIT:          0  iMISS:          0  dACCESS:          0  dHIT:          0  dMISS:          0  itACCESS:          0  itHIT:          0  itMISS:          0  dtACCESS:          0  dtHIT:          0  dtMISS:          0
cpu0_STLB WRITE        ACCESS:          0  HIT:          0  MISS:          0  iACCESS:          0  iHIT:          0  iMISS:          0  dACCESS:          0  dHIT:          0  dMISS:          0  itACCESS:          0  itHIT:          0  itMISS:          0  dtACCESS:          0  dtHIT:          0  dtMISS:          0
cpu0_STLB TRANSLATION  ACCESS:          0  HIT:          0  MISS:          0  iACCESS:          0  iHIT:          0  iMISS:          0  dACCESS:          0  dHIT:          0  dMISS:          0  itACCESS:          0  itHIT:          0  itMISS:          0  dtACCESS:          0  dtHIT:          0  dtMISS:          0
cpu0_STLB PREFETCH  REQUESTED:          0  ISSUED:          0  CROSSED:          0  USEFUL:          0  USELESS:          0
cpu0_STLB AVERAGE iMISS LATENCY: 50.2311 cycles
cpu0_STLB AVERAGE dMISS LATENCY: 199.475 cycles
cpu0_STLB AVERAGE itMISS LATENCY: 0 cycles
cpu0_STLB AVERAGE dtMISS LATENCY: 0 cycles
cpu0_STLB PAGE CROSSINGS (TLB HIT):         0 
cpu0_STLB PAGE CROSSINGS (TLB MISS):         0 
cpu0_STLB AVERAGE MISS LATENCY: 249.706 cycles
cpu0_L1D TOTAL       ACCESS:   44880059  HIT:   39053064  MISS:    5826995  iACCESS:          0  iHIT:          0  iMISS:          0  dACCESS:   44314479  dHIT:   39021855  dMISS:    5292624  itACCESS:     124354  itHIT:      12313  itMISS:     112041  dtACCESS:     441226  dtHIT:      18896  dtMISS:     422330
cpu0_L1D LOAD         ACCESS:   20249771  HIT:   17865649  MISS:    2384122  iACCESS:          0  iHIT:          0  iMISS:          0  dACCESS:   20249771  dHIT:   17865649  dMISS:    2384122  itACCESS:          0  itHIT:          0  itMISS:          0  dtACCESS:          0  dtHIT:          0  dtMISS:          0
cpu0_L1D RFO          ACCESS:          0  HIT:          0  MISS:          0  iACCESS:          0  iHIT:          0  iMISS:          0  dACCESS:          0  dHIT:          0  dMISS:          0  itACCESS:          0  itHIT:          0  itMISS:          0  dtACCESS:          0  dtHIT:          0  dtMISS:          0
cpu0_L1D PREFETCH     ACCESS:   13941320  HIT:   11613580  MISS:    2327740  iACCESS:          0  iHIT:          0  iMISS:          0  dACCESS:   13941320  dHIT:   11613580  dMISS:    2327740  itACCESS:          0  itHIT:          0  itMISS:          0  dtACCESS:          0  dtHIT:          0  dtMISS:          0
cpu0_L1D WRITE        ACCESS:   10123388  HIT:    9542626  MISS:     580762  iACCESS:          0  iHIT:          0  iMISS:          0  dACCESS:   10123388  dHIT:    9542626  dMISS:     580762  itACCESS:          0  itHIT:          0  itMISS:          0  dtACCESS:          0  dtHIT:          0  dtMISS:          0
cpu0_L1D TRANSLATION  ACCESS:     565580  HIT:      31209  MISS:     534371  iACCESS:          0  iHIT:          0  iMISS:          0  dACCESS:          0  dHIT:          0  dMISS:          0  itACCESS:     124354  itHIT:      12313  itMISS:     112041  dtACCESS:     441226  dtHIT:      18896  dtMISS:     422330
cpu0_L1D PREFETCH  REQUESTED:   20249771  ISSUED:   18421431  CROSSED:          0  USEFUL:     355327  USELESS:     934117
cpu0_L1D AVERAGE iMISS LATENCY: 0 cycles
cpu0_L1D AVERAGE dMISS LATENCY: 49.7472 cycles
cpu0_L1D AVERAGE itMISS LATENCY: 3.09987 cycles
cpu0_L1D AVERAGE dtMISS LATENCY: 12.2015 cycles
cpu0_L1D PAGE CROSSINGS (TLB HIT):         0 
cpu0_L1D PAGE CROSSINGS (TLB MISS):         0 
cpu0_L1D AVERAGE MISS LATENCY: 65.0485 cycles
cpu0_L2C TOTAL       ACCESS:    8616697  HIT:    4204563  MISS:    4412134  iACCESS:    3790660  iHIT:    2330774  iMISS:    1459886  dACCESS:    4328652  dHIT:    1815321  dMISS:    2513331  itACCESS:     110017  itHIT:      17628  itMISS:      92389  dtACCESS:     387368  dtHIT:      40840  dtMISS:     346528
cpu0_L2C LOAD         ACCESS:    2079484  HIT:    1013403  MISS:    1066081  iACCESS:     859831  iHIT:     551880  iMISS:     307951  dACCESS:    1219653  dHIT:     461523  dMISS:     758130  itACCESS:          0  itHIT:          0  itMISS:          0  dtACCESS:          0  dtHIT:          0  dtMISS:          0
cpu0_L2C RFO          ACCESS:     215293  HIT:      82438  MISS:     132855  iACCESS:          0  iHIT:          0  iMISS:          0  dACCESS:     215293  dHIT:      82438  dMISS:     132855  itACCESS:          0  itHIT:          0  itMISS:          0  dtACCESS:          0  dtHIT:          0  dtMISS:          0
cpu0_L2C PREFETCH     ACCESS:    5482340  HIT:    2711785  MISS:    2770555  iACCESS:    2930829  iHIT:    1778894  iMISS:    1151935  dACCESS:    2551511  dHIT:     932891  dMISS:    1618620  itACCESS:          0  itHIT:          0  itMISS:          0  dtACCESS:          0  dtHIT:          0  dtMISS:          0
cpu0_L2C WRITE        ACCESS:     342195  HIT:     338469  MISS:       3726  iACCESS:          0  iHIT:          0  iMISS:          0  dACCESS:     342195  dHIT:     338469  dMISS:       3726  itACCESS:          0  itHIT:          0  itMISS:          0  dtACCESS:          0  dtHIT:          0  dtMISS:          0
cpu0_L2C TRANSLATION  ACCESS:     497385  HIT:      58468  MISS:     438917  iACCESS:          0  iHIT:          0  iMISS:          0  dACCESS:          0  dHIT:          0  dMISS:          0  itACCESS:     110017  itHIT:      17628  itMISS:      92389  dtACCESS:     387368  dtHIT:      40840  dtMISS:     346528
cpu0_L2C PREFETCH  REQUESTED:    1527204  ISSUED:    1527203  CROSSED:          0  USEFUL:     360512  USELESS:     305124
cpu0_L2C AVERAGE iMISS LATENCY: 36.6776 cycles
cpu0_L2C AVERAGE dMISS LATENCY: 78.8649 cycles
cpu0_L2C AVERAGE itMISS LATENCY: 3.84782 cycles
cpu0_L2C AVERAGE dtMISS LATENCY: 15.2401 cycles
cpu0_L2C PAGE CROSSINGS (TLB HIT):         0 
cpu0_L2C PAGE CROSSINGS (TLB MISS):         0 
cpu0_L2C AVERAGE MISS LATENCY: 134.631 cycles
LLC TOTAL       ACCESS:    4431042  HIT:    1495519  MISS:    2935523  iACCESS:    1380601  iHIT:     529793  iMISS:     850808  dACCESS:    2611524  dHIT:     921549  dMISS:    1689975  itACCESS:      92389  itHIT:       7212  itMISS:      85177  dtACCESS:     346528  dtHIT:      36965  dtMISS:     309563
LLC LOAD         ACCESS:    1057684  HIT:     357091  MISS:     700593  iACCESS:     306665  iHIT:     124214  iMISS:     182451  dACCESS:     751019  dHIT:     232877  dMISS:     518142  itACCESS:          0  itHIT:          0  itMISS:          0  dtACCESS:          0  dtHIT:          0  dtMISS:          0
LLC RFO          ACCESS:     132847  HIT:      40438  MISS:      92409  iACCESS:          0  iHIT:          0  iMISS:          0  dACCESS:     132847  dHIT:      40438  dMISS:      92409  itACCESS:          0  itHIT:          0  itMISS:          0  dtACCESS:          0  dtHIT:          0  dtMISS:          0
LLC PREFETCH     ACCESS:    2588885  HIT:     851031  MISS:    1737854  iACCESS:    1073936  iHIT:     405579  iMISS:     668357  dACCESS:    1514949  dHIT:     445452  dMISS:    1069497  itACCESS:          0  itHIT:          0  itMISS:          0  dtACCESS:          0  dtHIT:          0  dtMISS:          0
LLC WRITE        ACCESS:     212709  HIT:     202782  MISS:       9927  iACCESS:          0  iHIT:          0  iMISS:          0  dACCESS:     212709  dHIT:     202782  dMISS:       9927  itACCESS:          0  itHIT:          0  itMISS:          0  dtACCESS:          0  dtHIT:          0  dtMISS:          0
LLC TRANSLATION  ACCESS:     438917  HIT:      44177  MISS:     394740  iACCESS:          0  iHIT:          0  iMISS:          0  dACCESS:          0  dHIT:          0  dMISS:          0  itACCESS:      92389  itHIT:       7212  itMISS:      85177  dtACCESS:     346528  dtHIT:      36965  dtMISS:     309563
LLC PREFETCH  REQUESTED:          0  ISSUED:          0  CROSSED:          0  USEFUL:          0  USELESS:          0
LLC AVERAGE iMISS LATENCY: 45.8833 cycles
LLC AVERAGE dMISS LATENCY: 103.47 cycles
LLC AVERAGE itMISS LATENCY: 5.15914 cycles
LLC AVERAGE dtMISS LATENCY: 20.5718 cycles
LLC PAGE CROSSINGS (TLB HIT):         0 
LLC PAGE CROSSINGS (TLB MISS):         0 
LLC AVERAGE MISS LATENCY: 175.085 cycles

PageTableWalker TOTAL       ACCESS:     189644  
PageTableWalker AVERAGE LATENCY: 6.52459 cycles
PageTableWalker TOTAL LATENCY: 1237348 cycles

DRAM Statistics
Channel 0
 RQ ROW_BUFFER_HIT:     587864
  ROW_BUFFER_MISS:    2317804
 AVG DBUS CONGESTED CYCLE:    3.64768
 WQ ROW_BUFFER_HIT:      67734
  ROW_BUFFER_MISS:      56561  FULL:          0

