last_page:0x200000000000000
VMEM_RES_CAP:0x100000
PAGE_SIZE:4096
LOG2_PAGE_SIZE:12
LOG2_PAGE_TABLE_SIZE:9
page_table_levels:5
WARNING: physical memory size is smaller than virtual memory size
FDiP enabled with aggresivity 16

*** ChampSim Multicore Out-of-Order Simulator ***

Warmup Instructions: 50000000
Simulation Instructions: 100000000
Number of CPUs: 1
Small page size: 4096
Large page size: 2097152

CPU 0 Bimodal branch predictor
Basic BTB sets: 1024 ways: 8 indirect buffer size: 4096 RAS size: 64
Instruction page size distrubution: 0
Loading instruction page size distribution from /home/bsc/bsc018186/scratch/itp_asplos25_AE/dump/smt_srv207_ap_srv180_ap_1024i.pdst
Data page size distrubution: 0
Loading data page size distribution from /home/bsc/bsc018186/scratch/itp_asplos25_AE/dump/smt_srv207_ap_srv180_ap_1024i.pdst
cpu0_L2C IP-based stride prefetcher
cpu0_L1D next line prefetcher
cpu0_L1I next line prefetcher
Off-chip DRAM Size: 4 GiB Channels: 1 Width: 64-bit Data Rate: 3200 MT/s
Heartbeat CPU 0 instructions: 10000001 cycles: 2500601 heartbeat IPC: 3.99904 cumulative IPC: 3.99904 (Simulation time: 0 hr 0 min 44 sec) 
Heartbeat CPU 0 instructions: 20000003 cycles: 5000884 heartbeat IPC: 3.99955 cumulative IPC: 3.9993 (Simulation time: 0 hr 1 min 30 sec) 
Heartbeat CPU 0 instructions: 30000000 cycles: 7501145 heartbeat IPC: 3.99959 cumulative IPC: 3.99939 (Simulation time: 0 hr 2 min 15 sec) 
Heartbeat CPU 0 instructions: 40000002 cycles: 10001609 heartbeat IPC: 3.99926 cumulative IPC: 3.99936 (Simulation time: 0 hr 2 min 59 sec) 
Heartbeat CPU 0 instructions: 50000000 cycles: 12501936 heartbeat IPC: 3.99948 cumulative IPC: 3.99939 (Simulation time: 0 hr 3 min 44 sec) 
Warmup finished CPU 0 instructions: 50000000 cycles: 12501937 cumulative IPC: 3.99939 (Simulation time: 0 hr 3 min 44 sec) 

Warmup complete CPU 0 instructions: 50000000 cycles: 12501937 (Simulation time: 0 hr 3 min 44 sec) 

Heartbeat CPU 0 instructions: 60000001 cycles: 40015698 heartbeat IPC: 0.363455 cumulative IPC: 0.363455 (Simulation time: 0 hr 5 min 12 sec) 
Heartbeat CPU 0 instructions: 70000001 cycles: 66622544 heartbeat IPC: 0.375844 cumulative IPC: 0.369546 (Simulation time: 0 hr 6 min 37 sec) 
Heartbeat CPU 0 instructions: 80000000 cycles: 95207971 heartbeat IPC: 0.349829 cumulative IPC: 0.362731 (Simulation time: 0 hr 8 min 7 sec) 
Heartbeat CPU 0 instructions: 90000000 cycles: 123407036 heartbeat IPC: 0.354622 cumulative IPC: 0.360669 (Simulation time: 0 hr 9 min 36 sec) 
Heartbeat CPU 0 instructions: 100000002 cycles: 150831045 heartbeat IPC: 0.364645 cumulative IPC: 0.361457 (Simulation time: 0 hr 11 min 2 sec) 
Heartbeat CPU 0 instructions: 110000000 cycles: 177976146 heartbeat IPC: 0.368391 cumulative IPC: 0.362595 (Simulation time: 0 hr 12 min 30 sec) 
Heartbeat CPU 0 instructions: 120000000 cycles: 205447710 heartbeat IPC: 0.364013 cumulative IPC: 0.362797 (Simulation time: 0 hr 13 min 59 sec) 
Heartbeat CPU 0 instructions: 130000000 cycles: 231570431 heartbeat IPC: 0.382809 cumulative IPC: 0.365183 (Simulation time: 0 hr 15 min 23 sec) 
Heartbeat CPU 0 instructions: 140000002 cycles: 260345000 heartbeat IPC: 0.34753 cumulative IPC: 0.363134 (Simulation time: 0 hr 16 min 53 sec) 
Heartbeat CPU 0 instructions: 150000000 cycles: 287321011 heartbeat IPC: 0.3707 cumulative IPC: 0.363876 (Simulation time: 0 hr 18 min 21 sec) 
Simulation finished CPU 0 instructions: 100000000 cycles: 274819075 cumulative IPC: 0.363876 (Simulation time: 0 hr 18 min 21 sec) 

Simulation complete CPU 0 instructions: 100000000 cycles: 274819075 (Simulation time: 0 hr 18 min 21 sec) 


ChampSim completed all CPUs

Saving instructions large page distribution to /home/bsc/bsc018186/scratch/itp_asplos25_AE/dump/smt_srv207_ap_srv180_ap_1024i.pdst...
Saving data large page distribution to /home/bsc/bsc018186/scratch/itp_asplos25_AE/dump/smt_srv207_ap_srv180_ap_1024i.pdst...
=== Simulation ===
CPU 0 runs /gpfs/projects/bsc18/MN4/bsc18/romol/ChampSim/traces/qualcomm_srv/smt_srv207_ap_srv180_ap_1024i.champsimtrace.xz

Region of Interest Statistics

CPU 0 cumulative IPC: 0.363876 instructions: 100000000 cycles: 274819075
CPU 0 Branch Prediction Accuracy: 75.4138% MPKI: 44.1444 Average ROB Occupancy at Mispredict: 11.0748
Branch type MPKI
BRANCH_DIRECT_JUMP: 1.3486
BRANCH_INDIRECT: 23.3502
BRANCH_CONDITIONAL: 12.479
BRANCH_DIRECT_CALL: 2.53399
BRANCH_INDIRECT_CALL: 0.939861
BRANCH_RETURN: 3.49286

Instructions large pages: 0
Instructions small pages: 14868
Large page distribution for instructions: 0%

Data large pages: 0
Data small pages: 13491
Large page distribution for data: 0%

cpu0_L1I TOTAL       ACCESS:   39285606  HIT:   30101100  MISS:    9184506  iACCESS:   39285606  iHIT:   30101100  iMISS:    9184506  dACCESS:          0  dHIT:          0  dMISS:          0  itACCESS:          0  itHIT:          0  itMISS:          0  dtACCESS:          0  dtHIT:          0  dtMISS:          0
cpu0_L1I LOAD         ACCESS:   11680981  HIT:    9180856  MISS:    2500125  iACCESS:   11680981  iHIT:    9180856  iMISS:    2500125  dACCESS:          0  dHIT:          0  dMISS:          0  itACCESS:          0  itHIT:          0  itMISS:          0  dtACCESS:          0  dtHIT:          0  dtMISS:          0
cpu0_L1I RFO          ACCESS:          0  HIT:          0  MISS:          0  iACCESS:          0  iHIT:          0  iMISS:          0  dACCESS:          0  dHIT:          0  dMISS:          0  itACCESS:          0  itHIT:          0  itMISS:          0  dtACCESS:          0  dtHIT:          0  dtMISS:          0
cpu0_L1I PREFETCH     ACCESS:   27604625  HIT:   20920244  MISS:    6684381  iACCESS:   27604625  iHIT:   20920244  iMISS:    6684381  dACCESS:          0  dHIT:          0  dMISS:          0  itACCESS:          0  itHIT:          0  itMISS:          0  dtACCESS:          0  dtHIT:          0  dtMISS:          0
cpu0_L1I WRITE        ACCESS:          0  HIT:          0  MISS:          0  iACCESS:          0  iHIT:          0  iMISS:          0  dACCESS:          0  dHIT:          0  dMISS:          0  itACCESS:          0  itHIT:          0  itMISS:          0  dtACCESS:          0  dtHIT:          0  dtMISS:          0
cpu0_L1I TRANSLATION  ACCESS:          0  HIT:          0  MISS:          0  iACCESS:          0  iHIT:          0  iMISS:          0  dACCESS:          0  dHIT:          0  dMISS:          0  itACCESS:          0  itHIT:          0  itMISS:          0  dtACCESS:          0  dtHIT:          0  dtMISS:          0
cpu0_L1I PREFETCH  REQUESTED:   30193674  ISSUED:   30192335  CROSSED:          0  USEFUL:    2194983  USELESS:     773909
cpu0_L1I AVERAGE iMISS LATENCY: 23.6211 cycles
cpu0_L1I AVERAGE dMISS LATENCY: 0 cycles
cpu0_L1I AVERAGE itMISS LATENCY: 0 cycles
cpu0_L1I AVERAGE dtMISS LATENCY: 0 cycles
cpu0_L1I PAGE CROSSINGS (TLB HIT):         0 
cpu0_L1I PAGE CROSSINGS (TLB MISS):         0 
cpu0_L1I AVERAGE MISS LATENCY: 23.6211 cycles
cpu0_ITLB TOTAL       ACCESS:   33025982  HIT:   30803957  MISS:    2222025  iACCESS:   33025982  iHIT:   30803957  iMISS:    2222025  dACCESS:          0  dHIT:          0  dMISS:          0  itACCESS:          0  itHIT:          0  itMISS:          0  dtACCESS:          0  dtHIT:          0  dtMISS:          0
cpu0_ITLB LOAD         ACCESS:   33025982  HIT:   30803957  MISS:    2222025  iACCESS:   33025982  iHIT:   30803957  iMISS:    2222025  dACCESS:          0  dHIT:          0  dMISS:          0  itACCESS:          0  itHIT:          0  itMISS:          0  dtACCESS:          0  dtHIT:          0  dtMISS:          0
cpu0_ITLB RFO          ACCESS:          0  HIT:          0  MISS:          0  iACCESS:          0  iHIT:          0  iMISS:          0  dACCESS:          0  dHIT:          0  dMISS:          0  itACCESS:          0  itHIT:          0  itMISS:          0  dtACCESS:          0  dtHIT:          0  dtMISS:          0
cpu0_ITLB PREFETCH     ACCESS:          0  HIT:          0  MISS:          0  iACCESS:          0  iHIT:          0  iMISS:          0  dACCESS:          0  dHIT:          0  dMISS:          0  itACCESS:          0  itHIT:          0  itMISS:          0  dtACCESS:          0  dtHIT:          0  dtMISS:          0
cpu0_ITLB WRITE        ACCESS:          0  HIT:          0  MISS:          0  iACCESS:          0  iHIT:          0  iMISS:          0  dACCESS:          0  dHIT:          0  dMISS:          0  itACCESS:          0  itHIT:          0  itMISS:          0  dtACCESS:          0  dtHIT:          0  dtMISS:          0
cpu0_ITLB TRANSLATION  ACCESS:          0  HIT:          0  MISS:          0  iACCESS:          0  iHIT:          0  iMISS:          0  dACCESS:          0  dHIT:          0  dMISS:          0  itACCESS:          0  itHIT:          0  itMISS:          0  dtACCESS:          0  dtHIT:          0  dtMISS:          0
cpu0_ITLB PREFETCH  REQUESTED:          0  ISSUED:          0  CROSSED:          0  USEFUL:     391053  USELESS:      80056
cpu0_ITLB AVERAGE iMISS LATENCY: 7.89588 cycles
cpu0_ITLB AVERAGE dMISS LATENCY: 0 cycles
cpu0_ITLB AVERAGE itMISS LATENCY: 0 cycles
cpu0_ITLB AVERAGE dtMISS LATENCY: 0 cycles
cpu0_ITLB PAGE CROSSINGS (TLB HIT):         0 
cpu0_ITLB PAGE CROSSINGS (TLB MISS):         0 
cpu0_ITLB AVERAGE MISS LATENCY: 7.89588 cycles
cpu0_DTLB TOTAL       ACCESS:   29126105  HIT:   25535223  MISS:    3590882  iACCESS:          0  iHIT:          0  iMISS:          0  dACCESS:   29126105  dHIT:   25535223  dMISS:    3590882  itACCESS:          0  itHIT:          0  itMISS:          0  dtACCESS:          0  dtHIT:          0  dtMISS:          0
cpu0_DTLB LOAD         ACCESS:   29126105  HIT:   25535223  MISS:    3590882  iACCESS:          0  iHIT:          0  iMISS:          0  dACCESS:   29126105  dHIT:   25535223  dMISS:    3590882  itACCESS:          0  itHIT:          0  itMISS:          0  dtACCESS:          0  dtHIT:          0  dtMISS:          0
cpu0_DTLB RFO          ACCESS:          0  HIT:          0  MISS:          0  iACCESS:          0  iHIT:          0  iMISS:          0  dACCESS:          0  dHIT:          0  dMISS:          0  itACCESS:          0  itHIT:          0  itMISS:          0  dtACCESS:          0  dtHIT:          0  dtMISS:          0
cpu0_DTLB PREFETCH     ACCESS:          0  HIT:          0  MISS:          0  iACCESS:          0  iHIT:          0  iMISS:          0  dACCESS:          0  dHIT:          0  dMISS:          0  itACCESS:          0  itHIT:          0  itMISS:          0  dtACCESS:          0  dtHIT:          0  dtMISS:          0
cpu0_DTLB WRITE        ACCESS:          0  HIT:          0  MISS:          0  iACCESS:          0  iHIT:          0  iMISS:          0  dACCESS:          0  dHIT:          0  dMISS:          0  itACCESS:          0  itHIT:          0  itMISS:          0  dtACCESS:          0  dtHIT:          0  dtMISS:          0
cpu0_DTLB TRANSLATION  ACCESS:          0  HIT:          0  MISS:          0  iACCESS:          0  iHIT:          0  iMISS:          0  dACCESS:          0  dHIT:          0  dMISS:          0  itACCESS:          0  itHIT:          0  itMISS:          0  dtACCESS:          0  dtHIT:          0  dtMISS:          0
cpu0_DTLB PREFETCH  REQUESTED:          0  ISSUED:          0  CROSSED:          0  USEFUL:          0  USELESS:          0
cpu0_DTLB AVERAGE iMISS LATENCY: 0 cycles
cpu0_DTLB AVERAGE dMISS LATENCY: 17.3604 cycles
cpu0_DTLB AVERAGE itMISS LATENCY: 0 cycles
cpu0_DTLB AVERAGE dtMISS LATENCY: 0 cycles
cpu0_DTLB PAGE CROSSINGS (TLB HIT):         0 
cpu0_DTLB PAGE CROSSINGS (TLB MISS):         0 
cpu0_DTLB AVERAGE MISS LATENCY: 17.3604 cycles
cpu0_STLB TOTAL       ACCESS:    2580992  HIT:    2209070  MISS:     371922  iACCESS:     471120  iHIT:     360739  iMISS:     110381  dACCESS:    2109872  dHIT:    1848331  dMISS:     261541  itACCESS:          0  itHIT:          0  itMISS:          0  dtACCESS:          0  dtHIT:          0  dtMISS:          0
cpu0_STLB LOAD         ACCESS:    2580992  HIT:    2209070  MISS:     371922  iACCESS:     471120  iHIT:     360739  iMISS:     110381  dACCESS:    2109872  dHIT:    1848331  dMISS:     261541  itACCESS:          0  itHIT:          0  itMISS:          0  dtACCESS:          0  dtHIT:          0  dtMISS:          0
cpu0_STLB RFO          ACCESS:          0  HIT:          0  MISS:          0  iACCESS:          0  iHIT:          0  iMISS:          0  dACCESS:          0  dHIT:          0  dMISS:          0  itACCESS:          0  itHIT:          0  itMISS:          0  dtACCESS:          0  dtHIT:          0  dtMISS:          0
cpu0_STLB PREFETCH     ACCESS:          0  HIT:          0  MISS:          0  iACCESS:          0  iHIT:          0  iMISS:          0  dACCESS:          0  dHIT:          0  dMISS:          0  itACCESS:          0  itHIT:          0  itMISS:          0  dtACCESS:          0  dtHIT:          0  dtMISS:          0
cpu0_STLB WRITE        ACCESS:          0  HIT:          0  MISS:          0  iACCESS:          0  iHIT:          0  iMISS:          0  dACCESS:          0  dHIT:          0  dMISS:          0  itACCESS:          0  itHIT:          0  itMISS:          0  dtACCESS:          0  dtHIT:          0  dtMISS:          0
cpu0_STLB TRANSLATION  ACCESS:          0  HIT:          0  MISS:          0  iACCESS:          0  iHIT:          0  iMISS:          0  dACCESS:          0  dHIT:          0  dMISS:          0  itACCESS:          0  itHIT:          0  itMISS:          0  dtACCESS:          0  dtHIT:          0  dtMISS:          0
cpu0_STLB PREFETCH  REQUESTED:          0  ISSUED:          0  CROSSED:          0  USEFUL:          0  USELESS:          0
cpu0_STLB AVERAGE iMISS LATENCY: 37.0668 cycles
cpu0_STLB AVERAGE dMISS LATENCY: 122.032 cycles
cpu0_STLB AVERAGE itMISS LATENCY: 0 cycles
cpu0_STLB AVERAGE dtMISS LATENCY: 0 cycles
cpu0_STLB PAGE CROSSINGS (TLB HIT):         0 
cpu0_STLB PAGE CROSSINGS (TLB MISS):         0 
cpu0_STLB AVERAGE MISS LATENCY: 159.099 cycles
cpu0_L1D TOTAL       ACCESS:   45019017  HIT:   39540729  MISS:    5478288  iACCESS:          0  iHIT:          0  iMISS:          0  dACCESS:   44478864  dHIT:   39505976  dMISS:    4972888  itACCESS:     124305  itHIT:      14479  itMISS:     109826  dtACCESS:     415848  dtHIT:      20274  dtMISS:     395574
cpu0_L1D LOAD         ACCESS:   20377201  HIT:   18140497  MISS:    2236704  iACCESS:          0  iHIT:          0  iMISS:          0  dACCESS:   20377201  dHIT:   18140497  dMISS:    2236704  itACCESS:          0  itHIT:          0  itMISS:          0  dtACCESS:          0  dtHIT:          0  dtMISS:          0
cpu0_L1D RFO          ACCESS:          0  HIT:          0  MISS:          0  iACCESS:          0  iHIT:          0  iMISS:          0  dACCESS:          0  dHIT:          0  dMISS:          0  itACCESS:          0  itHIT:          0  itMISS:          0  dtACCESS:          0  dtHIT:          0  dtMISS:          0
cpu0_L1D PREFETCH     ACCESS:   13995941  HIT:   11833487  MISS:    2162454  iACCESS:          0  iHIT:          0  iMISS:          0  dACCESS:   13995941  dHIT:   11833487  dMISS:    2162454  itACCESS:          0  itHIT:          0  itMISS:          0  dtACCESS:          0  dtHIT:          0  dtMISS:          0
cpu0_L1D WRITE        ACCESS:   10105722  HIT:    9531992  MISS:     573730  iACCESS:          0  iHIT:          0  iMISS:          0  dACCESS:   10105722  dHIT:    9531992  dMISS:     573730  itACCESS:          0  itHIT:          0  itMISS:          0  dtACCESS:          0  dtHIT:          0  dtMISS:          0
cpu0_L1D TRANSLATION  ACCESS:     540153  HIT:      34753  MISS:     505400  iACCESS:          0  iHIT:          0  iMISS:          0  dACCESS:          0  dHIT:          0  dMISS:          0  itACCESS:     124305  itHIT:      14479  itMISS:     109826  dtACCESS:     415848  dtHIT:      20274  dtMISS:     395574
cpu0_L1D PREFETCH  REQUESTED:   20377201  ISSUED:   18728982  CROSSED:          0  USEFUL:     378895  USELESS:     949134
cpu0_L1D AVERAGE iMISS LATENCY: 0 cycles
cpu0_L1D AVERAGE dMISS LATENCY: 52.2679 cycles
cpu0_L1D AVERAGE itMISS LATENCY: 2.32944 cycles
cpu0_L1D AVERAGE dtMISS LATENCY: 7.32187 cycles
cpu0_L1D PAGE CROSSINGS (TLB HIT):         0 
cpu0_L1D PAGE CROSSINGS (TLB MISS):         0 
cpu0_L1D AVERAGE MISS LATENCY: 61.9192 cycles
cpu0_L2C TOTAL       ACCESS:    8642341  HIT:    1504638  MISS:    7137703  iACCESS:    3776224  iHIT:     783994  iMISS:    2992230  dACCESS:    4384116  dHIT:     533587  dMISS:    3850529  itACCESS:     109308  itHIT:      35535  itMISS:      73773  dtACCESS:     372693  dtHIT:     151522  dtMISS:     221171
cpu0_L2C LOAD         ACCESS:    2079934  HIT:     201600  MISS:    1878334  iACCESS:     842207  iHIT:     109041  iMISS:     733166  dACCESS:    1237727  dHIT:      92559  dMISS:    1145168  itACCESS:          0  itHIT:          0  itMISS:          0  dtACCESS:          0  dtHIT:          0  dtMISS:          0
cpu0_L2C RFO          ACCESS:     218165  HIT:      28715  MISS:     189450  iACCESS:          0  iHIT:          0  iMISS:          0  dACCESS:     218165  dHIT:      28715  dMISS:     189450  itACCESS:          0  itHIT:          0  itMISS:          0  dtACCESS:          0  dtHIT:          0  dtMISS:          0
cpu0_L2C PREFETCH     ACCESS:    5512770  HIT:     985095  MISS:    4527675  iACCESS:    2934017  iHIT:     674953  iMISS:    2259064  dACCESS:    2578753  dHIT:     310142  dMISS:    2268611  itACCESS:          0  itHIT:          0  itMISS:          0  dtACCESS:          0  dtHIT:          0  dtMISS:          0
cpu0_L2C WRITE        ACCESS:     349471  HIT:     102171  MISS:     247300  iACCESS:          0  iHIT:          0  iMISS:          0  dACCESS:     349471  dHIT:     102171  dMISS:     247300  itACCESS:          0  itHIT:          0  itMISS:          0  dtACCESS:          0  dtHIT:          0  dtMISS:          0
cpu0_L2C TRANSLATION  ACCESS:     482001  HIT:     187057  MISS:     294944  iACCESS:          0  iHIT:          0  iMISS:          0  dACCESS:          0  dHIT:          0  dMISS:          0  itACCESS:     109308  itHIT:      35535  itMISS:      73773  dtACCESS:     372693  dtHIT:     151522  dtMISS:     221171
cpu0_L2C PREFETCH  REQUESTED:    1494394  ISSUED:    1494393  CROSSED:          0  USEFUL:     405212  USELESS:     489867
cpu0_L2C AVERAGE iMISS LATENCY: 25.8155 cycles
cpu0_L2C AVERAGE dMISS LATENCY: 48.9406 cycles
cpu0_L2C AVERAGE itMISS LATENCY: 1.63932 cycles
cpu0_L2C AVERAGE dtMISS LATENCY: 5.11627 cycles
cpu0_L2C PAGE CROSSINGS (TLB HIT):         0 
cpu0_L2C PAGE CROSSINGS (TLB MISS):         0 
cpu0_L2C AVERAGE MISS LATENCY: 81.5116 cycles
LLC TOTAL       ACCESS:    6966813  HIT:    4327619  MISS:    2639194  iACCESS:    2904895  iHIT:    2093983  iMISS:     810912  dACCESS:    3766974  dHIT:    2165613  dMISS:    1601361  itACCESS:      73773  itHIT:      16764  itMISS:      57009  dtACCESS:     221171  dtHIT:      51259  dtMISS:     169912
LLC LOAD         ACCESS:    1871915  HIT:    1226238  MISS:     645677  iACCESS:     731810  iHIT:     560806  iMISS:     171004  dACCESS:    1140105  dHIT:     665432  dMISS:     474673  itACCESS:          0  itHIT:          0  itMISS:          0  dtACCESS:          0  dtHIT:          0  dtMISS:          0
LLC RFO          ACCESS:     189444  HIT:     101217  MISS:      88227  iACCESS:          0  iHIT:          0  iMISS:          0  dACCESS:     189444  dHIT:     101217  dMISS:      88227  itACCESS:          0  itHIT:          0  itMISS:          0  dtACCESS:          0  dtHIT:          0  dtMISS:          0
LLC PREFETCH     ACCESS:    4329499  HIT:    2657527  MISS:    1671972  iACCESS:    2173085  iHIT:    1533177  iMISS:     639908  dACCESS:    2156414  dHIT:    1124350  dMISS:    1032064  itACCESS:          0  itHIT:          0  itMISS:          0  dtACCESS:          0  dtHIT:          0  dtMISS:          0
LLC WRITE        ACCESS:     281011  HIT:     274614  MISS:       6397  iACCESS:          0  iHIT:          0  iMISS:          0  dACCESS:     281011  dHIT:     274614  dMISS:       6397  itACCESS:          0  itHIT:          0  itMISS:          0  dtACCESS:          0  dtHIT:          0  dtMISS:          0
LLC TRANSLATION  ACCESS:     294944  HIT:      68023  MISS:     226921  iACCESS:          0  iHIT:          0  iMISS:          0  dACCESS:          0  dHIT:          0  dMISS:          0  itACCESS:      73773  itHIT:      16764  itMISS:      57009  dtACCESS:     221171  dtHIT:      51259  dtMISS:     169912
LLC PREFETCH  REQUESTED:          0  ISSUED:          0  CROSSED:          0  USEFUL:          0  USELESS:          0
LLC AVERAGE iMISS LATENCY: 48.4539 cycles
LLC AVERAGE dMISS LATENCY: 107.225 cycles
LLC AVERAGE itMISS LATENCY: 3.88274 cycles
LLC AVERAGE dtMISS LATENCY: 12.1863 cycles
LLC PAGE CROSSINGS (TLB HIT):         0 
LLC PAGE CROSSINGS (TLB MISS):         0 
LLC AVERAGE MISS LATENCY: 171.748 cycles

PageTableWalker TOTAL       ACCESS:     180672  
PageTableWalker AVERAGE LATENCY: 6.02585 cycles
PageTableWalker TOTAL LATENCY: 1088702 cycles

DRAM Statistics
Channel 0
 RQ ROW_BUFFER_HIT:     581375
  ROW_BUFFER_MISS:    2041566
 AVG DBUS CONGESTED CYCLE:    3.64923
 WQ ROW_BUFFER_HIT:      65858
  ROW_BUFFER_MISS:      62537  FULL:          0

