last_page:0x200000000000000
VMEM_RES_CAP:0x100000
PAGE_SIZE:4096
LOG2_PAGE_SIZE:12
LOG2_PAGE_TABLE_SIZE:9
page_table_levels:5
WARNING: physical memory size is smaller than virtual memory size
FDiP enabled with aggresivity 16

*** ChampSim Multicore Out-of-Order Simulator ***

Warmup Instructions: 50000000
Simulation Instructions: 100000000
Number of CPUs: 1
Small page size: 4096
Large page size: 2097152

CPU 0 Bimodal branch predictor
Basic BTB sets: 1024 ways: 8 indirect buffer size: 4096 RAS size: 64
Instruction page size distrubution: 0
Loading instruction page size distribution from /home/bsc/bsc018186/scratch/itp_asplos25_AE/dump/smt_srv537_ap_srv224_ap_1024i.pdst
Data page size distrubution: 0
Loading data page size distribution from /home/bsc/bsc018186/scratch/itp_asplos25_AE/dump/smt_srv537_ap_srv224_ap_1024i.pdst
cpu0_L2C IP-based stride prefetcher
cpu0_L2C is using PTP replacement policy:
	TLB_STRESS_THRESHOLD:0
	PTE_EVICTION_RATIO:0
cpu0_L1D next line prefetcher
cpu0_L1I next line prefetcher
Off-chip DRAM Size: 4 GiB Channels: 1 Width: 64-bit Data Rate: 3200 MT/s
Heartbeat CPU 0 instructions: 10000002 cycles: 2500572 heartbeat IPC: 3.99909 cumulative IPC: 3.99909 (Simulation time: 0 hr 0 min 45 sec) 
Heartbeat CPU 0 instructions: 20000000 cycles: 5000863 heartbeat IPC: 3.99954 cumulative IPC: 3.99931 (Simulation time: 0 hr 1 min 32 sec) 
Heartbeat CPU 0 instructions: 30000001 cycles: 7501142 heartbeat IPC: 3.99956 cumulative IPC: 3.9994 (Simulation time: 0 hr 2 min 19 sec) 
Heartbeat CPU 0 instructions: 40000002 cycles: 10049060 heartbeat IPC: 3.92478 cumulative IPC: 3.98048 (Simulation time: 0 hr 3 min 7 sec) 
Heartbeat CPU 0 instructions: 50000000 cycles: 12611520 heartbeat IPC: 3.9025 cumulative IPC: 3.96463 (Simulation time: 0 hr 3 min 57 sec) 
Warmup finished CPU 0 instructions: 50000000 cycles: 12611521 cumulative IPC: 3.96463 (Simulation time: 0 hr 3 min 57 sec) 

Warmup complete CPU 0 instructions: 50000000 cycles: 12611521 (Simulation time: 0 hr 3 min 57 sec) 

Heartbeat CPU 0 instructions: 60000002 cycles: 29854771 heartbeat IPC: 0.579938 cumulative IPC: 0.579938 (Simulation time: 0 hr 5 min 19 sec) 
Heartbeat CPU 0 instructions: 70000003 cycles: 58617588 heartbeat IPC: 0.347672 cumulative IPC: 0.434726 (Simulation time: 0 hr 6 min 55 sec) 
Heartbeat CPU 0 instructions: 80000002 cycles: 86683154 heartbeat IPC: 0.356309 cumulative IPC: 0.405014 (Simulation time: 0 hr 8 min 32 sec) 
Heartbeat CPU 0 instructions: 90000000 cycles: 115760167 heartbeat IPC: 0.343915 cumulative IPC: 0.38779 (Simulation time: 0 hr 10 min 11 sec) 
Heartbeat CPU 0 instructions: 100000003 cycles: 144068512 heartbeat IPC: 0.353253 cumulative IPC: 0.380353 (Simulation time: 0 hr 11 min 46 sec) 
Heartbeat CPU 0 instructions: 110000002 cycles: 173369515 heartbeat IPC: 0.341286 cumulative IPC: 0.373232 (Simulation time: 0 hr 13 min 25 sec) 
Heartbeat CPU 0 instructions: 120000000 cycles: 201259955 heartbeat IPC: 0.358546 cumulative IPC: 0.371061 (Simulation time: 0 hr 15 min 1 sec) 
Heartbeat CPU 0 instructions: 130000000 cycles: 229375449 heartbeat IPC: 0.355676 cumulative IPC: 0.369066 (Simulation time: 0 hr 16 min 27 sec) 
Heartbeat CPU 0 instructions: 140000003 cycles: 258324881 heartbeat IPC: 0.345431 cumulative IPC: 0.366281 (Simulation time: 0 hr 17 min 52 sec) 
Heartbeat CPU 0 instructions: 150000002 cycles: 287019262 heartbeat IPC: 0.348501 cumulative IPC: 0.364422 (Simulation time: 0 hr 19 min 18 sec) 
Simulation finished CPU 0 instructions: 100000002 cycles: 274407742 cumulative IPC: 0.364422 (Simulation time: 0 hr 19 min 18 sec) 

Simulation complete CPU 0 instructions: 100000002 cycles: 274407742 (Simulation time: 0 hr 19 min 18 sec) 


ChampSim completed all CPUs

Saving instructions large page distribution to /home/bsc/bsc018186/scratch/itp_asplos25_AE/dump/smt_srv537_ap_srv224_ap_1024i.pdst...
Saving data large page distribution to /home/bsc/bsc018186/scratch/itp_asplos25_AE/dump/smt_srv537_ap_srv224_ap_1024i.pdst...
=== Simulation ===
CPU 0 runs /gpfs/projects/bsc18/MN4/bsc18/romol/ChampSim/traces/qualcomm_srv/smt_srv537_ap_srv224_ap_1024i.champsimtrace.xz

Region of Interest Statistics

CPU 0 cumulative IPC: 0.364422 instructions: 100000002 cycles: 274407742
CPU 0 Branch Prediction Accuracy: 77.0391% MPKI: 42.6818 Average ROB Occupancy at Mispredict: 11.3912
Branch type MPKI
BRANCH_DIRECT_JUMP: 1.24266
BRANCH_INDIRECT: 22.3948
BRANCH_CONDITIONAL: 12.3743
BRANCH_DIRECT_CALL: 2.36182
BRANCH_INDIRECT_CALL: 1.00877
BRANCH_RETURN: 3.29944

Instructions large pages: 0
Instructions small pages: 13855
Large page distribution for instructions: 0%

Data large pages: 0
Data small pages: 12484
Large page distribution for data: 0%

cpu0_L1I TOTAL       ACCESS:   39540110  HIT:   31383413  MISS:    8156697  iACCESS:   39540110  iHIT:   31383413  iMISS:    8156697  dACCESS:          0  dHIT:          0  dMISS:          0  itACCESS:          0  itHIT:          0  itMISS:          0  dtACCESS:          0  dtHIT:          0  dtMISS:          0
cpu0_L1I LOAD         ACCESS:   11650382  HIT:    9423984  MISS:    2226398  iACCESS:   11650382  iHIT:    9423984  iMISS:    2226398  dACCESS:          0  dHIT:          0  dMISS:          0  itACCESS:          0  itHIT:          0  itMISS:          0  dtACCESS:          0  dtHIT:          0  dtMISS:          0
cpu0_L1I RFO          ACCESS:          0  HIT:          0  MISS:          0  iACCESS:          0  iHIT:          0  iMISS:          0  dACCESS:          0  dHIT:          0  dMISS:          0  itACCESS:          0  itHIT:          0  itMISS:          0  dtACCESS:          0  dtHIT:          0  dtMISS:          0
cpu0_L1I PREFETCH     ACCESS:   27889728  HIT:   21959429  MISS:    5930299  iACCESS:   27889728  iHIT:   21959429  iMISS:    5930299  dACCESS:          0  dHIT:          0  dMISS:          0  itACCESS:          0  itHIT:          0  itMISS:          0  dtACCESS:          0  dtHIT:          0  dtMISS:          0
cpu0_L1I WRITE        ACCESS:          0  HIT:          0  MISS:          0  iACCESS:          0  iHIT:          0  iMISS:          0  dACCESS:          0  dHIT:          0  dMISS:          0  itACCESS:          0  itHIT:          0  itMISS:          0  dtACCESS:          0  dtHIT:          0  dtMISS:          0
cpu0_L1I TRANSLATION  ACCESS:          0  HIT:          0  MISS:          0  iACCESS:          0  iHIT:          0  iMISS:          0  dACCESS:          0  dHIT:          0  dMISS:          0  itACCESS:          0  itHIT:          0  itMISS:          0  dtACCESS:          0  dtHIT:          0  dtMISS:          0
cpu0_L1I PREFETCH  REQUESTED:   30711040  ISSUED:   30711027  CROSSED:          0  USEFUL:    2073405  USELESS:     709261
cpu0_L1I AVERAGE iMISS LATENCY: 22.9056 cycles
cpu0_L1I AVERAGE dMISS LATENCY: 0 cycles
cpu0_L1I AVERAGE itMISS LATENCY: 0 cycles
cpu0_L1I AVERAGE dtMISS LATENCY: 0 cycles
cpu0_L1I PAGE CROSSINGS (TLB HIT):         0 
cpu0_L1I PAGE CROSSINGS (TLB MISS):         0 
cpu0_L1I AVERAGE MISS LATENCY: 22.9056 cycles
cpu0_ITLB TOTAL       ACCESS:   33282768  HIT:   31198060  MISS:    2084708  iACCESS:   33282768  iHIT:   31198060  iMISS:    2084708  dACCESS:          0  dHIT:          0  dMISS:          0  itACCESS:          0  itHIT:          0  itMISS:          0  dtACCESS:          0  dtHIT:          0  dtMISS:          0
cpu0_ITLB LOAD         ACCESS:   33282768  HIT:   31198060  MISS:    2084708  iACCESS:   33282768  iHIT:   31198060  iMISS:    2084708  dACCESS:          0  dHIT:          0  dMISS:          0  itACCESS:          0  itHIT:          0  itMISS:          0  dtACCESS:          0  dtHIT:          0  dtMISS:          0
cpu0_ITLB RFO          ACCESS:          0  HIT:          0  MISS:          0  iACCESS:          0  iHIT:          0  iMISS:          0  dACCESS:          0  dHIT:          0  dMISS:          0  itACCESS:          0  itHIT:          0  itMISS:          0  dtACCESS:          0  dtHIT:          0  dtMISS:          0
cpu0_ITLB PREFETCH     ACCESS:          0  HIT:          0  MISS:          0  iACCESS:          0  iHIT:          0  iMISS:          0  dACCESS:          0  dHIT:          0  dMISS:          0  itACCESS:          0  itHIT:          0  itMISS:          0  dtACCESS:          0  dtHIT:          0  dtMISS:          0
cpu0_ITLB WRITE        ACCESS:          0  HIT:          0  MISS:          0  iACCESS:          0  iHIT:          0  iMISS:          0  dACCESS:          0  dHIT:          0  dMISS:          0  itACCESS:          0  itHIT:          0  itMISS:          0  dtACCESS:          0  dtHIT:          0  dtMISS:          0
cpu0_ITLB TRANSLATION  ACCESS:          0  HIT:          0  MISS:          0  iACCESS:          0  iHIT:          0  iMISS:          0  dACCESS:          0  dHIT:          0  dMISS:          0  itACCESS:          0  itHIT:          0  itMISS:          0  dtACCESS:          0  dtHIT:          0  dtMISS:          0
cpu0_ITLB PREFETCH  REQUESTED:          0  ISSUED:          0  CROSSED:          0  USEFUL:     361137  USELESS:      75066
cpu0_ITLB AVERAGE iMISS LATENCY: 9.48882 cycles
cpu0_ITLB AVERAGE dMISS LATENCY: 0 cycles
cpu0_ITLB AVERAGE itMISS LATENCY: 0 cycles
cpu0_ITLB AVERAGE dtMISS LATENCY: 0 cycles
cpu0_ITLB PAGE CROSSINGS (TLB HIT):         0 
cpu0_ITLB PAGE CROSSINGS (TLB MISS):         0 
cpu0_ITLB AVERAGE MISS LATENCY: 9.48882 cycles
cpu0_DTLB TOTAL       ACCESS:   29639846  HIT:   25090879  MISS:    4548967  iACCESS:          0  iHIT:          0  iMISS:          0  dACCESS:   29639846  dHIT:   25090879  dMISS:    4548967  itACCESS:          0  itHIT:          0  itMISS:          0  dtACCESS:          0  dtHIT:          0  dtMISS:          0
cpu0_DTLB LOAD         ACCESS:   29639846  HIT:   25090879  MISS:    4548967  iACCESS:          0  iHIT:          0  iMISS:          0  dACCESS:   29639846  dHIT:   25090879  dMISS:    4548967  itACCESS:          0  itHIT:          0  itMISS:          0  dtACCESS:          0  dtHIT:          0  dtMISS:          0
cpu0_DTLB RFO          ACCESS:          0  HIT:          0  MISS:          0  iACCESS:          0  iHIT:          0  iMISS:          0  dACCESS:          0  dHIT:          0  dMISS:          0  itACCESS:          0  itHIT:          0  itMISS:          0  dtACCESS:          0  dtHIT:          0  dtMISS:          0
cpu0_DTLB PREFETCH     ACCESS:          0  HIT:          0  MISS:          0  iACCESS:          0  iHIT:          0  iMISS:          0  dACCESS:          0  dHIT:          0  dMISS:          0  itACCESS:          0  itHIT:          0  itMISS:          0  dtACCESS:          0  dtHIT:          0  dtMISS:          0
cpu0_DTLB WRITE        ACCESS:          0  HIT:          0  MISS:          0  iACCESS:          0  iHIT:          0  iMISS:          0  dACCESS:          0  dHIT:          0  dMISS:          0  itACCESS:          0  itHIT:          0  itMISS:          0  dtACCESS:          0  dtHIT:          0  dtMISS:          0
cpu0_DTLB TRANSLATION  ACCESS:          0  HIT:          0  MISS:          0  iACCESS:          0  iHIT:          0  iMISS:          0  dACCESS:          0  dHIT:          0  dMISS:          0  itACCESS:          0  itHIT:          0  itMISS:          0  dtACCESS:          0  dtHIT:          0  dtMISS:          0
cpu0_DTLB PREFETCH  REQUESTED:          0  ISSUED:          0  CROSSED:          0  USEFUL:          0  USELESS:          0
cpu0_DTLB AVERAGE iMISS LATENCY: 0 cycles
cpu0_DTLB AVERAGE dMISS LATENCY: 18.466 cycles
cpu0_DTLB AVERAGE itMISS LATENCY: 0 cycles
cpu0_DTLB AVERAGE dtMISS LATENCY: 0 cycles
cpu0_DTLB PAGE CROSSINGS (TLB HIT):         0 
cpu0_DTLB PAGE CROSSINGS (TLB MISS):         0 
cpu0_DTLB AVERAGE MISS LATENCY: 18.466 cycles
cpu0_STLB TOTAL       ACCESS:    2892931  HIT:    2563705  MISS:     329226  iACCESS:     436212  iHIT:     334329  iMISS:     101883  dACCESS:    2456719  dHIT:    2229376  dMISS:     227343  itACCESS:          0  itHIT:          0  itMISS:          0  dtACCESS:          0  dtHIT:          0  dtMISS:          0
cpu0_STLB LOAD         ACCESS:    2892931  HIT:    2563705  MISS:     329226  iACCESS:     436212  iHIT:     334329  iMISS:     101883  dACCESS:    2456719  dHIT:    2229376  dMISS:     227343  itACCESS:          0  itHIT:          0  itMISS:          0  dtACCESS:          0  dtHIT:          0  dtMISS:          0
cpu0_STLB RFO          ACCESS:          0  HIT:          0  MISS:          0  iACCESS:          0  iHIT:          0  iMISS:          0  dACCESS:          0  dHIT:          0  dMISS:          0  itACCESS:          0  itHIT:          0  itMISS:          0  dtACCESS:          0  dtHIT:          0  dtMISS:          0
cpu0_STLB PREFETCH     ACCESS:          0  HIT:          0  MISS:          0  iACCESS:          0  iHIT:          0  iMISS:          0  dACCESS:          0  dHIT:          0  dMISS:          0  itACCESS:          0  itHIT:          0  itMISS:          0  dtACCESS:          0  dtHIT:          0  dtMISS:          0
cpu0_STLB WRITE        ACCESS:          0  HIT:          0  MISS:          0  iACCESS:          0  iHIT:          0  iMISS:          0  dACCESS:          0  dHIT:          0  dMISS:          0  itACCESS:          0  itHIT:          0  itMISS:          0  dtACCESS:          0  dtHIT:          0  dtMISS:          0
cpu0_STLB TRANSLATION  ACCESS:          0  HIT:          0  MISS:          0  iACCESS:          0  iHIT:          0  iMISS:          0  dACCESS:          0  dHIT:          0  dMISS:          0  itACCESS:          0  itHIT:          0  itMISS:          0  dtACCESS:          0  dtHIT:          0  dtMISS:          0
cpu0_STLB PREFETCH  REQUESTED:          0  ISSUED:          0  CROSSED:          0  USEFUL:          0  USELESS:          0
cpu0_STLB AVERAGE iMISS LATENCY: 49.4995 cycles
cpu0_STLB AVERAGE dMISS LATENCY: 194.988 cycles
cpu0_STLB AVERAGE itMISS LATENCY: 0 cycles
cpu0_STLB AVERAGE dtMISS LATENCY: 0 cycles
cpu0_STLB PAGE CROSSINGS (TLB HIT):         0 
cpu0_STLB PAGE CROSSINGS (TLB MISS):         0 
cpu0_STLB AVERAGE MISS LATENCY: 244.488 cycles
cpu0_L1D TOTAL       ACCESS:   45830801  HIT:   39459663  MISS:    6371138  iACCESS:          0  iHIT:          0  iMISS:          0  dACCESS:   45342129  dHIT:   39429809  dMISS:    5912320  itACCESS:     113297  itHIT:      13618  itMISS:      99679  dtACCESS:     375375  dtHIT:      16236  dtMISS:     359139
cpu0_L1D LOAD         ACCESS:   21171060  HIT:   18149348  MISS:    3021712  iACCESS:          0  iHIT:          0  iMISS:          0  dACCESS:   21171060  dHIT:   18149348  dMISS:    3021712  itACCESS:          0  itHIT:          0  itMISS:          0  dtACCESS:          0  dtHIT:          0  dtMISS:          0
cpu0_L1D RFO          ACCESS:          0  HIT:          0  MISS:          0  iACCESS:          0  iHIT:          0  iMISS:          0  dACCESS:          0  dHIT:          0  dMISS:          0  itACCESS:          0  itHIT:          0  itMISS:          0  dtACCESS:          0  dtHIT:          0  dtMISS:          0
cpu0_L1D PREFETCH     ACCESS:   14121398  HIT:   11760507  MISS:    2360891  iACCESS:          0  iHIT:          0  iMISS:          0  dACCESS:   14121398  dHIT:   11760507  dMISS:    2360891  itACCESS:          0  itHIT:          0  itMISS:          0  dtACCESS:          0  dtHIT:          0  dtMISS:          0
cpu0_L1D WRITE        ACCESS:   10049671  HIT:    9519954  MISS:     529717  iACCESS:          0  iHIT:          0  iMISS:          0  dACCESS:   10049671  dHIT:    9519954  dMISS:     529717  itACCESS:          0  itHIT:          0  itMISS:          0  dtACCESS:          0  dtHIT:          0  dtMISS:          0
cpu0_L1D TRANSLATION  ACCESS:     488672  HIT:      29854  MISS:     458818  iACCESS:          0  iHIT:          0  iMISS:          0  dACCESS:          0  dHIT:          0  dMISS:          0  itACCESS:     113297  itHIT:      13618  itMISS:      99679  dtACCESS:     375375  dtHIT:      16236  dtMISS:     359139
cpu0_L1D PREFETCH  REQUESTED:   21171060  ISSUED:   18539660  CROSSED:          0  USEFUL:     351855  USELESS:     985617
cpu0_L1D AVERAGE iMISS LATENCY: 0 cycles
cpu0_L1D AVERAGE dMISS LATENCY: 40.9157 cycles
cpu0_L1D AVERAGE itMISS LATENCY: 2.40536 cycles
cpu0_L1D AVERAGE dtMISS LATENCY: 9.28951 cycles
cpu0_L1D PAGE CROSSINGS (TLB HIT):         0 
cpu0_L1D PAGE CROSSINGS (TLB MISS):         0 
cpu0_L1D AVERAGE MISS LATENCY: 52.6105 cycles
cpu0_L2C TOTAL       ACCESS:    8964101  HIT:    4859835  MISS:    4104266  iACCESS:    3538707  iHIT:    2174590  iMISS:    1364117  dACCESS:    4996923  dHIT:    2629135  dMISS:    2367788  itACCESS:      99519  itHIT:      19472  itMISS:      80047  dtACCESS:     328952  dtHIT:      36638  dtMISS:     292314
cpu0_L2C LOAD         ACCESS:    2687469  HIT:    1685882  MISS:    1001587  iACCESS:     792039  iHIT:     508610  iMISS:     283429  dACCESS:    1895430  dHIT:    1177272  dMISS:     718158  itACCESS:          0  itHIT:          0  itMISS:          0  dtACCESS:          0  dtHIT:          0  dtMISS:          0
cpu0_L2C RFO          ACCESS:     213581  HIT:      93128  MISS:     120453  iACCESS:          0  iHIT:          0  iMISS:          0  dACCESS:     213581  dHIT:      93128  dMISS:     120453  itACCESS:          0  itHIT:          0  itMISS:          0  dtACCESS:          0  dtHIT:          0  dtMISS:          0
cpu0_L2C PREFETCH     ACCESS:    5299539  HIT:    2699187  MISS:    2600352  iACCESS:    2746668  iHIT:    1665980  iMISS:    1080688  dACCESS:    2552871  dHIT:    1033207  dMISS:    1519664  itACCESS:          0  itHIT:          0  itMISS:          0  dtACCESS:          0  dtHIT:          0  dtMISS:          0
cpu0_L2C WRITE        ACCESS:     335041  HIT:     325528  MISS:       9513  iACCESS:          0  iHIT:          0  iMISS:          0  dACCESS:     335041  dHIT:     325528  dMISS:       9513  itACCESS:          0  itHIT:          0  itMISS:          0  dtACCESS:          0  dtHIT:          0  dtMISS:          0
cpu0_L2C TRANSLATION  ACCESS:     428471  HIT:      56110  MISS:     372361  iACCESS:          0  iHIT:          0  iMISS:          0  dACCESS:          0  dHIT:          0  dMISS:          0  itACCESS:      99519  itHIT:      19472  itMISS:      80047  dtACCESS:     328952  dtHIT:      36638  dtMISS:     292314
cpu0_L2C PREFETCH  REQUESTED:    1439405  ISSUED:    1439392  CROSSED:          0  USEFUL:     338332  USELESS:     298340
cpu0_L2C AVERAGE iMISS LATENCY: 38.2205 cycles
cpu0_L2C AVERAGE dMISS LATENCY: 75.6629 cycles
cpu0_L2C AVERAGE itMISS LATENCY: 3.49548 cycles
cpu0_L2C AVERAGE dtMISS LATENCY: 13.6232 cycles
cpu0_L2C PAGE CROSSINGS (TLB HIT):         0 
cpu0_L2C PAGE CROSSINGS (TLB MISS):         0 
cpu0_L2C AVERAGE MISS LATENCY: 131.002 cycles
LLC TOTAL       ACCESS:    4094009  HIT:    1370745  MISS:    2723264  iACCESS:    1278783  iHIT:     433369  iMISS:     845414  dACCESS:    2442865  dHIT:     898941  dMISS:    1543924  itACCESS:      80047  itHIT:       7612  itMISS:      72435  dtACCESS:     292314  dtHIT:      30823  dtMISS:     261491
LLC LOAD         ACCESS:     996360  HIT:     374516  MISS:     621844  iACCESS:     282152  iHIT:     102932  iMISS:     179220  dACCESS:     714208  dHIT:     271584  dMISS:     442624  itACCESS:          0  itHIT:          0  itMISS:          0  dtACCESS:          0  dtHIT:          0  dtMISS:          0
LLC RFO          ACCESS:     120447  HIT:      40807  MISS:      79640  iACCESS:          0  iHIT:          0  iMISS:          0  dACCESS:     120447  dHIT:      40807  dMISS:      79640  itACCESS:          0  itHIT:          0  itMISS:          0  dtACCESS:          0  dtHIT:          0  dtMISS:          0
LLC PREFETCH     ACCESS:    2406152  HIT:     727967  MISS:    1678185  iACCESS:     996631  iHIT:     330437  iMISS:     666194  dACCESS:    1409521  dHIT:     397530  dMISS:    1011991  itACCESS:          0  itHIT:          0  itMISS:          0  dtACCESS:          0  dtHIT:          0  dtMISS:          0
LLC WRITE        ACCESS:     198689  HIT:     189020  MISS:       9669  iACCESS:          0  iHIT:          0  iMISS:          0  dACCESS:     198689  dHIT:     189020  dMISS:       9669  itACCESS:          0  itHIT:          0  itMISS:          0  dtACCESS:          0  dtHIT:          0  dtMISS:          0
LLC TRANSLATION  ACCESS:     372361  HIT:      38435  MISS:     333926  iACCESS:          0  iHIT:          0  iMISS:          0  dACCESS:          0  dHIT:          0  dMISS:          0  itACCESS:      80047  itHIT:       7612  itMISS:      72435  dtACCESS:     292314  dtHIT:      30823  dtMISS:     261491
LLC PREFETCH  REQUESTED:          0  ISSUED:          0  CROSSED:          0  USEFUL:          0  USELESS:          0
LLC AVERAGE iMISS LATENCY: 48.3562 cycles
LLC AVERAGE dMISS LATENCY: 98.484 cycles
LLC AVERAGE itMISS LATENCY: 4.68547 cycles
LLC AVERAGE dtMISS LATENCY: 18.4097 cycles
LLC PAGE CROSSINGS (TLB HIT):         0 
LLC PAGE CROSSINGS (TLB MISS):         0 
LLC AVERAGE MISS LATENCY: 169.936 cycles

PageTableWalker TOTAL       ACCESS:     154599  
PageTableWalker AVERAGE LATENCY: 6.3893 cycles
PageTableWalker TOTAL LATENCY: 987778 cycles

DRAM Statistics
Channel 0
 RQ ROW_BUFFER_HIT:     604098
  ROW_BUFFER_MISS:    2099063
 AVG DBUS CONGESTED CYCLE:    3.64837
 WQ ROW_BUFFER_HIT:      58080
  ROW_BUFFER_MISS:      50103  FULL:          0

