last_page:0x200000000000000
VMEM_RES_CAP:0x100000
PAGE_SIZE:4096
LOG2_PAGE_SIZE:12
LOG2_PAGE_TABLE_SIZE:9
page_table_levels:5
WARNING: physical memory size is smaller than virtual memory size
FDiP enabled with aggresivity 16

*** ChampSim Multicore Out-of-Order Simulator ***

Warmup Instructions: 50000000
Simulation Instructions: 100000000
Number of CPUs: 1
Small page size: 4096
Large page size: 2097152

CPU 0 Bimodal branch predictor
Basic BTB sets: 1024 ways: 8 indirect buffer size: 4096 RAS size: 64
Instruction page size distrubution: 0
Loading instruction page size distribution from /home/bsc/bsc018186/scratch/itp_asplos25_AE/dump/smt_srv207_ap_srv73_ap_1024i.pdst
Data page size distrubution: 0
Loading data page size distribution from /home/bsc/bsc018186/scratch/itp_asplos25_AE/dump/smt_srv207_ap_srv73_ap_1024i.pdst
cpu0_L2C IP-based stride prefetcher
cpu0_L1D next line prefetcher
cpu0_STLB using iTP with max lru@8
cpu0_STLB using iTP with instr@0 and data@2
Init sat counter with 3 bits (max:50).
cpu0_L1I next line prefetcher
Off-chip DRAM Size: 4 GiB Channels: 1 Width: 64-bit Data Rate: 3200 MT/s
Heartbeat CPU 0 instructions: 10000001 cycles: 2500660 heartbeat IPC: 3.99895 cumulative IPC: 3.99895 (Simulation time: 0 hr 0 min 36 sec) 
Heartbeat CPU 0 instructions: 20000000 cycles: 5001203 heartbeat IPC: 3.99914 cumulative IPC: 3.99904 (Simulation time: 0 hr 1 min 13 sec) 
Heartbeat CPU 0 instructions: 30000002 cycles: 7501476 heartbeat IPC: 3.99957 cumulative IPC: 3.99922 (Simulation time: 0 hr 1 min 51 sec) 
Heartbeat CPU 0 instructions: 40000000 cycles: 10001770 heartbeat IPC: 3.99953 cumulative IPC: 3.9993 (Simulation time: 0 hr 2 min 30 sec) 
Heartbeat CPU 0 instructions: 50000000 cycles: 12503188 heartbeat IPC: 3.99774 cumulative IPC: 3.99899 (Simulation time: 0 hr 3 min 9 sec) 
Warmup finished CPU 0 instructions: 50000000 cycles: 12503189 cumulative IPC: 3.99898 (Simulation time: 0 hr 3 min 9 sec) 

Warmup complete CPU 0 instructions: 50000000 cycles: 12503189 (Simulation time: 0 hr 3 min 9 sec) 

Heartbeat CPU 0 instructions: 60000004 cycles: 37025206 heartbeat IPC: 0.407797 cumulative IPC: 0.407797 (Simulation time: 0 hr 4 min 21 sec) 
Heartbeat CPU 0 instructions: 70000003 cycles: 59307124 heartbeat IPC: 0.448795 cumulative IPC: 0.427315 (Simulation time: 0 hr 5 min 30 sec) 
Heartbeat CPU 0 instructions: 80000002 cycles: 83999240 heartbeat IPC: 0.404988 cumulative IPC: 0.419604 (Simulation time: 0 hr 6 min 47 sec) 
Heartbeat CPU 0 instructions: 90000000 cycles: 115729186 heartbeat IPC: 0.31516 cumulative IPC: 0.3875 (Simulation time: 0 hr 8 min 12 sec) 
Heartbeat CPU 0 instructions: 100000003 cycles: 147225842 heartbeat IPC: 0.317495 cumulative IPC: 0.371133 (Simulation time: 0 hr 9 min 35 sec) 
Heartbeat CPU 0 instructions: 110000002 cycles: 178713497 heartbeat IPC: 0.317585 cumulative IPC: 0.360989 (Simulation time: 0 hr 10 min 58 sec) 
Heartbeat CPU 0 instructions: 120000001 cycles: 208749860 heartbeat IPC: 0.33293 cumulative IPC: 0.356694 (Simulation time: 0 hr 12 min 19 sec) 
Heartbeat CPU 0 instructions: 130000000 cycles: 225366453 heartbeat IPC: 0.601809 cumulative IPC: 0.375829 (Simulation time: 0 hr 13 min 25 sec) 
Heartbeat CPU 0 instructions: 140000001 cycles: 247451756 heartbeat IPC: 0.45279 cumulative IPC: 0.383063 (Simulation time: 0 hr 14 min 37 sec) 
Heartbeat CPU 0 instructions: 150000000 cycles: 278019343 heartbeat IPC: 0.327144 cumulative IPC: 0.376625 (Simulation time: 0 hr 15 min 59 sec) 
Simulation finished CPU 0 instructions: 100000000 cycles: 265516155 cumulative IPC: 0.376625 (Simulation time: 0 hr 15 min 59 sec) 

Simulation complete CPU 0 instructions: 100000000 cycles: 265516155 (Simulation time: 0 hr 15 min 59 sec) 


ChampSim completed all CPUs

Saving instructions large page distribution to /home/bsc/bsc018186/scratch/itp_asplos25_AE/dump/smt_srv207_ap_srv73_ap_1024i.pdst...
Saving data large page distribution to /home/bsc/bsc018186/scratch/itp_asplos25_AE/dump/smt_srv207_ap_srv73_ap_1024i.pdst...
=== Simulation ===
CPU 0 runs /gpfs/projects/bsc18/MN4/bsc18/romol/ChampSim/traces/qualcomm_srv/smt_srv207_ap_srv73_ap_1024i.champsimtrace.xz

Region of Interest Statistics

CPU 0 cumulative IPC: 0.376625 instructions: 100000000 cycles: 265516155
CPU 0 Branch Prediction Accuracy: 77.5974% MPKI: 43.4229 Average ROB Occupancy at Mispredict: 11.1818
Branch type MPKI
BRANCH_DIRECT_JUMP: 1.11373
BRANCH_INDIRECT: 23.5844
BRANCH_CONDITIONAL: 12.0181
BRANCH_DIRECT_CALL: 2.04425
BRANCH_INDIRECT_CALL: 1.68307
BRANCH_RETURN: 2.9795

Instructions large pages: 0
Instructions small pages: 12734
Large page distribution for instructions: 0%

Data large pages: 0
Data small pages: 10893
Large page distribution for data: 0%

cpu0_L1I TOTAL       ACCESS:   37904629  HIT:   30830630  MISS:    7073999  iACCESS:   37904629  iHIT:   30830630  iMISS:    7073999  dACCESS:          0  dHIT:          0  dMISS:          0  itACCESS:          0  itHIT:          0  itMISS:          0  dtACCESS:          0  dtHIT:          0  dtMISS:          0
cpu0_L1I LOAD         ACCESS:   10370741  HIT:    8422189  MISS:    1948552  iACCESS:   10370741  iHIT:    8422189  iMISS:    1948552  dACCESS:          0  dHIT:          0  dMISS:          0  itACCESS:          0  itHIT:          0  itMISS:          0  dtACCESS:          0  dtHIT:          0  dtMISS:          0
cpu0_L1I RFO          ACCESS:          0  HIT:          0  MISS:          0  iACCESS:          0  iHIT:          0  iMISS:          0  dACCESS:          0  dHIT:          0  dMISS:          0  itACCESS:          0  itHIT:          0  itMISS:          0  dtACCESS:          0  dtHIT:          0  dtMISS:          0
cpu0_L1I PREFETCH     ACCESS:   27533888  HIT:   22408441  MISS:    5125447  iACCESS:   27533888  iHIT:   22408441  iMISS:    5125447  dACCESS:          0  dHIT:          0  dMISS:          0  itACCESS:          0  itHIT:          0  itMISS:          0  dtACCESS:          0  dtHIT:          0  dtMISS:          0
cpu0_L1I WRITE        ACCESS:          0  HIT:          0  MISS:          0  iACCESS:          0  iHIT:          0  iMISS:          0  dACCESS:          0  dHIT:          0  dMISS:          0  itACCESS:          0  itHIT:          0  itMISS:          0  dtACCESS:          0  dtHIT:          0  dtMISS:          0
cpu0_L1I TRANSLATION  ACCESS:          0  HIT:          0  MISS:          0  iACCESS:          0  iHIT:          0  iMISS:          0  dACCESS:          0  dHIT:          0  dMISS:          0  itACCESS:          0  itHIT:          0  itMISS:          0  dtACCESS:          0  dtHIT:          0  dtMISS:          0
cpu0_L1I PREFETCH  REQUESTED:   29879718  ISSUED:   29879324  CROSSED:          0  USEFUL:    1780526  USELESS:     667068
cpu0_L1I AVERAGE iMISS LATENCY: 24.592 cycles
cpu0_L1I AVERAGE dMISS LATENCY: 0 cycles
cpu0_L1I AVERAGE itMISS LATENCY: 0 cycles
cpu0_L1I AVERAGE dtMISS LATENCY: 0 cycles
cpu0_L1I PAGE CROSSINGS (TLB HIT):         0 
cpu0_L1I PAGE CROSSINGS (TLB MISS):         0 
cpu0_L1I AVERAGE MISS LATENCY: 24.592 cycles
cpu0_ITLB TOTAL       ACCESS:   32167950  HIT:   30302031  MISS:    1865919  iACCESS:   32167950  iHIT:   30302031  iMISS:    1865919  dACCESS:          0  dHIT:          0  dMISS:          0  itACCESS:          0  itHIT:          0  itMISS:          0  dtACCESS:          0  dtHIT:          0  dtMISS:          0
cpu0_ITLB LOAD         ACCESS:   32167950  HIT:   30302031  MISS:    1865919  iACCESS:   32167950  iHIT:   30302031  iMISS:    1865919  dACCESS:          0  dHIT:          0  dMISS:          0  itACCESS:          0  itHIT:          0  itMISS:          0  dtACCESS:          0  dtHIT:          0  dtMISS:          0
cpu0_ITLB RFO          ACCESS:          0  HIT:          0  MISS:          0  iACCESS:          0  iHIT:          0  iMISS:          0  dACCESS:          0  dHIT:          0  dMISS:          0  itACCESS:          0  itHIT:          0  itMISS:          0  dtACCESS:          0  dtHIT:          0  dtMISS:          0
cpu0_ITLB PREFETCH     ACCESS:          0  HIT:          0  MISS:          0  iACCESS:          0  iHIT:          0  iMISS:          0  dACCESS:          0  dHIT:          0  dMISS:          0  itACCESS:          0  itHIT:          0  itMISS:          0  dtACCESS:          0  dtHIT:          0  dtMISS:          0
cpu0_ITLB WRITE        ACCESS:          0  HIT:          0  MISS:          0  iACCESS:          0  iHIT:          0  iMISS:          0  dACCESS:          0  dHIT:          0  dMISS:          0  itACCESS:          0  itHIT:          0  itMISS:          0  dtACCESS:          0  dtHIT:          0  dtMISS:          0
cpu0_ITLB TRANSLATION  ACCESS:          0  HIT:          0  MISS:          0  iACCESS:          0  iHIT:          0  iMISS:          0  dACCESS:          0  dHIT:          0  dMISS:          0  itACCESS:          0  itHIT:          0  itMISS:          0  dtACCESS:          0  dtHIT:          0  dtMISS:          0
cpu0_ITLB PREFETCH  REQUESTED:          0  ISSUED:          0  CROSSED:          0  USEFUL:     330018  USELESS:      70296
cpu0_ITLB AVERAGE iMISS LATENCY: 7.01779 cycles
cpu0_ITLB AVERAGE dMISS LATENCY: 0 cycles
cpu0_ITLB AVERAGE itMISS LATENCY: 0 cycles
cpu0_ITLB AVERAGE dtMISS LATENCY: 0 cycles
cpu0_ITLB PAGE CROSSINGS (TLB HIT):         0 
cpu0_ITLB PAGE CROSSINGS (TLB MISS):         0 
cpu0_ITLB AVERAGE MISS LATENCY: 7.01779 cycles
cpu0_DTLB TOTAL       ACCESS:   31598677  HIT:   26240874  MISS:    5357803  iACCESS:          0  iHIT:          0  iMISS:          0  dACCESS:   31598677  dHIT:   26240874  dMISS:    5357803  itACCESS:          0  itHIT:          0  itMISS:          0  dtACCESS:          0  dtHIT:          0  dtMISS:          0
cpu0_DTLB LOAD         ACCESS:   31598677  HIT:   26240874  MISS:    5357803  iACCESS:          0  iHIT:          0  iMISS:          0  dACCESS:   31598677  dHIT:   26240874  dMISS:    5357803  itACCESS:          0  itHIT:          0  itMISS:          0  dtACCESS:          0  dtHIT:          0  dtMISS:          0
cpu0_DTLB RFO          ACCESS:          0  HIT:          0  MISS:          0  iACCESS:          0  iHIT:          0  iMISS:          0  dACCESS:          0  dHIT:          0  dMISS:          0  itACCESS:          0  itHIT:          0  itMISS:          0  dtACCESS:          0  dtHIT:          0  dtMISS:          0
cpu0_DTLB PREFETCH     ACCESS:          0  HIT:          0  MISS:          0  iACCESS:          0  iHIT:          0  iMISS:          0  dACCESS:          0  dHIT:          0  dMISS:          0  itACCESS:          0  itHIT:          0  itMISS:          0  dtACCESS:          0  dtHIT:          0  dtMISS:          0
cpu0_DTLB WRITE        ACCESS:          0  HIT:          0  MISS:          0  iACCESS:          0  iHIT:          0  iMISS:          0  dACCESS:          0  dHIT:          0  dMISS:          0  itACCESS:          0  itHIT:          0  itMISS:          0  dtACCESS:          0  dtHIT:          0  dtMISS:          0
cpu0_DTLB TRANSLATION  ACCESS:          0  HIT:          0  MISS:          0  iACCESS:          0  iHIT:          0  iMISS:          0  dACCESS:          0  dHIT:          0  dMISS:          0  itACCESS:          0  itHIT:          0  itMISS:          0  dtACCESS:          0  dtHIT:          0  dtMISS:          0
cpu0_DTLB PREFETCH  REQUESTED:          0  ISSUED:          0  CROSSED:          0  USEFUL:          0  USELESS:          0
cpu0_DTLB AVERAGE iMISS LATENCY: 0 cycles
cpu0_DTLB AVERAGE dMISS LATENCY: 16.0928 cycles
cpu0_DTLB AVERAGE itMISS LATENCY: 0 cycles
cpu0_DTLB AVERAGE dtMISS LATENCY: 0 cycles
cpu0_DTLB PAGE CROSSINGS (TLB HIT):         0 
cpu0_DTLB PAGE CROSSINGS (TLB MISS):         0 
cpu0_DTLB AVERAGE MISS LATENCY: 16.0928 cycles
cpu0_STLB TOTAL       ACCESS:    3247530  HIT:    2954967  MISS:     292563  iACCESS:     400321  iHIT:     348352  iMISS:      51969  dACCESS:    2847209  dHIT:    2606615  dMISS:     240594  itACCESS:          0  itHIT:          0  itMISS:          0  dtACCESS:          0  dtHIT:          0  dtMISS:          0
cpu0_STLB LOAD         ACCESS:    3247530  HIT:    2954967  MISS:     292563  iACCESS:     400321  iHIT:     348352  iMISS:      51969  dACCESS:    2847209  dHIT:    2606615  dMISS:     240594  itACCESS:          0  itHIT:          0  itMISS:          0  dtACCESS:          0  dtHIT:          0  dtMISS:          0
cpu0_STLB RFO          ACCESS:          0  HIT:          0  MISS:          0  iACCESS:          0  iHIT:          0  iMISS:          0  dACCESS:          0  dHIT:          0  dMISS:          0  itACCESS:          0  itHIT:          0  itMISS:          0  dtACCESS:          0  dtHIT:          0  dtMISS:          0
cpu0_STLB PREFETCH     ACCESS:          0  HIT:          0  MISS:          0  iACCESS:          0  iHIT:          0  iMISS:          0  dACCESS:          0  dHIT:          0  dMISS:          0  itACCESS:          0  itHIT:          0  itMISS:          0  dtACCESS:          0  dtHIT:          0  dtMISS:          0
cpu0_STLB WRITE        ACCESS:          0  HIT:          0  MISS:          0  iACCESS:          0  iHIT:          0  iMISS:          0  dACCESS:          0  dHIT:          0  dMISS:          0  itACCESS:          0  itHIT:          0  itMISS:          0  dtACCESS:          0  dtHIT:          0  dtMISS:          0
cpu0_STLB TRANSLATION  ACCESS:          0  HIT:          0  MISS:          0  iACCESS:          0  iHIT:          0  iMISS:          0  dACCESS:          0  dHIT:          0  dMISS:          0  itACCESS:          0  itHIT:          0  itMISS:          0  dtACCESS:          0  dtHIT:          0  dtMISS:          0
cpu0_STLB PREFETCH  REQUESTED:          0  ISSUED:          0  CROSSED:          0  USEFUL:          0  USELESS:          0
cpu0_STLB AVERAGE iMISS LATENCY: 33.984 cycles
cpu0_STLB AVERAGE dMISS LATENCY: 215.944 cycles
cpu0_STLB AVERAGE itMISS LATENCY: 0 cycles
cpu0_STLB AVERAGE dtMISS LATENCY: 0 cycles
cpu0_STLB PAGE CROSSINGS (TLB HIT):         0 
cpu0_STLB PAGE CROSSINGS (TLB MISS):         0 
cpu0_STLB AVERAGE MISS LATENCY: 249.928 cycles
cpu0_L1D TOTAL       ACCESS:   49646077  HIT:   41195201  MISS:    8450876  iACCESS:          0  iHIT:          0  iMISS:          0  dACCESS:   49160936  dHIT:   41174180  dMISS:    7986756  itACCESS:      63835  itHIT:       4407  itMISS:      59428  dtACCESS:     421306  dtHIT:      16614  dtMISS:     404692
cpu0_L1D LOAD         ACCESS:   23783971  HIT:   19540845  MISS:    4243126  iACCESS:          0  iHIT:          0  iMISS:          0  dACCESS:   23783971  dHIT:   19540845  dMISS:    4243126  itACCESS:          0  itHIT:          0  itMISS:          0  dtACCESS:          0  dtHIT:          0  dtMISS:          0
cpu0_L1D RFO          ACCESS:          0  HIT:          0  MISS:          0  iACCESS:          0  iHIT:          0  iMISS:          0  dACCESS:          0  dHIT:          0  dMISS:          0  itACCESS:          0  itHIT:          0  itMISS:          0  dtACCESS:          0  dtHIT:          0  dtMISS:          0
cpu0_L1D PREFETCH     ACCESS:   15568639  HIT:   12630345  MISS:    2938294  iACCESS:          0  iHIT:          0  iMISS:          0  dACCESS:   15568639  dHIT:   12630345  dMISS:    2938294  itACCESS:          0  itHIT:          0  itMISS:          0  dtACCESS:          0  dtHIT:          0  dtMISS:          0
cpu0_L1D WRITE        ACCESS:    9808326  HIT:    9002990  MISS:     805336  iACCESS:          0  iHIT:          0  iMISS:          0  dACCESS:    9808326  dHIT:    9002990  dMISS:     805336  itACCESS:          0  itHIT:          0  itMISS:          0  dtACCESS:          0  dtHIT:          0  dtMISS:          0
cpu0_L1D TRANSLATION  ACCESS:     485141  HIT:      21021  MISS:     464120  iACCESS:          0  iHIT:          0  iMISS:          0  dACCESS:          0  dHIT:          0  dMISS:          0  itACCESS:      63835  itHIT:       4407  itMISS:      59428  dtACCESS:     421306  dtHIT:      16614  dtMISS:     404692
cpu0_L1D PREFETCH  REQUESTED:   23783971  ISSUED:   20133547  CROSSED:          0  USEFUL:     358832  USELESS:    1141154
cpu0_L1D AVERAGE iMISS LATENCY: 0 cycles
cpu0_L1D AVERAGE dMISS LATENCY: 33.2714 cycles
cpu0_L1D AVERAGE itMISS LATENCY: 1.10638 cycles
cpu0_L1D AVERAGE dtMISS LATENCY: 6.97402 cycles
cpu0_L1D PAGE CROSSINGS (TLB HIT):         0 
cpu0_L1D PAGE CROSSINGS (TLB MISS):         0 
cpu0_L1D AVERAGE MISS LATENCY: 41.3518 cycles
cpu0_L2C TOTAL       ACCESS:    9313160  HIT:    5647369  MISS:    3665791  iACCESS:    3124256  iHIT:    1941754  iMISS:    1182502  dACCESS:    5796014  dHIT:    3653273  dMISS:    2142741  itACCESS:      56376  itHIT:       9067  itMISS:      47309  dtACCESS:     336514  dtHIT:      43275  dtMISS:     293239
cpu0_L2C LOAD         ACCESS:    3391176  HIT:    2475478  MISS:     915698  iACCESS:     702262  iHIT:     456304  iMISS:     245958  dACCESS:    2688914  dHIT:    2019174  dMISS:     669740  itACCESS:          0  itHIT:          0  itMISS:          0  dtACCESS:          0  dtHIT:          0  dtMISS:          0
cpu0_L2C RFO          ACCESS:     244563  HIT:     114235  MISS:     130328  iACCESS:          0  iHIT:          0  iMISS:          0  dACCESS:     244563  dHIT:     114235  dMISS:     130328  itACCESS:          0  itHIT:          0  itMISS:          0  dtACCESS:          0  dtHIT:          0  dtMISS:          0
cpu0_L2C PREFETCH     ACCESS:    4945580  HIT:    2668741  MISS:    2276839  iACCESS:    2421994  iHIT:    1485450  iMISS:     936544  dACCESS:    2523586  dHIT:    1183291  dMISS:    1340295  itACCESS:          0  itHIT:          0  itMISS:          0  dtACCESS:          0  dtHIT:          0  dtMISS:          0
cpu0_L2C WRITE        ACCESS:     338951  HIT:     336573  MISS:       2378  iACCESS:          0  iHIT:          0  iMISS:          0  dACCESS:     338951  dHIT:     336573  dMISS:       2378  itACCESS:          0  itHIT:          0  itMISS:          0  dtACCESS:          0  dtHIT:          0  dtMISS:          0
cpu0_L2C TRANSLATION  ACCESS:     392890  HIT:      52342  MISS:     340548  iACCESS:          0  iHIT:          0  iMISS:          0  dACCESS:          0  dHIT:          0  dMISS:          0  itACCESS:      56376  itHIT:       9067  itMISS:      47309  dtACCESS:     336514  dtHIT:      43275  dtMISS:     293239
cpu0_L2C PREFETCH  REQUESTED:    1202283  ISSUED:    1202142  CROSSED:          0  USEFUL:     261795  USELESS:     250554
cpu0_L2C AVERAGE iMISS LATENCY: 40.4997 cycles
cpu0_L2C AVERAGE dMISS LATENCY: 83.6071 cycles
cpu0_L2C AVERAGE itMISS LATENCY: 2.39876 cycles
cpu0_L2C AVERAGE dtMISS LATENCY: 15.1658 cycles
cpu0_L2C PAGE CROSSINGS (TLB HIT):         0 
cpu0_L2C PAGE CROSSINGS (TLB MISS):         0 
cpu0_L2C AVERAGE MISS LATENCY: 141.672 cycles
LLC TOTAL       ACCESS:    3696507  HIT:    1132083  MISS:    2564424  iACCESS:    1120926  iHIT:     341555  iMISS:     779371  dACCESS:    2235033  dHIT:     750539  dMISS:    1484494  itACCESS:      47309  itHIT:       3344  itMISS:      43965  dtACCESS:     293239  dtHIT:      36645  dtMISS:     256594
LLC LOAD         ACCESS:     908951  HIT:     290988  MISS:     617963  iACCESS:     245090  iHIT:      79822  iMISS:     165268  dACCESS:     663861  dHIT:     211166  dMISS:     452695  itACCESS:          0  itHIT:          0  itMISS:          0  dtACCESS:          0  dtHIT:          0  dtMISS:          0
LLC RFO          ACCESS:     130318  HIT:      35862  MISS:      94456  iACCESS:          0  iHIT:          0  iMISS:          0  dACCESS:     130318  dHIT:      35862  dMISS:      94456  itACCESS:          0  itHIT:          0  itMISS:          0  dtACCESS:          0  dtHIT:          0  dtMISS:          0
LLC PREFETCH     ACCESS:    2129749  HIT:     586532  MISS:    1543217  iACCESS:     875836  iHIT:     261733  iMISS:     614103  dACCESS:    1253913  dHIT:     324799  dMISS:     929114  itACCESS:          0  itHIT:          0  itMISS:          0  dtACCESS:          0  dtHIT:          0  dtMISS:          0
LLC WRITE        ACCESS:     186941  HIT:     178712  MISS:       8229  iACCESS:          0  iHIT:          0  iMISS:          0  dACCESS:     186941  dHIT:     178712  dMISS:       8229  itACCESS:          0  itHIT:          0  itMISS:          0  dtACCESS:          0  dtHIT:          0  dtMISS:          0
LLC TRANSLATION  ACCESS:     340548  HIT:      39989  MISS:     300559  iACCESS:          0  iHIT:          0  iMISS:          0  dACCESS:          0  dHIT:          0  dMISS:          0  itACCESS:      47309  itHIT:       3344  itMISS:      43965  dtACCESS:     293239  dtHIT:      36645  dtMISS:     256594
LLC PREFETCH  REQUESTED:          0  ISSUED:          0  CROSSED:          0  USEFUL:          0  USELESS:          0
LLC AVERAGE iMISS LATENCY: 49.2819 cycles
LLC AVERAGE dMISS LATENCY: 104.779 cycles
LLC AVERAGE itMISS LATENCY: 3.063 cycles
LLC AVERAGE dtMISS LATENCY: 19.4194 cycles
LLC PAGE CROSSINGS (TLB HIT):         0 
LLC PAGE CROSSINGS (TLB MISS):         0 
LLC AVERAGE MISS LATENCY: 176.543 cycles

PageTableWalker TOTAL       ACCESS:     184862  
PageTableWalker AVERAGE LATENCY: 6.84764 cycles
PageTableWalker TOTAL LATENCY: 1265868 cycles

DRAM Statistics
Channel 0
 RQ ROW_BUFFER_HIT:     511518
  ROW_BUFFER_MISS:    2028555
 AVG DBUS CONGESTED CYCLE:    3.65592
 WQ ROW_BUFFER_HIT:      57123
  ROW_BUFFER_MISS:      52760  FULL:          0

