last_page:0x200000000000000
VMEM_RES_CAP:0x100000
PAGE_SIZE:4096
LOG2_PAGE_SIZE:12
LOG2_PAGE_TABLE_SIZE:9
page_table_levels:5
WARNING: physical memory size is smaller than virtual memory size
FDiP enabled with aggresivity 16

*** ChampSim Multicore Out-of-Order Simulator ***

Warmup Instructions: 50000000
Simulation Instructions: 100000000
Number of CPUs: 1
Small page size: 4096
Large page size: 2097152

CPU 0 Bimodal branch predictor
Basic BTB sets: 1024 ways: 8 indirect buffer size: 4096 RAS size: 64
Instruction page size distrubution: 0
Loading instruction page size distribution from /home/bsc/bsc018186/scratch/itp_asplos25_AE/dump/smt_srv537_ap_srv128_ap_1024i.pdst
Data page size distrubution: 0
Loading data page size distribution from /home/bsc/bsc018186/scratch/itp_asplos25_AE/dump/smt_srv537_ap_srv128_ap_1024i.pdst
cpu0_L2C IP-based stride prefetcher
cpu0_L1D next line prefetcher
CHiRPing...
cpu0_L1I next line prefetcher
Off-chip DRAM Size: 4 GiB Channels: 1 Width: 64-bit Data Rate: 3200 MT/s
Heartbeat CPU 0 instructions: 10000003 cycles: 2500415 heartbeat IPC: 3.99934 cumulative IPC: 3.99934 (Simulation time: 0 hr 0 min 39 sec) 
Heartbeat CPU 0 instructions: 20000000 cycles: 5081452 heartbeat IPC: 3.87442 cumulative IPC: 3.93589 (Simulation time: 0 hr 1 min 22 sec) 
Heartbeat CPU 0 instructions: 30000001 cycles: 7636022 heartbeat IPC: 3.91456 cumulative IPC: 3.92875 (Simulation time: 0 hr 2 min 6 sec) 
Heartbeat CPU 0 instructions: 40000003 cycles: 10179642 heartbeat IPC: 3.93141 cumulative IPC: 3.92942 (Simulation time: 0 hr 2 min 51 sec) 
Heartbeat CPU 0 instructions: 50000003 cycles: 12679886 heartbeat IPC: 3.99961 cumulative IPC: 3.94326 (Simulation time: 0 hr 3 min 33 sec) 
Warmup finished CPU 0 instructions: 50000003 cycles: 12679887 cumulative IPC: 3.94326 (Simulation time: 0 hr 3 min 33 sec) 

Warmup complete CPU 0 instructions: 50000003 cycles: 12679887 (Simulation time: 0 hr 3 min 33 sec) 

Heartbeat CPU 0 instructions: 60000000 cycles: 40692886 heartbeat IPC: 0.356978 cumulative IPC: 0.356978 (Simulation time: 0 hr 4 min 57 sec) 
Heartbeat CPU 0 instructions: 70000000 cycles: 68153405 heartbeat IPC: 0.36416 cumulative IPC: 0.360533 (Simulation time: 0 hr 6 min 21 sec) 
Heartbeat CPU 0 instructions: 80000001 cycles: 96182280 heartbeat IPC: 0.356775 cumulative IPC: 0.359272 (Simulation time: 0 hr 7 min 48 sec) 
Heartbeat CPU 0 instructions: 90000000 cycles: 122408330 heartbeat IPC: 0.381301 cumulative IPC: 0.364537 (Simulation time: 0 hr 9 min 10 sec) 
Heartbeat CPU 0 instructions: 100000003 cycles: 150718972 heartbeat IPC: 0.353225 cumulative IPC: 0.362217 (Simulation time: 0 hr 10 min 35 sec) 
Heartbeat CPU 0 instructions: 110000000 cycles: 179147637 heartbeat IPC: 0.351758 cumulative IPC: 0.360431 (Simulation time: 0 hr 12 min 1 sec) 
Heartbeat CPU 0 instructions: 120000000 cycles: 207126413 heartbeat IPC: 0.357414 cumulative IPC: 0.359997 (Simulation time: 0 hr 13 min 25 sec) 
Heartbeat CPU 0 instructions: 130000000 cycles: 234086880 heartbeat IPC: 0.370914 cumulative IPC: 0.361326 (Simulation time: 0 hr 14 min 49 sec) 
Heartbeat CPU 0 instructions: 140000000 cycles: 261286564 heartbeat IPC: 0.367652 cumulative IPC: 0.362018 (Simulation time: 0 hr 16 min 13 sec) 
Heartbeat CPU 0 instructions: 150000002 cycles: 289254397 heartbeat IPC: 0.357554 cumulative IPC: 0.361567 (Simulation time: 0 hr 17 min 39 sec) 
Simulation finished CPU 0 instructions: 100000004 cycles: 276574512 cumulative IPC: 0.361567 (Simulation time: 0 hr 17 min 39 sec) 

Simulation complete CPU 0 instructions: 100000004 cycles: 276574512 (Simulation time: 0 hr 17 min 39 sec) 


ChampSim completed all CPUs

Saving instructions large page distribution to /home/bsc/bsc018186/scratch/itp_asplos25_AE/dump/smt_srv537_ap_srv128_ap_1024i.pdst...
Saving data large page distribution to /home/bsc/bsc018186/scratch/itp_asplos25_AE/dump/smt_srv537_ap_srv128_ap_1024i.pdst...
=== Simulation ===
CPU 0 runs /gpfs/projects/bsc18/MN4/bsc18/romol/ChampSim/traces/qualcomm_srv/smt_srv537_ap_srv128_ap_1024i.champsimtrace.xz

Region of Interest Statistics

CPU 0 cumulative IPC: 0.361567 instructions: 100000004 cycles: 276574512
CPU 0 Branch Prediction Accuracy: 75.2714% MPKI: 44.6924 Average ROB Occupancy at Mispredict: 10.3453
Branch type MPKI
BRANCH_DIRECT_JUMP: 1.38374
BRANCH_INDIRECT: 23.0341
BRANCH_CONDITIONAL: 13.0606
BRANCH_DIRECT_CALL: 2.6741
BRANCH_INDIRECT_CALL: 1.02154
BRANCH_RETURN: 3.5183

Instructions large pages: 0
Instructions small pages: 10363
Large page distribution for instructions: 0%

Data large pages: 0
Data small pages: 8912
Large page distribution for data: 0%

cpu0_L1I TOTAL       ACCESS:   39607550  HIT:   30324507  MISS:    9283043  iACCESS:   39607550  iHIT:   30324507  iMISS:    9283043  dACCESS:          0  dHIT:          0  dMISS:          0  itACCESS:          0  itHIT:          0  itMISS:          0  dtACCESS:          0  dtHIT:          0  dtMISS:          0
cpu0_L1I LOAD         ACCESS:   11808936  HIT:    9290301  MISS:    2518635  iACCESS:   11808936  iHIT:    9290301  iMISS:    2518635  dACCESS:          0  dHIT:          0  dMISS:          0  itACCESS:          0  itHIT:          0  itMISS:          0  dtACCESS:          0  dtHIT:          0  dtMISS:          0
cpu0_L1I RFO          ACCESS:          0  HIT:          0  MISS:          0  iACCESS:          0  iHIT:          0  iMISS:          0  dACCESS:          0  dHIT:          0  dMISS:          0  itACCESS:          0  itHIT:          0  itMISS:          0  dtACCESS:          0  dtHIT:          0  dtMISS:          0
cpu0_L1I PREFETCH     ACCESS:   27798614  HIT:   21034206  MISS:    6764408  iACCESS:   27798614  iHIT:   21034206  iMISS:    6764408  dACCESS:          0  dHIT:          0  dMISS:          0  itACCESS:          0  itHIT:          0  itMISS:          0  dtACCESS:          0  dtHIT:          0  dtMISS:          0
cpu0_L1I WRITE        ACCESS:          0  HIT:          0  MISS:          0  iACCESS:          0  iHIT:          0  iMISS:          0  dACCESS:          0  dHIT:          0  dMISS:          0  itACCESS:          0  itHIT:          0  itMISS:          0  dtACCESS:          0  dtHIT:          0  dtMISS:          0
cpu0_L1I TRANSLATION  ACCESS:          0  HIT:          0  MISS:          0  iACCESS:          0  iHIT:          0  iMISS:          0  dACCESS:          0  dHIT:          0  dMISS:          0  itACCESS:          0  itHIT:          0  itMISS:          0  dtACCESS:          0  dtHIT:          0  dtMISS:          0
cpu0_L1I PREFETCH  REQUESTED:   30390049  ISSUED:   30388659  CROSSED:          0  USEFUL:    2223046  USELESS:     769677
cpu0_L1I AVERAGE iMISS LATENCY: 24.1681 cycles
cpu0_L1I AVERAGE dMISS LATENCY: 0 cycles
cpu0_L1I AVERAGE itMISS LATENCY: 0 cycles
cpu0_L1I AVERAGE dtMISS LATENCY: 0 cycles
cpu0_L1I PAGE CROSSINGS (TLB HIT):         0 
cpu0_L1I PAGE CROSSINGS (TLB MISS):         0 
cpu0_L1I AVERAGE MISS LATENCY: 24.1681 cycles
cpu0_ITLB TOTAL       ACCESS:   33314912  HIT:   31065604  MISS:    2249308  iACCESS:   33314912  iHIT:   31065604  iMISS:    2249308  dACCESS:          0  dHIT:          0  dMISS:          0  itACCESS:          0  itHIT:          0  itMISS:          0  dtACCESS:          0  dtHIT:          0  dtMISS:          0
cpu0_ITLB LOAD         ACCESS:   33314912  HIT:   31065604  MISS:    2249308  iACCESS:   33314912  iHIT:   31065604  iMISS:    2249308  dACCESS:          0  dHIT:          0  dMISS:          0  itACCESS:          0  itHIT:          0  itMISS:          0  dtACCESS:          0  dtHIT:          0  dtMISS:          0
cpu0_ITLB RFO          ACCESS:          0  HIT:          0  MISS:          0  iACCESS:          0  iHIT:          0  iMISS:          0  dACCESS:          0  dHIT:          0  dMISS:          0  itACCESS:          0  itHIT:          0  itMISS:          0  dtACCESS:          0  dtHIT:          0  dtMISS:          0
cpu0_ITLB PREFETCH     ACCESS:          0  HIT:          0  MISS:          0  iACCESS:          0  iHIT:          0  iMISS:          0  dACCESS:          0  dHIT:          0  dMISS:          0  itACCESS:          0  itHIT:          0  itMISS:          0  dtACCESS:          0  dtHIT:          0  dtMISS:          0
cpu0_ITLB WRITE        ACCESS:          0  HIT:          0  MISS:          0  iACCESS:          0  iHIT:          0  iMISS:          0  dACCESS:          0  dHIT:          0  dMISS:          0  itACCESS:          0  itHIT:          0  itMISS:          0  dtACCESS:          0  dtHIT:          0  dtMISS:          0
cpu0_ITLB TRANSLATION  ACCESS:          0  HIT:          0  MISS:          0  iACCESS:          0  iHIT:          0  iMISS:          0  dACCESS:          0  dHIT:          0  dMISS:          0  itACCESS:          0  itHIT:          0  itMISS:          0  dtACCESS:          0  dtHIT:          0  dtMISS:          0
cpu0_ITLB PREFETCH  REQUESTED:          0  ISSUED:          0  CROSSED:          0  USEFUL:     393214  USELESS:      80229
cpu0_ITLB AVERAGE iMISS LATENCY: 7.70793 cycles
cpu0_ITLB AVERAGE dMISS LATENCY: 0 cycles
cpu0_ITLB AVERAGE itMISS LATENCY: 0 cycles
cpu0_ITLB AVERAGE dtMISS LATENCY: 0 cycles
cpu0_ITLB PAGE CROSSINGS (TLB HIT):         0 
cpu0_ITLB PAGE CROSSINGS (TLB MISS):         0 
cpu0_ITLB AVERAGE MISS LATENCY: 7.70793 cycles
cpu0_DTLB TOTAL       ACCESS:   28876630  HIT:   25525393  MISS:    3351237  iACCESS:          0  iHIT:          0  iMISS:          0  dACCESS:   28876630  dHIT:   25525393  dMISS:    3351237  itACCESS:          0  itHIT:          0  itMISS:          0  dtACCESS:          0  dtHIT:          0  dtMISS:          0
cpu0_DTLB LOAD         ACCESS:   28876630  HIT:   25525393  MISS:    3351237  iACCESS:          0  iHIT:          0  iMISS:          0  dACCESS:   28876630  dHIT:   25525393  dMISS:    3351237  itACCESS:          0  itHIT:          0  itMISS:          0  dtACCESS:          0  dtHIT:          0  dtMISS:          0
cpu0_DTLB RFO          ACCESS:          0  HIT:          0  MISS:          0  iACCESS:          0  iHIT:          0  iMISS:          0  dACCESS:          0  dHIT:          0  dMISS:          0  itACCESS:          0  itHIT:          0  itMISS:          0  dtACCESS:          0  dtHIT:          0  dtMISS:          0
cpu0_DTLB PREFETCH     ACCESS:          0  HIT:          0  MISS:          0  iACCESS:          0  iHIT:          0  iMISS:          0  dACCESS:          0  dHIT:          0  dMISS:          0  itACCESS:          0  itHIT:          0  itMISS:          0  dtACCESS:          0  dtHIT:          0  dtMISS:          0
cpu0_DTLB WRITE        ACCESS:          0  HIT:          0  MISS:          0  iACCESS:          0  iHIT:          0  iMISS:          0  dACCESS:          0  dHIT:          0  dMISS:          0  itACCESS:          0  itHIT:          0  itMISS:          0  dtACCESS:          0  dtHIT:          0  dtMISS:          0
cpu0_DTLB TRANSLATION  ACCESS:          0  HIT:          0  MISS:          0  iACCESS:          0  iHIT:          0  iMISS:          0  dACCESS:          0  dHIT:          0  dMISS:          0  itACCESS:          0  itHIT:          0  itMISS:          0  dtACCESS:          0  dtHIT:          0  dtMISS:          0
cpu0_DTLB PREFETCH  REQUESTED:          0  ISSUED:          0  CROSSED:          0  USEFUL:          0  USELESS:          0
cpu0_DTLB AVERAGE iMISS LATENCY: 0 cycles
cpu0_DTLB AVERAGE dMISS LATENCY: 17.7555 cycles
cpu0_DTLB AVERAGE itMISS LATENCY: 0 cycles
cpu0_DTLB AVERAGE dtMISS LATENCY: 0 cycles
cpu0_DTLB PAGE CROSSINGS (TLB HIT):         0 
cpu0_DTLB PAGE CROSSINGS (TLB MISS):         0 
cpu0_DTLB AVERAGE MISS LATENCY: 17.7555 cycles
cpu0_STLB TOTAL       ACCESS:    2410324  HIT:    2043408  MISS:     366916  iACCESS:     473454  iHIT:     356719  iMISS:     116735  dACCESS:    1936870  dHIT:    1686689  dMISS:     250181  itACCESS:          0  itHIT:          0  itMISS:          0  dtACCESS:          0  dtHIT:          0  dtMISS:          0
cpu0_STLB LOAD         ACCESS:    2410324  HIT:    2043408  MISS:     366916  iACCESS:     473454  iHIT:     356719  iMISS:     116735  dACCESS:    1936870  dHIT:    1686689  dMISS:     250181  itACCESS:          0  itHIT:          0  itMISS:          0  dtACCESS:          0  dtHIT:          0  dtMISS:          0
cpu0_STLB RFO          ACCESS:          0  HIT:          0  MISS:          0  iACCESS:          0  iHIT:          0  iMISS:          0  dACCESS:          0  dHIT:          0  dMISS:          0  itACCESS:          0  itHIT:          0  itMISS:          0  dtACCESS:          0  dtHIT:          0  dtMISS:          0
cpu0_STLB PREFETCH     ACCESS:          0  HIT:          0  MISS:          0  iACCESS:          0  iHIT:          0  iMISS:          0  dACCESS:          0  dHIT:          0  dMISS:          0  itACCESS:          0  itHIT:          0  itMISS:          0  dtACCESS:          0  dtHIT:          0  dtMISS:          0
cpu0_STLB WRITE        ACCESS:          0  HIT:          0  MISS:          0  iACCESS:          0  iHIT:          0  iMISS:          0  dACCESS:          0  dHIT:          0  dMISS:          0  itACCESS:          0  itHIT:          0  itMISS:          0  dtACCESS:          0  dtHIT:          0  dtMISS:          0
cpu0_STLB TRANSLATION  ACCESS:          0  HIT:          0  MISS:          0  iACCESS:          0  iHIT:          0  iMISS:          0  dACCESS:          0  dHIT:          0  dMISS:          0  itACCESS:          0  itHIT:          0  itMISS:          0  dtACCESS:          0  dtHIT:          0  dtMISS:          0
cpu0_STLB PREFETCH  REQUESTED:          0  ISSUED:          0  CROSSED:          0  USEFUL:          0  USELESS:          0
cpu0_STLB AVERAGE iMISS LATENCY: 36.9355 cycles
cpu0_STLB AVERAGE dMISS LATENCY: 119.798 cycles
cpu0_STLB AVERAGE itMISS LATENCY: 0 cycles
cpu0_STLB AVERAGE dtMISS LATENCY: 0 cycles
cpu0_STLB PAGE CROSSINGS (TLB HIT):         0 
cpu0_STLB PAGE CROSSINGS (TLB MISS):         0 
cpu0_STLB AVERAGE MISS LATENCY: 156.734 cycles
cpu0_L1D TOTAL       ACCESS:   45215093  HIT:   39256038  MISS:    5959055  iACCESS:          0  iHIT:          0  iMISS:          0  dACCESS:   44671351  dHIT:   39222979  dMISS:    5448372  itACCESS:     129658  itHIT:      15813  itMISS:     113845  dtACCESS:     414084  dtHIT:      17246  dtMISS:     396838
cpu0_L1D LOAD         ACCESS:   20372551  HIT:   17924847  MISS:    2447704  iACCESS:          0  iHIT:          0  iMISS:          0  dACCESS:   20372551  dHIT:   17924847  dMISS:    2447704  itACCESS:          0  itHIT:          0  itMISS:          0  dtACCESS:          0  dtHIT:          0  dtMISS:          0
cpu0_L1D RFO          ACCESS:          0  HIT:          0  MISS:          0  iACCESS:          0  iHIT:          0  iMISS:          0  dACCESS:          0  dHIT:          0  dMISS:          0  itACCESS:          0  itHIT:          0  itMISS:          0  dtACCESS:          0  dtHIT:          0  dtMISS:          0
cpu0_L1D PREFETCH     ACCESS:   14102184  HIT:   11677453  MISS:    2424731  iACCESS:          0  iHIT:          0  iMISS:          0  dACCESS:   14102184  dHIT:   11677453  dMISS:    2424731  itACCESS:          0  itHIT:          0  itMISS:          0  dtACCESS:          0  dtHIT:          0  dtMISS:          0
cpu0_L1D WRITE        ACCESS:   10196616  HIT:    9620679  MISS:     575937  iACCESS:          0  iHIT:          0  iMISS:          0  dACCESS:   10196616  dHIT:    9620679  dMISS:     575937  itACCESS:          0  itHIT:          0  itMISS:          0  dtACCESS:          0  dtHIT:          0  dtMISS:          0
cpu0_L1D TRANSLATION  ACCESS:     543742  HIT:      33059  MISS:     510683  iACCESS:          0  iHIT:          0  iMISS:          0  dACCESS:          0  dHIT:          0  dMISS:          0  itACCESS:     129658  itHIT:      15813  itMISS:     113845  dtACCESS:     414084  dtHIT:      17246  dtMISS:     396838
cpu0_L1D PREFETCH  REQUESTED:   20372551  ISSUED:   18415999  CROSSED:          0  USEFUL:     373096  USELESS:     910987
cpu0_L1D AVERAGE iMISS LATENCY: 0 cycles
cpu0_L1D AVERAGE dMISS LATENCY: 48.5232 cycles
cpu0_L1D AVERAGE itMISS LATENCY: 2.08798 cycles
cpu0_L1D AVERAGE dtMISS LATENCY: 6.62426 cycles
cpu0_L1D PAGE CROSSINGS (TLB HIT):         0 
cpu0_L1D PAGE CROSSINGS (TLB MISS):         0 
cpu0_L1D AVERAGE MISS LATENCY: 57.2354 cycles
cpu0_L2C TOTAL       ACCESS:    8624136  HIT:    1536841  MISS:    7087295  iACCESS:    3804513  iHIT:     815057  iMISS:    2989456  dACCESS:    4347379  dHIT:     537027  dMISS:    3810352  itACCESS:     113341  itHIT:      39528  itMISS:      73813  dtACCESS:     358903  dtHIT:     145229  dtMISS:     213674
cpu0_L2C LOAD         ACCESS:    2051294  HIT:     209546  MISS:    1841748  iACCESS:     848522  iHIT:     120560  iMISS:     727962  dACCESS:    1202772  dHIT:      88986  dMISS:    1113786  itACCESS:          0  itHIT:          0  itMISS:          0  dtACCESS:          0  dtHIT:          0  dtMISS:          0
cpu0_L2C RFO          ACCESS:     214997  HIT:      28540  MISS:     186457  iACCESS:          0  iHIT:          0  iMISS:          0  dACCESS:     214997  dHIT:      28540  dMISS:     186457  itACCESS:          0  itHIT:          0  itMISS:          0  dtACCESS:          0  dtHIT:          0  dtMISS:          0
cpu0_L2C PREFETCH     ACCESS:    5540521  HIT:    1011800  MISS:    4528721  iACCESS:    2955991  iHIT:     694497  iMISS:    2261494  dACCESS:    2584530  dHIT:     317303  dMISS:    2267227  itACCESS:          0  itHIT:          0  itMISS:          0  dtACCESS:          0  dtHIT:          0  dtMISS:          0
cpu0_L2C WRITE        ACCESS:     345080  HIT:     102198  MISS:     242882  iACCESS:          0  iHIT:          0  iMISS:          0  dACCESS:     345080  dHIT:     102198  dMISS:     242882  itACCESS:          0  itHIT:          0  itMISS:          0  dtACCESS:          0  dtHIT:          0  dtMISS:          0
cpu0_L2C TRANSLATION  ACCESS:     472244  HIT:     184757  MISS:     287487  iACCESS:          0  iHIT:          0  iMISS:          0  dACCESS:          0  dHIT:          0  dMISS:          0  itACCESS:     113341  itHIT:      39528  itMISS:      73813  dtACCESS:     358903  dtHIT:     145229  dtMISS:     213674
cpu0_L2C PREFETCH  REQUESTED:    1544609  ISSUED:    1544605  CROSSED:          0  USEFUL:     415546  USELESS:     492322
cpu0_L2C AVERAGE iMISS LATENCY: 27.047 cycles
cpu0_L2C AVERAGE dMISS LATENCY: 50.4661 cycles
cpu0_L2C AVERAGE itMISS LATENCY: 1.60083 cycles
cpu0_L2C AVERAGE dtMISS LATENCY: 5.08162 cycles
cpu0_L2C PAGE CROSSINGS (TLB HIT):         0 
cpu0_L2C PAGE CROSSINGS (TLB MISS):         0 
cpu0_L2C AVERAGE MISS LATENCY: 84.1956 cycles
LLC TOTAL       ACCESS:    6891146  HIT:    4155098  MISS:    2736048  iACCESS:    2896283  iHIT:    2032430  iMISS:     863853  dACCESS:    3707376  dHIT:    2056619  dMISS:    1650757  itACCESS:      73813  itHIT:      18271  itMISS:      55542  dtACCESS:     213674  dtHIT:      47778  dtMISS:     165896
LLC LOAD         ACCESS:    1834434  HIT:    1178924  MISS:     655510  iACCESS:     726693  iHIT:     545127  iMISS:     181566  dACCESS:    1107741  dHIT:     633797  dMISS:     473944  itACCESS:          0  itHIT:          0  itMISS:          0  dtACCESS:          0  dtHIT:          0  dtMISS:          0
LLC RFO          ACCESS:     186450  HIT:      93723  MISS:      92727  iACCESS:          0  iHIT:          0  iMISS:          0  dACCESS:     186450  dHIT:      93723  dMISS:      92727  itACCESS:          0  itHIT:          0  itMISS:          0  dtACCESS:          0  dtHIT:          0  dtMISS:          0
LLC PREFETCH     ACCESS:    4308960  HIT:    2550276  MISS:    1758684  iACCESS:    2169590  iHIT:    1487303  iMISS:     682287  dACCESS:    2139370  dHIT:    1062973  dMISS:    1076397  itACCESS:          0  itHIT:          0  itMISS:          0  dtACCESS:          0  dtHIT:          0  dtMISS:          0
LLC WRITE        ACCESS:     273815  HIT:     266126  MISS:       7689  iACCESS:          0  iHIT:          0  iMISS:          0  dACCESS:     273815  dHIT:     266126  dMISS:       7689  itACCESS:          0  itHIT:          0  itMISS:          0  dtACCESS:          0  dtHIT:          0  dtMISS:          0
LLC TRANSLATION  ACCESS:     287487  HIT:      66049  MISS:     221438  iACCESS:          0  iHIT:          0  iMISS:          0  dACCESS:          0  dHIT:          0  dMISS:          0  itACCESS:      73813  itHIT:      18271  itMISS:      55542  dtACCESS:     213674  dtHIT:      47778  dtMISS:     165896
LLC PREFETCH  REQUESTED:          0  ISSUED:          0  CROSSED:          0  USEFUL:          0  USELESS:          0
LLC AVERAGE iMISS LATENCY: 49.5012 cycles
LLC AVERAGE dMISS LATENCY: 107.334 cycles
LLC AVERAGE itMISS LATENCY: 3.61554 cycles
LLC AVERAGE dtMISS LATENCY: 11.6246 cycles
LLC PAGE CROSSINGS (TLB HIT):         0 
LLC PAGE CROSSINGS (TLB MISS):         0 
LLC AVERAGE MISS LATENCY: 172.075 cycles

PageTableWalker TOTAL       ACCESS:     134937  
PageTableWalker AVERAGE LATENCY: 5.86568 cycles
PageTableWalker TOTAL LATENCY: 791497 cycles

DRAM Statistics
Channel 0
 RQ ROW_BUFFER_HIT:     604067
  ROW_BUFFER_MISS:    2104177
 AVG DBUS CONGESTED CYCLE:    3.65554
 WQ ROW_BUFFER_HIT:      66106
  ROW_BUFFER_MISS:      62208  FULL:          0

