last_page:0x200000000000000
VMEM_RES_CAP:0x100000
PAGE_SIZE:4096
LOG2_PAGE_SIZE:12
LOG2_PAGE_TABLE_SIZE:9
page_table_levels:5
WARNING: physical memory size is smaller than virtual memory size
FDiP enabled with aggresivity 16

*** ChampSim Multicore Out-of-Order Simulator ***

Warmup Instructions: 50000000
Simulation Instructions: 100000000
Number of CPUs: 1
Small page size: 4096
Large page size: 2097152

CPU 0 Bimodal branch predictor
Basic BTB sets: 1024 ways: 8 indirect buffer size: 4096 RAS size: 64
Instruction page size distrubution: 0
Loading instruction page size distribution from /home/bsc/bsc018186/scratch/itp_asplos25_AE/dump/smt_srv207_ap_srv194_ap_1024i.pdst
Data page size distrubution: 0
Loading data page size distribution from /home/bsc/bsc018186/scratch/itp_asplos25_AE/dump/smt_srv207_ap_srv194_ap_1024i.pdst
cpu0_L2C IP-based stride prefetcher
cpu0_L2C is using PTP replacement policy:
	TLB_STRESS_THRESHOLD:0
	PTE_EVICTION_RATIO:0
cpu0_L1D next line prefetcher
cpu0_L1I next line prefetcher
Off-chip DRAM Size: 4 GiB Channels: 1 Width: 64-bit Data Rate: 3200 MT/s
Heartbeat CPU 0 instructions: 10000002 cycles: 2500445 heartbeat IPC: 3.99929 cumulative IPC: 3.99929 (Simulation time: 0 hr 0 min 45 sec) 
Heartbeat CPU 0 instructions: 20000001 cycles: 5001341 heartbeat IPC: 3.99857 cumulative IPC: 3.99893 (Simulation time: 0 hr 1 min 31 sec) 
Heartbeat CPU 0 instructions: 30000003 cycles: 7501877 heartbeat IPC: 3.99915 cumulative IPC: 3.999 (Simulation time: 0 hr 2 min 19 sec) 
Heartbeat CPU 0 instructions: 40000000 cycles: 10002905 heartbeat IPC: 3.99836 cumulative IPC: 3.99884 (Simulation time: 0 hr 3 min 6 sec) 
Heartbeat CPU 0 instructions: 50000001 cycles: 12580202 heartbeat IPC: 3.88004 cumulative IPC: 3.9745 (Simulation time: 0 hr 3 min 52 sec) 
Warmup finished CPU 0 instructions: 50000001 cycles: 12580203 cumulative IPC: 3.9745 (Simulation time: 0 hr 3 min 52 sec) 

Warmup complete CPU 0 instructions: 50000001 cycles: 12580203 (Simulation time: 0 hr 3 min 52 sec) 

Heartbeat CPU 0 instructions: 60000003 cycles: 29445389 heartbeat IPC: 0.592938 cumulative IPC: 0.592938 (Simulation time: 0 hr 5 min 5 sec) 
Heartbeat CPU 0 instructions: 70000002 cycles: 50995065 heartbeat IPC: 0.464045 cumulative IPC: 0.520632 (Simulation time: 0 hr 6 min 21 sec) 
Heartbeat CPU 0 instructions: 80000002 cycles: 83677213 heartbeat IPC: 0.305978 cumulative IPC: 0.421959 (Simulation time: 0 hr 7 min 51 sec) 
Heartbeat CPU 0 instructions: 90000000 cycles: 116286606 heartbeat IPC: 0.306661 cumulative IPC: 0.385705 (Simulation time: 0 hr 9 min 21 sec) 
Heartbeat CPU 0 instructions: 100000004 cycles: 147948472 heartbeat IPC: 0.315838 cumulative IPC: 0.369363 (Simulation time: 0 hr 10 min 50 sec) 
Heartbeat CPU 0 instructions: 110000000 cycles: 178838707 heartbeat IPC: 0.323727 cumulative IPC: 0.360884 (Simulation time: 0 hr 12 min 23 sec) 
Heartbeat CPU 0 instructions: 120000003 cycles: 210921611 heartbeat IPC: 0.311693 cumulative IPC: 0.352927 (Simulation time: 0 hr 13 min 57 sec) 
Heartbeat CPU 0 instructions: 130000000 cycles: 243357852 heartbeat IPC: 0.308298 cumulative IPC: 0.346655 (Simulation time: 0 hr 15 min 26 sec) 
Heartbeat CPU 0 instructions: 140000001 cycles: 277229033 heartbeat IPC: 0.295237 cumulative IPC: 0.340074 (Simulation time: 0 hr 17 min 0 sec) 
Heartbeat CPU 0 instructions: 150000000 cycles: 309452411 heartbeat IPC: 0.310334 cumulative IPC: 0.336846 (Simulation time: 0 hr 18 min 43 sec) 
Simulation finished CPU 0 instructions: 100000004 cycles: 296872210 cumulative IPC: 0.336846 (Simulation time: 0 hr 18 min 43 sec) 

Simulation complete CPU 0 instructions: 100000004 cycles: 296872210 (Simulation time: 0 hr 18 min 43 sec) 


ChampSim completed all CPUs

Saving instructions large page distribution to /home/bsc/bsc018186/scratch/itp_asplos25_AE/dump/smt_srv207_ap_srv194_ap_1024i.pdst...
Saving data large page distribution to /home/bsc/bsc018186/scratch/itp_asplos25_AE/dump/smt_srv207_ap_srv194_ap_1024i.pdst...
=== Simulation ===
CPU 0 runs /gpfs/projects/bsc18/MN4/bsc18/romol/ChampSim/traces/qualcomm_srv/smt_srv207_ap_srv194_ap_1024i.champsimtrace.xz

Region of Interest Statistics

CPU 0 cumulative IPC: 0.336846 instructions: 100000004 cycles: 296872210
CPU 0 Branch Prediction Accuracy: 76.7046% MPKI: 44.3035 Average ROB Occupancy at Mispredict: 10.9546
Branch type MPKI
BRANCH_DIRECT_JUMP: 1.35564
BRANCH_INDIRECT: 23.8841
BRANCH_CONDITIONAL: 11.9395
BRANCH_DIRECT_CALL: 2.55225
BRANCH_INDIRECT_CALL: 1.1185
BRANCH_RETURN: 3.45359

Instructions large pages: 0
Instructions small pages: 12690
Large page distribution for instructions: 0%

Data large pages: 0
Data small pages: 10928
Large page distribution for data: 0%

cpu0_L1I TOTAL       ACCESS:   39481360  HIT:   31185164  MISS:    8296196  iACCESS:   39481360  iHIT:   31185164  iMISS:    8296196  dACCESS:          0  dHIT:          0  dMISS:          0  itACCESS:          0  itHIT:          0  itMISS:          0  dtACCESS:          0  dtHIT:          0  dtMISS:          0
cpu0_L1I LOAD         ACCESS:   11224128  HIT:    8944776  MISS:    2279352  iACCESS:   11224128  iHIT:    8944776  iMISS:    2279352  dACCESS:          0  dHIT:          0  dMISS:          0  itACCESS:          0  itHIT:          0  itMISS:          0  dtACCESS:          0  dtHIT:          0  dtMISS:          0
cpu0_L1I RFO          ACCESS:          0  HIT:          0  MISS:          0  iACCESS:          0  iHIT:          0  iMISS:          0  dACCESS:          0  dHIT:          0  dMISS:          0  itACCESS:          0  itHIT:          0  itMISS:          0  dtACCESS:          0  dtHIT:          0  dtMISS:          0
cpu0_L1I PREFETCH     ACCESS:   28257232  HIT:   22240388  MISS:    6016844  iACCESS:   28257232  iHIT:   22240388  iMISS:    6016844  dACCESS:          0  dHIT:          0  dMISS:          0  itACCESS:          0  itHIT:          0  itMISS:          0  dtACCESS:          0  dtHIT:          0  dtMISS:          0
cpu0_L1I WRITE        ACCESS:          0  HIT:          0  MISS:          0  iACCESS:          0  iHIT:          0  iMISS:          0  dACCESS:          0  dHIT:          0  dMISS:          0  itACCESS:          0  itHIT:          0  itMISS:          0  dtACCESS:          0  dtHIT:          0  dtMISS:          0
cpu0_L1I TRANSLATION  ACCESS:          0  HIT:          0  MISS:          0  iACCESS:          0  iHIT:          0  iMISS:          0  dACCESS:          0  dHIT:          0  dMISS:          0  itACCESS:          0  itHIT:          0  itMISS:          0  dtACCESS:          0  dtHIT:          0  dtMISS:          0
cpu0_L1I PREFETCH  REQUESTED:   30803077  ISSUED:   30802726  CROSSED:          0  USEFUL:    2072624  USELESS:     773826
cpu0_L1I AVERAGE iMISS LATENCY: 24.6318 cycles
cpu0_L1I AVERAGE dMISS LATENCY: 0 cycles
cpu0_L1I AVERAGE itMISS LATENCY: 0 cycles
cpu0_L1I AVERAGE dtMISS LATENCY: 0 cycles
cpu0_L1I PAGE CROSSINGS (TLB HIT):         0 
cpu0_L1I PAGE CROSSINGS (TLB MISS):         0 
cpu0_L1I AVERAGE MISS LATENCY: 24.6318 cycles
cpu0_ITLB TOTAL       ACCESS:   33479693  HIT:   31291429  MISS:    2188264  iACCESS:   33479693  iHIT:   31291429  iMISS:    2188264  dACCESS:          0  dHIT:          0  dMISS:          0  itACCESS:          0  itHIT:          0  itMISS:          0  dtACCESS:          0  dtHIT:          0  dtMISS:          0
cpu0_ITLB LOAD         ACCESS:   33479693  HIT:   31291429  MISS:    2188264  iACCESS:   33479693  iHIT:   31291429  iMISS:    2188264  dACCESS:          0  dHIT:          0  dMISS:          0  itACCESS:          0  itHIT:          0  itMISS:          0  dtACCESS:          0  dtHIT:          0  dtMISS:          0
cpu0_ITLB RFO          ACCESS:          0  HIT:          0  MISS:          0  iACCESS:          0  iHIT:          0  iMISS:          0  dACCESS:          0  dHIT:          0  dMISS:          0  itACCESS:          0  itHIT:          0  itMISS:          0  dtACCESS:          0  dtHIT:          0  dtMISS:          0
cpu0_ITLB PREFETCH     ACCESS:          0  HIT:          0  MISS:          0  iACCESS:          0  iHIT:          0  iMISS:          0  dACCESS:          0  dHIT:          0  dMISS:          0  itACCESS:          0  itHIT:          0  itMISS:          0  dtACCESS:          0  dtHIT:          0  dtMISS:          0
cpu0_ITLB WRITE        ACCESS:          0  HIT:          0  MISS:          0  iACCESS:          0  iHIT:          0  iMISS:          0  dACCESS:          0  dHIT:          0  dMISS:          0  itACCESS:          0  itHIT:          0  itMISS:          0  dtACCESS:          0  dtHIT:          0  dtMISS:          0
cpu0_ITLB TRANSLATION  ACCESS:          0  HIT:          0  MISS:          0  iACCESS:          0  iHIT:          0  iMISS:          0  dACCESS:          0  dHIT:          0  dMISS:          0  itACCESS:          0  itHIT:          0  itMISS:          0  dtACCESS:          0  dtHIT:          0  dtMISS:          0
cpu0_ITLB PREFETCH  REQUESTED:          0  ISSUED:          0  CROSSED:          0  USEFUL:     384370  USELESS:      84292
cpu0_ITLB AVERAGE iMISS LATENCY: 10.7755 cycles
cpu0_ITLB AVERAGE dMISS LATENCY: 0 cycles
cpu0_ITLB AVERAGE itMISS LATENCY: 0 cycles
cpu0_ITLB AVERAGE dtMISS LATENCY: 0 cycles
cpu0_ITLB PAGE CROSSINGS (TLB HIT):         0 
cpu0_ITLB PAGE CROSSINGS (TLB MISS):         0 
cpu0_ITLB AVERAGE MISS LATENCY: 10.7755 cycles
cpu0_DTLB TOTAL       ACCESS:   30661084  HIT:   25474718  MISS:    5186366  iACCESS:          0  iHIT:          0  iMISS:          0  dACCESS:   30661084  dHIT:   25474718  dMISS:    5186366  itACCESS:          0  itHIT:          0  itMISS:          0  dtACCESS:          0  dtHIT:          0  dtMISS:          0
cpu0_DTLB LOAD         ACCESS:   30661084  HIT:   25474718  MISS:    5186366  iACCESS:          0  iHIT:          0  iMISS:          0  dACCESS:   30661084  dHIT:   25474718  dMISS:    5186366  itACCESS:          0  itHIT:          0  itMISS:          0  dtACCESS:          0  dtHIT:          0  dtMISS:          0
cpu0_DTLB RFO          ACCESS:          0  HIT:          0  MISS:          0  iACCESS:          0  iHIT:          0  iMISS:          0  dACCESS:          0  dHIT:          0  dMISS:          0  itACCESS:          0  itHIT:          0  itMISS:          0  dtACCESS:          0  dtHIT:          0  dtMISS:          0
cpu0_DTLB PREFETCH     ACCESS:          0  HIT:          0  MISS:          0  iACCESS:          0  iHIT:          0  iMISS:          0  dACCESS:          0  dHIT:          0  dMISS:          0  itACCESS:          0  itHIT:          0  itMISS:          0  dtACCESS:          0  dtHIT:          0  dtMISS:          0
cpu0_DTLB WRITE        ACCESS:          0  HIT:          0  MISS:          0  iACCESS:          0  iHIT:          0  iMISS:          0  dACCESS:          0  dHIT:          0  dMISS:          0  itACCESS:          0  itHIT:          0  itMISS:          0  dtACCESS:          0  dtHIT:          0  dtMISS:          0
cpu0_DTLB TRANSLATION  ACCESS:          0  HIT:          0  MISS:          0  iACCESS:          0  iHIT:          0  iMISS:          0  dACCESS:          0  dHIT:          0  dMISS:          0  itACCESS:          0  itHIT:          0  itMISS:          0  dtACCESS:          0  dtHIT:          0  dtMISS:          0
cpu0_DTLB PREFETCH  REQUESTED:          0  ISSUED:          0  CROSSED:          0  USEFUL:          0  USELESS:          0
cpu0_DTLB AVERAGE iMISS LATENCY: 0 cycles
cpu0_DTLB AVERAGE dMISS LATENCY: 17.9126 cycles
cpu0_DTLB AVERAGE itMISS LATENCY: 0 cycles
cpu0_DTLB AVERAGE dtMISS LATENCY: 0 cycles
cpu0_DTLB PAGE CROSSINGS (TLB HIT):         0 
cpu0_DTLB PAGE CROSSINGS (TLB MISS):         0 
cpu0_DTLB AVERAGE MISS LATENCY: 17.9126 cycles
cpu0_STLB TOTAL       ACCESS:    3301899  HIT:    2936505  MISS:     365394  iACCESS:     468660  iHIT:     356103  iMISS:     112557  dACCESS:    2833239  dHIT:    2580402  dMISS:     252837  itACCESS:          0  itHIT:          0  itMISS:          0  dtACCESS:          0  dtHIT:          0  dtMISS:          0
cpu0_STLB LOAD         ACCESS:    3301899  HIT:    2936505  MISS:     365394  iACCESS:     468660  iHIT:     356103  iMISS:     112557  dACCESS:    2833239  dHIT:    2580402  dMISS:     252837  itACCESS:          0  itHIT:          0  itMISS:          0  dtACCESS:          0  dtHIT:          0  dtMISS:          0
cpu0_STLB RFO          ACCESS:          0  HIT:          0  MISS:          0  iACCESS:          0  iHIT:          0  iMISS:          0  dACCESS:          0  dHIT:          0  dMISS:          0  itACCESS:          0  itHIT:          0  itMISS:          0  dtACCESS:          0  dtHIT:          0  dtMISS:          0
cpu0_STLB PREFETCH     ACCESS:          0  HIT:          0  MISS:          0  iACCESS:          0  iHIT:          0  iMISS:          0  dACCESS:          0  dHIT:          0  dMISS:          0  itACCESS:          0  itHIT:          0  itMISS:          0  dtACCESS:          0  dtHIT:          0  dtMISS:          0
cpu0_STLB WRITE        ACCESS:          0  HIT:          0  MISS:          0  iACCESS:          0  iHIT:          0  iMISS:          0  dACCESS:          0  dHIT:          0  dMISS:          0  itACCESS:          0  itHIT:          0  itMISS:          0  dtACCESS:          0  dtHIT:          0  dtMISS:          0
cpu0_STLB TRANSLATION  ACCESS:          0  HIT:          0  MISS:          0  iACCESS:          0  iHIT:          0  iMISS:          0  dACCESS:          0  dHIT:          0  dMISS:          0  itACCESS:          0  itHIT:          0  itMISS:          0  dtACCESS:          0  dtHIT:          0  dtMISS:          0
cpu0_STLB PREFETCH  REQUESTED:          0  ISSUED:          0  CROSSED:          0  USEFUL:          0  USELESS:          0
cpu0_STLB AVERAGE iMISS LATENCY: 54.2756 cycles
cpu0_STLB AVERAGE dMISS LATENCY: 191.534 cycles
cpu0_STLB AVERAGE itMISS LATENCY: 0 cycles
cpu0_STLB AVERAGE dtMISS LATENCY: 0 cycles
cpu0_STLB PAGE CROSSINGS (TLB HIT):         0 
cpu0_STLB PAGE CROSSINGS (TLB MISS):         0 
cpu0_STLB AVERAGE MISS LATENCY: 245.81 cycles
cpu0_L1D TOTAL       ACCESS:   47904890  HIT:   40170194  MISS:    7734696  iACCESS:          0  iHIT:          0  iMISS:          0  dACCESS:   47370783  dHIT:   40140264  dMISS:    7230519  itACCESS:     126434  itHIT:      12639  itMISS:     113795  dtACCESS:     407673  dtHIT:      17291  dtMISS:     390382
cpu0_L1D LOAD         ACCESS:   22365605  HIT:   18524122  MISS:    3841483  iACCESS:          0  iHIT:          0  iMISS:          0  dACCESS:   22365605  dHIT:   18524122  dMISS:    3841483  itACCESS:          0  itHIT:          0  itMISS:          0  dtACCESS:          0  dtHIT:          0  dtMISS:          0
cpu0_L1D RFO          ACCESS:          0  HIT:          0  MISS:          0  iACCESS:          0  iHIT:          0  iMISS:          0  dACCESS:          0  dHIT:          0  dMISS:          0  itACCESS:          0  itHIT:          0  itMISS:          0  dtACCESS:          0  dtHIT:          0  dtMISS:          0
cpu0_L1D PREFETCH     ACCESS:   14971368  HIT:   12221006  MISS:    2750362  iACCESS:          0  iHIT:          0  iMISS:          0  dACCESS:   14971368  dHIT:   12221006  dMISS:    2750362  itACCESS:          0  itHIT:          0  itMISS:          0  dtACCESS:          0  dtHIT:          0  dtMISS:          0
cpu0_L1D WRITE        ACCESS:   10033810  HIT:    9395136  MISS:     638674  iACCESS:          0  iHIT:          0  iMISS:          0  dACCESS:   10033810  dHIT:    9395136  dMISS:     638674  itACCESS:          0  itHIT:          0  itMISS:          0  dtACCESS:          0  dtHIT:          0  dtMISS:          0
cpu0_L1D TRANSLATION  ACCESS:     534107  HIT:      29930  MISS:     504177  iACCESS:          0  iHIT:          0  iMISS:          0  dACCESS:          0  dHIT:          0  dMISS:          0  itACCESS:     126434  itHIT:      12639  itMISS:     113795  dtACCESS:     407673  dtHIT:      17291  dtMISS:     390382
cpu0_L1D PREFETCH  REQUESTED:   22365605  ISSUED:   19232741  CROSSED:          0  USEFUL:     350400  USELESS:    1067611
cpu0_L1D AVERAGE iMISS LATENCY: 0 cycles
cpu0_L1D AVERAGE dMISS LATENCY: 39.0863 cycles
cpu0_L1D AVERAGE itMISS LATENCY: 2.42679 cycles
cpu0_L1D AVERAGE dtMISS LATENCY: 8.48756 cycles
cpu0_L1D PAGE CROSSINGS (TLB HIT):         0 
cpu0_L1D PAGE CROSSINGS (TLB MISS):         0 
cpu0_L1D AVERAGE MISS LATENCY: 50.0006 cycles
cpu0_L2C TOTAL       ACCESS:    9674098  HIT:    5305424  MISS:    4368674  iACCESS:    3644236  iHIT:    2166452  iMISS:    1477784  dACCESS:    5560245  dHIT:    3083388  dMISS:    2476857  itACCESS:     113581  itHIT:      18330  itMISS:      95251  dtACCESS:     356036  dtHIT:      37254  dtMISS:     318782
cpu0_L2C LOAD         ACCESS:    3214315  HIT:    2125908  MISS:    1088407  iACCESS:     827319  iHIT:     516736  iMISS:     310583  dACCESS:    2386996  dHIT:    1609172  dMISS:     777824  itACCESS:          0  itHIT:          0  itMISS:          0  dtACCESS:          0  dtHIT:          0  dtMISS:          0
cpu0_L2C RFO          ACCESS:     248156  HIT:     115469  MISS:     132687  iACCESS:          0  iHIT:          0  iMISS:          0  dACCESS:     248156  dHIT:     115469  dMISS:     132687  itACCESS:          0  itHIT:          0  itMISS:          0  dtACCESS:          0  dtHIT:          0  dtMISS:          0
cpu0_L2C PREFETCH     ACCESS:    5402582  HIT:    2683435  MISS:    2719147  iACCESS:    2816917  iHIT:    1649716  iMISS:    1167201  dACCESS:    2585665  dHIT:    1033719  dMISS:    1551946  itACCESS:          0  itHIT:          0  itMISS:          0  dtACCESS:          0  dtHIT:          0  dtMISS:          0
cpu0_L2C WRITE        ACCESS:     339428  HIT:     325028  MISS:      14400  iACCESS:          0  iHIT:          0  iMISS:          0  dACCESS:     339428  dHIT:     325028  dMISS:      14400  itACCESS:          0  itHIT:          0  itMISS:          0  dtACCESS:          0  dtHIT:          0  dtMISS:          0
cpu0_L2C TRANSLATION  ACCESS:     469617  HIT:      55584  MISS:     414033  iACCESS:          0  iHIT:          0  iMISS:          0  dACCESS:          0  dHIT:          0  dMISS:          0  itACCESS:     113581  itHIT:      18330  itMISS:      95251  dtACCESS:     356036  dtHIT:      37254  dtMISS:     318782
cpu0_L2C PREFETCH  REQUESTED:    1379162  ISSUED:    1379151  CROSSED:          0  USEFUL:     309768  USELESS:     303543
cpu0_L2C AVERAGE iMISS LATENCY: 39.8859 cycles
cpu0_L2C AVERAGE dMISS LATENCY: 79.0457 cycles
cpu0_L2C AVERAGE itMISS LATENCY: 4.04006 cycles
cpu0_L2C AVERAGE dtMISS LATENCY: 14.2161 cycles
cpu0_L2C PAGE CROSSINGS (TLB HIT):         0 
cpu0_L2C PAGE CROSSINGS (TLB MISS):         0 
cpu0_L2C AVERAGE MISS LATENCY: 137.188 cycles
LLC TOTAL       ACCESS:    4367617  HIT:    1388282  MISS:    2979335  iACCESS:    1403562  iHIT:     483990  iMISS:     919572  dACCESS:    2550022  dHIT:     863911  dMISS:    1686111  itACCESS:      95251  itHIT:       7649  itMISS:      87602  dtACCESS:     318782  dtHIT:      32732  dtMISS:     286050
LLC LOAD         ACCESS:    1080336  HIT:     372359  MISS:     707977  iACCESS:     309469  iHIT:     113088  iMISS:     196381  dACCESS:     770867  dHIT:     259271  dMISS:     511596  itACCESS:          0  itHIT:          0  itMISS:          0  dtACCESS:          0  dtHIT:          0  dtMISS:          0
LLC RFO          ACCESS:     132684  HIT:      38561  MISS:      94123  iACCESS:          0  iHIT:          0  iMISS:          0  dACCESS:     132684  dHIT:      38561  dMISS:      94123  itACCESS:          0  itHIT:          0  itMISS:          0  dtACCESS:          0  dtHIT:          0  dtMISS:          0
LLC PREFETCH     ACCESS:    2542102  HIT:     747284  MISS:    1794818  iACCESS:    1094093  iHIT:     370902  iMISS:     723191  dACCESS:    1448009  dHIT:     376382  dMISS:    1071627  itACCESS:          0  itHIT:          0  itMISS:          0  dtACCESS:          0  dtHIT:          0  dtMISS:          0
LLC WRITE        ACCESS:     198462  HIT:     189697  MISS:       8765  iACCESS:          0  iHIT:          0  iMISS:          0  dACCESS:     198462  dHIT:     189697  dMISS:       8765  itACCESS:          0  itHIT:          0  itMISS:          0  dtACCESS:          0  dtHIT:          0  dtMISS:          0
LLC TRANSLATION  ACCESS:     414033  HIT:      40381  MISS:     373652  iACCESS:          0  iHIT:          0  iMISS:          0  dACCESS:          0  dHIT:          0  dMISS:          0  itACCESS:      95251  itHIT:       7649  itMISS:      87602  dtACCESS:     318782  dtHIT:      32732  dtMISS:     286050
LLC PREFETCH  REQUESTED:          0  ISSUED:          0  CROSSED:          0  USEFUL:          0  USELESS:          0
LLC AVERAGE iMISS LATENCY: 49.2137 cycles
LLC AVERAGE dMISS LATENCY: 101.213 cycles
LLC AVERAGE itMISS LATENCY: 5.29008 cycles
LLC AVERAGE dtMISS LATENCY: 18.7299 cycles
LLC PAGE CROSSINGS (TLB HIT):         0 
LLC PAGE CROSSINGS (TLB MISS):         0 
LLC AVERAGE MISS LATENCY: 174.447 cycles

PageTableWalker TOTAL       ACCESS:     175615  
PageTableWalker AVERAGE LATENCY: 6.42697 cycles
PageTableWalker TOTAL LATENCY: 1128671 cycles

DRAM Statistics
Channel 0
 RQ ROW_BUFFER_HIT:     605555
  ROW_BUFFER_MISS:    2347742
 AVG DBUS CONGESTED CYCLE:     3.6507
 WQ ROW_BUFFER_HIT:      64297
  ROW_BUFFER_MISS:      55571  FULL:          0

