last_page:0x200000000000000
VMEM_RES_CAP:0x100000
PAGE_SIZE:4096
LOG2_PAGE_SIZE:12
LOG2_PAGE_TABLE_SIZE:9
page_table_levels:5
WARNING: physical memory size is smaller than virtual memory size
FDiP enabled with aggresivity 16

*** ChampSim Multicore Out-of-Order Simulator ***

Warmup Instructions: 50000000
Simulation Instructions: 100000000
Number of CPUs: 1
Small page size: 4096
Large page size: 2097152

CPU 0 Bimodal branch predictor
Basic BTB sets: 1024 ways: 8 indirect buffer size: 4096 RAS size: 64
Instruction page size distrubution: 0
Loading instruction page size distribution from /home/bsc/bsc018186/scratch/itp_asplos25_AE/dump/smt_srv207_ap_srv551_ap_1024i.pdst
Data page size distrubution: 0
Loading data page size distribution from /home/bsc/bsc018186/scratch/itp_asplos25_AE/dump/smt_srv207_ap_srv551_ap_1024i.pdst
cpu0_L2C IP-based stride prefetcher
cpu0_L1D next line prefetcher
cpu0_L1I next line prefetcher
Off-chip DRAM Size: 4 GiB Channels: 1 Width: 64-bit Data Rate: 3200 MT/s
Heartbeat CPU 0 instructions: 10000003 cycles: 2500718 heartbeat IPC: 3.99886 cumulative IPC: 3.99886 (Simulation time: 0 hr 0 min 44 sec) 
Heartbeat CPU 0 instructions: 20000002 cycles: 5001554 heartbeat IPC: 3.99867 cumulative IPC: 3.99876 (Simulation time: 0 hr 1 min 26 sec) 
Heartbeat CPU 0 instructions: 30000002 cycles: 7502104 heartbeat IPC: 3.99913 cumulative IPC: 3.99888 (Simulation time: 0 hr 2 min 12 sec) 
Heartbeat CPU 0 instructions: 40000000 cycles: 10002391 heartbeat IPC: 3.99955 cumulative IPC: 3.99905 (Simulation time: 0 hr 3 min 0 sec) 
Heartbeat CPU 0 instructions: 50000000 cycles: 12503026 heartbeat IPC: 3.99899 cumulative IPC: 3.99904 (Simulation time: 0 hr 3 min 48 sec) 
Warmup finished CPU 0 instructions: 50000000 cycles: 12503027 cumulative IPC: 3.99904 (Simulation time: 0 hr 3 min 48 sec) 

Warmup complete CPU 0 instructions: 50000000 cycles: 12503027 (Simulation time: 0 hr 3 min 48 sec) 

Heartbeat CPU 0 instructions: 60000000 cycles: 41177539 heartbeat IPC: 0.348742 cumulative IPC: 0.348742 (Simulation time: 0 hr 5 min 22 sec) 
Heartbeat CPU 0 instructions: 70000000 cycles: 71251002 heartbeat IPC: 0.33252 cumulative IPC: 0.340438 (Simulation time: 0 hr 7 min 0 sec) 
Heartbeat CPU 0 instructions: 80000001 cycles: 100601736 heartbeat IPC: 0.340708 cumulative IPC: 0.340528 (Simulation time: 0 hr 8 min 35 sec) 
Heartbeat CPU 0 instructions: 90000003 cycles: 129956183 heartbeat IPC: 0.340664 cumulative IPC: 0.340562 (Simulation time: 0 hr 10 min 8 sec) 
Heartbeat CPU 0 instructions: 100000000 cycles: 158966709 heartbeat IPC: 0.344703 cumulative IPC: 0.341382 (Simulation time: 0 hr 11 min 37 sec) 
Heartbeat CPU 0 instructions: 110000000 cycles: 186934851 heartbeat IPC: 0.35755 cumulative IPC: 0.343974 (Simulation time: 0 hr 13 min 5 sec) 
Heartbeat CPU 0 instructions: 120000002 cycles: 211540894 heartbeat IPC: 0.406405 cumulative IPC: 0.351692 (Simulation time: 0 hr 14 min 29 sec) 
Heartbeat CPU 0 instructions: 130000000 cycles: 228617605 heartbeat IPC: 0.585593 cumulative IPC: 0.370175 (Simulation time: 0 hr 15 min 46 sec) 
Heartbeat CPU 0 instructions: 140000002 cycles: 247909650 heartbeat IPC: 0.518349 cumulative IPC: 0.382318 (Simulation time: 0 hr 17 min 5 sec) 
Heartbeat CPU 0 instructions: 150000000 cycles: 277674843 heartbeat IPC: 0.335963 cumulative IPC: 0.377114 (Simulation time: 0 hr 18 min 35 sec) 
Simulation finished CPU 0 instructions: 100000000 cycles: 265171817 cumulative IPC: 0.377114 (Simulation time: 0 hr 18 min 35 sec) 

Simulation complete CPU 0 instructions: 100000000 cycles: 265171817 (Simulation time: 0 hr 18 min 35 sec) 


ChampSim completed all CPUs

Saving instructions large page distribution to /home/bsc/bsc018186/scratch/itp_asplos25_AE/dump/smt_srv207_ap_srv551_ap_1024i.pdst...
Saving data large page distribution to /home/bsc/bsc018186/scratch/itp_asplos25_AE/dump/smt_srv207_ap_srv551_ap_1024i.pdst...
=== Simulation ===
CPU 0 runs /gpfs/projects/bsc18/MN4/bsc18/romol/ChampSim/traces/qualcomm_srv/smt_srv207_ap_srv551_ap_1024i.champsimtrace.xz

Region of Interest Statistics

CPU 0 cumulative IPC: 0.377114 instructions: 100000000 cycles: 265171817
CPU 0 Branch Prediction Accuracy: 77.4636% MPKI: 43.4302 Average ROB Occupancy at Mispredict: 11.4744
Branch type MPKI
BRANCH_DIRECT_JUMP: 1.27779
BRANCH_INDIRECT: 23.718
BRANCH_CONDITIONAL: 11.5725
BRANCH_DIRECT_CALL: 2.41065
BRANCH_INDIRECT_CALL: 1.08264
BRANCH_RETURN: 3.36874

Instructions large pages: 0
Instructions small pages: 11910
Large page distribution for instructions: 0%

Data large pages: 0
Data small pages: 10385
Large page distribution for data: 0%

cpu0_L1I TOTAL       ACCESS:   39968238  HIT:   31799416  MISS:    8168822  iACCESS:   39968238  iHIT:   31799416  iMISS:    8168822  dACCESS:          0  dHIT:          0  dMISS:          0  itACCESS:          0  itHIT:          0  itMISS:          0  dtACCESS:          0  dtHIT:          0  dtMISS:          0
cpu0_L1I LOAD         ACCESS:   11295466  HIT:    9072661  MISS:    2222805  iACCESS:   11295466  iHIT:    9072661  iMISS:    2222805  dACCESS:          0  dHIT:          0  dMISS:          0  itACCESS:          0  itHIT:          0  itMISS:          0  dtACCESS:          0  dtHIT:          0  dtMISS:          0
cpu0_L1I RFO          ACCESS:          0  HIT:          0  MISS:          0  iACCESS:          0  iHIT:          0  iMISS:          0  dACCESS:          0  dHIT:          0  dMISS:          0  itACCESS:          0  itHIT:          0  itMISS:          0  dtACCESS:          0  dtHIT:          0  dtMISS:          0
cpu0_L1I PREFETCH     ACCESS:   28672772  HIT:   22726755  MISS:    5946017  iACCESS:   28672772  iHIT:   22726755  iMISS:    5946017  dACCESS:          0  dHIT:          0  dMISS:          0  itACCESS:          0  itHIT:          0  itMISS:          0  dtACCESS:          0  dtHIT:          0  dtMISS:          0
cpu0_L1I WRITE        ACCESS:          0  HIT:          0  MISS:          0  iACCESS:          0  iHIT:          0  iMISS:          0  dACCESS:          0  dHIT:          0  dMISS:          0  itACCESS:          0  itHIT:          0  itMISS:          0  dtACCESS:          0  dtHIT:          0  dtMISS:          0
cpu0_L1I TRANSLATION  ACCESS:          0  HIT:          0  MISS:          0  iACCESS:          0  iHIT:          0  iMISS:          0  dACCESS:          0  dHIT:          0  dMISS:          0  itACCESS:          0  itHIT:          0  itMISS:          0  dtACCESS:          0  dtHIT:          0  dtMISS:          0
cpu0_L1I PREFETCH  REQUESTED:   31120800  ISSUED:   31119352  CROSSED:          0  USEFUL:    1967165  USELESS:     706566
cpu0_L1I AVERAGE iMISS LATENCY: 24.6652 cycles
cpu0_L1I AVERAGE dMISS LATENCY: 0 cycles
cpu0_L1I AVERAGE itMISS LATENCY: 0 cycles
cpu0_L1I AVERAGE dtMISS LATENCY: 0 cycles
cpu0_L1I PAGE CROSSINGS (TLB HIT):         0 
cpu0_L1I PAGE CROSSINGS (TLB MISS):         0 
cpu0_L1I AVERAGE MISS LATENCY: 24.6652 cycles
cpu0_ITLB TOTAL       ACCESS:   33532934  HIT:   31523409  MISS:    2009525  iACCESS:   33532934  iHIT:   31523409  iMISS:    2009525  dACCESS:          0  dHIT:          0  dMISS:          0  itACCESS:          0  itHIT:          0  itMISS:          0  dtACCESS:          0  dtHIT:          0  dtMISS:          0
cpu0_ITLB LOAD         ACCESS:   33532934  HIT:   31523409  MISS:    2009525  iACCESS:   33532934  iHIT:   31523409  iMISS:    2009525  dACCESS:          0  dHIT:          0  dMISS:          0  itACCESS:          0  itHIT:          0  itMISS:          0  dtACCESS:          0  dtHIT:          0  dtMISS:          0
cpu0_ITLB RFO          ACCESS:          0  HIT:          0  MISS:          0  iACCESS:          0  iHIT:          0  iMISS:          0  dACCESS:          0  dHIT:          0  dMISS:          0  itACCESS:          0  itHIT:          0  itMISS:          0  dtACCESS:          0  dtHIT:          0  dtMISS:          0
cpu0_ITLB PREFETCH     ACCESS:          0  HIT:          0  MISS:          0  iACCESS:          0  iHIT:          0  iMISS:          0  dACCESS:          0  dHIT:          0  dMISS:          0  itACCESS:          0  itHIT:          0  itMISS:          0  dtACCESS:          0  dtHIT:          0  dtMISS:          0
cpu0_ITLB WRITE        ACCESS:          0  HIT:          0  MISS:          0  iACCESS:          0  iHIT:          0  iMISS:          0  dACCESS:          0  dHIT:          0  dMISS:          0  itACCESS:          0  itHIT:          0  itMISS:          0  dtACCESS:          0  dtHIT:          0  dtMISS:          0
cpu0_ITLB TRANSLATION  ACCESS:          0  HIT:          0  MISS:          0  iACCESS:          0  iHIT:          0  iMISS:          0  dACCESS:          0  dHIT:          0  dMISS:          0  itACCESS:          0  itHIT:          0  itMISS:          0  dtACCESS:          0  dtHIT:          0  dtMISS:          0
cpu0_ITLB PREFETCH  REQUESTED:          0  ISSUED:          0  CROSSED:          0  USEFUL:     356028  USELESS:      73904
cpu0_ITLB AVERAGE iMISS LATENCY: 8.24136 cycles
cpu0_ITLB AVERAGE dMISS LATENCY: 0 cycles
cpu0_ITLB AVERAGE itMISS LATENCY: 0 cycles
cpu0_ITLB AVERAGE dtMISS LATENCY: 0 cycles
cpu0_ITLB PAGE CROSSINGS (TLB HIT):         0 
cpu0_ITLB PAGE CROSSINGS (TLB MISS):         0 
cpu0_ITLB AVERAGE MISS LATENCY: 8.24136 cycles
cpu0_DTLB TOTAL       ACCESS:   31131409  HIT:   25145872  MISS:    5985537  iACCESS:          0  iHIT:          0  iMISS:          0  dACCESS:   31131409  dHIT:   25145872  dMISS:    5985537  itACCESS:          0  itHIT:          0  itMISS:          0  dtACCESS:          0  dtHIT:          0  dtMISS:          0
cpu0_DTLB LOAD         ACCESS:   31131409  HIT:   25145872  MISS:    5985537  iACCESS:          0  iHIT:          0  iMISS:          0  dACCESS:   31131409  dHIT:   25145872  dMISS:    5985537  itACCESS:          0  itHIT:          0  itMISS:          0  dtACCESS:          0  dtHIT:          0  dtMISS:          0
cpu0_DTLB RFO          ACCESS:          0  HIT:          0  MISS:          0  iACCESS:          0  iHIT:          0  iMISS:          0  dACCESS:          0  dHIT:          0  dMISS:          0  itACCESS:          0  itHIT:          0  itMISS:          0  dtACCESS:          0  dtHIT:          0  dtMISS:          0
cpu0_DTLB PREFETCH     ACCESS:          0  HIT:          0  MISS:          0  iACCESS:          0  iHIT:          0  iMISS:          0  dACCESS:          0  dHIT:          0  dMISS:          0  itACCESS:          0  itHIT:          0  itMISS:          0  dtACCESS:          0  dtHIT:          0  dtMISS:          0
cpu0_DTLB WRITE        ACCESS:          0  HIT:          0  MISS:          0  iACCESS:          0  iHIT:          0  iMISS:          0  dACCESS:          0  dHIT:          0  dMISS:          0  itACCESS:          0  itHIT:          0  itMISS:          0  dtACCESS:          0  dtHIT:          0  dtMISS:          0
cpu0_DTLB TRANSLATION  ACCESS:          0  HIT:          0  MISS:          0  iACCESS:          0  iHIT:          0  iMISS:          0  dACCESS:          0  dHIT:          0  dMISS:          0  itACCESS:          0  itHIT:          0  itMISS:          0  dtACCESS:          0  dtHIT:          0  dtMISS:          0
cpu0_DTLB PREFETCH  REQUESTED:          0  ISSUED:          0  CROSSED:          0  USEFUL:          0  USELESS:          0
cpu0_DTLB AVERAGE iMISS LATENCY: 0 cycles
cpu0_DTLB AVERAGE dMISS LATENCY: 11.1144 cycles
cpu0_DTLB AVERAGE itMISS LATENCY: 0 cycles
cpu0_DTLB AVERAGE dtMISS LATENCY: 0 cycles
cpu0_DTLB PAGE CROSSINGS (TLB HIT):         0 
cpu0_DTLB PAGE CROSSINGS (TLB MISS):         0 
cpu0_DTLB AVERAGE MISS LATENCY: 11.1144 cycles
cpu0_STLB TOTAL       ACCESS:    3660830  HIT:    3322702  MISS:     338128  iACCESS:     429942  iHIT:     324378  iMISS:     105564  dACCESS:    3230888  dHIT:    2998324  dMISS:     232564  itACCESS:          0  itHIT:          0  itMISS:          0  dtACCESS:          0  dtHIT:          0  dtMISS:          0
cpu0_STLB LOAD         ACCESS:    3660830  HIT:    3322702  MISS:     338128  iACCESS:     429942  iHIT:     324378  iMISS:     105564  dACCESS:    3230888  dHIT:    2998324  dMISS:     232564  itACCESS:          0  itHIT:          0  itMISS:          0  dtACCESS:          0  dtHIT:          0  dtMISS:          0
cpu0_STLB RFO          ACCESS:          0  HIT:          0  MISS:          0  iACCESS:          0  iHIT:          0  iMISS:          0  dACCESS:          0  dHIT:          0  dMISS:          0  itACCESS:          0  itHIT:          0  itMISS:          0  dtACCESS:          0  dtHIT:          0  dtMISS:          0
cpu0_STLB PREFETCH     ACCESS:          0  HIT:          0  MISS:          0  iACCESS:          0  iHIT:          0  iMISS:          0  dACCESS:          0  dHIT:          0  dMISS:          0  itACCESS:          0  itHIT:          0  itMISS:          0  dtACCESS:          0  dtHIT:          0  dtMISS:          0
cpu0_STLB WRITE        ACCESS:          0  HIT:          0  MISS:          0  iACCESS:          0  iHIT:          0  iMISS:          0  dACCESS:          0  dHIT:          0  dMISS:          0  itACCESS:          0  itHIT:          0  itMISS:          0  dtACCESS:          0  dtHIT:          0  dtMISS:          0
cpu0_STLB TRANSLATION  ACCESS:          0  HIT:          0  MISS:          0  iACCESS:          0  iHIT:          0  iMISS:          0  dACCESS:          0  dHIT:          0  dMISS:          0  itACCESS:          0  itHIT:          0  itMISS:          0  dtACCESS:          0  dtHIT:          0  dtMISS:          0
cpu0_STLB PREFETCH  REQUESTED:          0  ISSUED:          0  CROSSED:          0  USEFUL:          0  USELESS:          0
cpu0_STLB AVERAGE iMISS LATENCY: 38.8146 cycles
cpu0_STLB AVERAGE dMISS LATENCY: 119.54 cycles
cpu0_STLB AVERAGE itMISS LATENCY: 0 cycles
cpu0_STLB AVERAGE dtMISS LATENCY: 0 cycles
cpu0_STLB PAGE CROSSINGS (TLB HIT):         0 
cpu0_STLB PAGE CROSSINGS (TLB MISS):         0 
cpu0_STLB AVERAGE MISS LATENCY: 158.354 cycles
cpu0_L1D TOTAL       ACCESS:   50228445  HIT:   40125530  MISS:   10102915  iACCESS:          0  iHIT:          0  iMISS:          0  dACCESS:   49740828  dHIT:   40097799  dMISS:    9643029  itACCESS:     117958  itHIT:      12141  itMISS:     105817  dtACCESS:     369659  dtHIT:      15590  dtMISS:     354069
cpu0_L1D LOAD         ACCESS:   24016248  HIT:   18700771  MISS:    5315477  iACCESS:          0  iHIT:          0  iMISS:          0  dACCESS:   24016248  dHIT:   18700771  dMISS:    5315477  itACCESS:          0  itHIT:          0  itMISS:          0  dtACCESS:          0  dtHIT:          0  dtMISS:          0
cpu0_L1D RFO          ACCESS:          0  HIT:          0  MISS:          0  iACCESS:          0  iHIT:          0  iMISS:          0  dACCESS:          0  dHIT:          0  dMISS:          0  itACCESS:          0  itHIT:          0  itMISS:          0  dtACCESS:          0  dtHIT:          0  dtMISS:          0
cpu0_L1D PREFETCH     ACCESS:   15975810  HIT:   12246881  MISS:    3728929  iACCESS:          0  iHIT:          0  iMISS:          0  dACCESS:   15975810  dHIT:   12246881  dMISS:    3728929  itACCESS:          0  itHIT:          0  itMISS:          0  dtACCESS:          0  dtHIT:          0  dtMISS:          0
cpu0_L1D WRITE        ACCESS:    9748770  HIT:    9150147  MISS:     598623  iACCESS:          0  iHIT:          0  iMISS:          0  dACCESS:    9748770  dHIT:    9150147  dMISS:     598623  itACCESS:          0  itHIT:          0  itMISS:          0  dtACCESS:          0  dtHIT:          0  dtMISS:          0
cpu0_L1D TRANSLATION  ACCESS:     487617  HIT:      27731  MISS:     459886  iACCESS:          0  iHIT:          0  iMISS:          0  dACCESS:          0  dHIT:          0  dMISS:          0  itACCESS:     117958  itHIT:      12141  itMISS:     105817  dtACCESS:     369659  dtHIT:      15590  dtMISS:     354069
cpu0_L1D PREFETCH  REQUESTED:   24016248  ISSUED:   19298654  CROSSED:          0  USEFUL:     346735  USELESS:    1079643
cpu0_L1D AVERAGE iMISS LATENCY: 0 cycles
cpu0_L1D AVERAGE dMISS LATENCY: 31.1961 cycles
cpu0_L1D AVERAGE itMISS LATENCY: 1.20065 cycles
cpu0_L1D AVERAGE dtMISS LATENCY: 3.5909 cycles
cpu0_L1D PAGE CROSSINGS (TLB HIT):         0 
cpu0_L1D PAGE CROSSINGS (TLB MISS):         0 
cpu0_L1D AVERAGE MISS LATENCY: 35.9876 cycles
cpu0_L2C TOTAL       ACCESS:    9868466  HIT:    2005349  MISS:    7863117  iACCESS:    3395333  iHIT:     700951  iMISS:    2694382  dACCESS:    6040467  dHIT:    1140563  dMISS:    4899904  itACCESS:     105615  itHIT:      34934  itMISS:      70681  dtACCESS:     327051  dtHIT:     128901  dtMISS:     198150
cpu0_L2C LOAD         ACCESS:    3644389  HIT:     746567  MISS:    2897822  iACCESS:     750368  iHIT:      99945  iMISS:     650423  dACCESS:    2894021  dHIT:     646622  dMISS:    2247399  itACCESS:          0  itHIT:          0  itMISS:          0  dtACCESS:          0  dtHIT:          0  dtMISS:          0
cpu0_L2C RFO          ACCESS:     232633  HIT:      31460  MISS:     201173  iACCESS:          0  iHIT:          0  iMISS:          0  dACCESS:     232633  dHIT:      31460  dMISS:     201173  itACCESS:          0  itHIT:          0  itMISS:          0  dtACCESS:          0  dtHIT:          0  dtMISS:          0
cpu0_L2C PREFETCH     ACCESS:    5232418  HIT:     962461  MISS:    4269957  iACCESS:    2644965  iHIT:     601006  iMISS:    2043959  dACCESS:    2587453  dHIT:     361455  dMISS:    2225998  itACCESS:          0  itHIT:          0  itMISS:          0  dtACCESS:          0  dtHIT:          0  dtMISS:          0
cpu0_L2C WRITE        ACCESS:     326360  HIT:     101026  MISS:     225334  iACCESS:          0  iHIT:          0  iMISS:          0  dACCESS:     326360  dHIT:     101026  dMISS:     225334  itACCESS:          0  itHIT:          0  itMISS:          0  dtACCESS:          0  dtHIT:          0  dtMISS:          0
cpu0_L2C TRANSLATION  ACCESS:     432666  HIT:     163835  MISS:     268831  iACCESS:          0  iHIT:          0  iMISS:          0  dACCESS:          0  dHIT:          0  dMISS:          0  itACCESS:     105615  itHIT:      34934  itMISS:      70681  dtACCESS:     327051  dtHIT:     128901  dtMISS:     198150
cpu0_L2C PREFETCH  REQUESTED:    1371282  ISSUED:    1371281  CROSSED:          0  USEFUL:     357729  USELESS:     445817
cpu0_L2C AVERAGE iMISS LATENCY: 21.93 cycles
cpu0_L2C AVERAGE dMISS LATENCY: 44.8563 cycles
cpu0_L2C AVERAGE itMISS LATENCY: 1.41241 cycles
cpu0_L2C AVERAGE dtMISS LATENCY: 4.21243 cycles
cpu0_L2C PAGE CROSSINGS (TLB HIT):         0 
cpu0_L2C PAGE CROSSINGS (TLB MISS):         0 
cpu0_L2C AVERAGE MISS LATENCY: 72.4111 cycles
LLC TOTAL       ACCESS:    7686097  HIT:    5203801  MISS:    2482296  iACCESS:    2617418  iHIT:    1840981  iMISS:     776437  dACCESS:    4799848  dHIT:    3300682  dMISS:    1499166  itACCESS:      70681  itHIT:      16411  itMISS:      54270  dtACCESS:     198150  dtHIT:      45727  dtMISS:     152423
LLC LOAD         ACCESS:    2888166  HIT:    2278286  MISS:     609880  iACCESS:     649214  iHIT:     485381  iMISS:     163833  dACCESS:    2238952  dHIT:    1792905  dMISS:     446047  itACCESS:          0  itHIT:          0  itMISS:          0  dtACCESS:          0  dtHIT:          0  dtMISS:          0
LLC RFO          ACCESS:     201133  HIT:     118658  MISS:      82475  iACCESS:          0  iHIT:          0  iMISS:          0  dACCESS:     201133  dHIT:     118658  dMISS:      82475  itACCESS:          0  itHIT:          0  itMISS:          0  dtACCESS:          0  dtHIT:          0  dtMISS:          0
LLC PREFETCH     ACCESS:    4070035  HIT:    2492034  MISS:    1578001  iACCESS:    1968204  iHIT:    1355600  iMISS:     612604  dACCESS:    2101831  dHIT:    1136434  dMISS:     965397  itACCESS:          0  itHIT:          0  itMISS:          0  dtACCESS:          0  dtHIT:          0  dtMISS:          0
LLC WRITE        ACCESS:     257932  HIT:     252685  MISS:       5247  iACCESS:          0  iHIT:          0  iMISS:          0  dACCESS:     257932  dHIT:     252685  dMISS:       5247  itACCESS:          0  itHIT:          0  itMISS:          0  dtACCESS:          0  dtHIT:          0  dtMISS:          0
LLC TRANSLATION  ACCESS:     268831  HIT:      62138  MISS:     206693  iACCESS:          0  iHIT:          0  iMISS:          0  dACCESS:          0  dHIT:          0  dMISS:          0  itACCESS:      70681  itHIT:      16411  itMISS:      54270  dtACCESS:     198150  dtHIT:      45727  dtMISS:     152423
LLC PREFETCH  REQUESTED:          0  ISSUED:          0  CROSSED:          0  USEFUL:          0  USELESS:          0
LLC AVERAGE iMISS LATENCY: 48.9867 cycles
LLC AVERAGE dMISS LATENCY: 107.467 cycles
LLC AVERAGE itMISS LATENCY: 3.91304 cycles
LLC AVERAGE dtMISS LATENCY: 11.7715 cycles
LLC PAGE CROSSINGS (TLB HIT):         0 
LLC PAGE CROSSINGS (TLB MISS):         0 
LLC AVERAGE MISS LATENCY: 172.138 cycles

PageTableWalker TOTAL       ACCESS:     194122  
PageTableWalker AVERAGE LATENCY: 5.91792 cycles
PageTableWalker TOTAL LATENCY: 1148797 cycles

DRAM Statistics
Channel 0
 RQ ROW_BUFFER_HIT:     562417
  ROW_BUFFER_MISS:    1896293
 AVG DBUS CONGESTED CYCLE:    3.65452
 WQ ROW_BUFFER_HIT:      60137
  ROW_BUFFER_MISS:      56027  FULL:          0

