last_page:0x200000000000000
VMEM_RES_CAP:0x100000
PAGE_SIZE:4096
LOG2_PAGE_SIZE:12
LOG2_PAGE_TABLE_SIZE:9
page_table_levels:5
WARNING: physical memory size is smaller than virtual memory size
FDiP enabled with aggresivity 16

*** ChampSim Multicore Out-of-Order Simulator ***

Warmup Instructions: 50000000
Simulation Instructions: 100000000
Number of CPUs: 1
Small page size: 4096
Large page size: 2097152

CPU 0 Bimodal branch predictor
Basic BTB sets: 1024 ways: 8 indirect buffer size: 4096 RAS size: 64
Instruction page size distrubution: 0
Loading instruction page size distribution from /home/bsc/bsc018186/scratch/itp_asplos25_AE/dump/smt_srv85_ap_srv495_ap_1024i.pdst
Data page size distrubution: 0
Loading data page size distribution from /home/bsc/bsc018186/scratch/itp_asplos25_AE/dump/smt_srv85_ap_srv495_ap_1024i.pdst
cpu0_L2C IP-based stride prefetcher
cpu0_L1D next line prefetcher
CHiRPing...
cpu0_L1I next line prefetcher
Off-chip DRAM Size: 4 GiB Channels: 1 Width: 64-bit Data Rate: 3200 MT/s
Heartbeat CPU 0 instructions: 10000000 cycles: 2500341 heartbeat IPC: 3.99946 cumulative IPC: 3.99946 (Simulation time: 0 hr 0 min 41 sec) 
Heartbeat CPU 0 instructions: 20000000 cycles: 5000640 heartbeat IPC: 3.99953 cumulative IPC: 3.99949 (Simulation time: 0 hr 1 min 26 sec) 
Heartbeat CPU 0 instructions: 30000003 cycles: 7500861 heartbeat IPC: 3.99965 cumulative IPC: 3.99955 (Simulation time: 0 hr 2 min 11 sec) 
Heartbeat CPU 0 instructions: 40000002 cycles: 10001261 heartbeat IPC: 3.99936 cumulative IPC: 3.9995 (Simulation time: 0 hr 2 min 57 sec) 
Heartbeat CPU 0 instructions: 50000001 cycles: 12501556 heartbeat IPC: 3.99953 cumulative IPC: 3.99951 (Simulation time: 0 hr 3 min 42 sec) 
Warmup finished CPU 0 instructions: 50000001 cycles: 12501557 cumulative IPC: 3.99951 (Simulation time: 0 hr 3 min 42 sec) 

Warmup complete CPU 0 instructions: 50000001 cycles: 12501557 (Simulation time: 0 hr 3 min 42 sec) 

Heartbeat CPU 0 instructions: 60000001 cycles: 41401491 heartbeat IPC: 0.346022 cumulative IPC: 0.346022 (Simulation time: 0 hr 5 min 12 sec) 
Heartbeat CPU 0 instructions: 70000003 cycles: 70244043 heartbeat IPC: 0.346711 cumulative IPC: 0.346366 (Simulation time: 0 hr 6 min 41 sec) 
Heartbeat CPU 0 instructions: 80000000 cycles: 99311248 heartbeat IPC: 0.344031 cumulative IPC: 0.345584 (Simulation time: 0 hr 8 min 11 sec) 
Heartbeat CPU 0 instructions: 90000002 cycles: 128321021 heartbeat IPC: 0.344712 cumulative IPC: 0.345366 (Simulation time: 0 hr 9 min 41 sec) 
Heartbeat CPU 0 instructions: 100000000 cycles: 156688048 heartbeat IPC: 0.352522 cumulative IPC: 0.346774 (Simulation time: 0 hr 11 min 10 sec) 
Heartbeat CPU 0 instructions: 110000000 cycles: 185644334 heartbeat IPC: 0.345349 cumulative IPC: 0.346535 (Simulation time: 0 hr 12 min 40 sec) 
Heartbeat CPU 0 instructions: 120000000 cycles: 213631617 heartbeat IPC: 0.357306 cumulative IPC: 0.348034 (Simulation time: 0 hr 14 min 9 sec) 
Heartbeat CPU 0 instructions: 130000002 cycles: 242212581 heartbeat IPC: 0.349884 cumulative IPC: 0.348264 (Simulation time: 0 hr 15 min 39 sec) 
Heartbeat CPU 0 instructions: 140000004 cycles: 270530147 heartbeat IPC: 0.353138 cumulative IPC: 0.348799 (Simulation time: 0 hr 17 min 8 sec) 
Heartbeat CPU 0 instructions: 150000000 cycles: 298937219 heartbeat IPC: 0.352025 cumulative IPC: 0.349119 (Simulation time: 0 hr 18 min 37 sec) 
Simulation finished CPU 0 instructions: 100000004 cycles: 286435664 cumulative IPC: 0.349119 (Simulation time: 0 hr 18 min 37 sec) 

Simulation complete CPU 0 instructions: 100000004 cycles: 286435664 (Simulation time: 0 hr 18 min 37 sec) 


ChampSim completed all CPUs

Saving instructions large page distribution to /home/bsc/bsc018186/scratch/itp_asplos25_AE/dump/smt_srv85_ap_srv495_ap_1024i.pdst...
Saving data large page distribution to /home/bsc/bsc018186/scratch/itp_asplos25_AE/dump/smt_srv85_ap_srv495_ap_1024i.pdst...
=== Simulation ===
CPU 0 runs /gpfs/projects/bsc18/MN4/bsc18/romol/ChampSim/traces/qualcomm_srv/smt_srv85_ap_srv495_ap_1024i.champsimtrace.xz

Region of Interest Statistics

CPU 0 cumulative IPC: 0.349119 instructions: 100000004 cycles: 286435664
CPU 0 Branch Prediction Accuracy: 74.693% MPKI: 45.6057 Average ROB Occupancy at Mispredict: 10.2971
Branch type MPKI
BRANCH_DIRECT_JUMP: 1.43109
BRANCH_INDIRECT: 23.5974
BRANCH_CONDITIONAL: 13.2603
BRANCH_DIRECT_CALL: 2.72313
BRANCH_INDIRECT_CALL: 1.02023
BRANCH_RETURN: 3.57353

Instructions large pages: 0
Instructions small pages: 9904
Large page distribution for instructions: 0%

Data large pages: 0
Data small pages: 8542
Large page distribution for data: 0%

cpu0_L1I TOTAL       ACCESS:   39850927  HIT:   30513330  MISS:    9337597  iACCESS:   39850927  iHIT:   30513330  iMISS:    9337597  dACCESS:          0  dHIT:          0  dMISS:          0  itACCESS:          0  itHIT:          0  itMISS:          0  dtACCESS:          0  dtHIT:          0  dtMISS:          0
cpu0_L1I LOAD         ACCESS:   11922491  HIT:    9393890  MISS:    2528601  iACCESS:   11922491  iHIT:    9393890  iMISS:    2528601  dACCESS:          0  dHIT:          0  dMISS:          0  itACCESS:          0  itHIT:          0  itMISS:          0  dtACCESS:          0  dtHIT:          0  dtMISS:          0
cpu0_L1I RFO          ACCESS:          0  HIT:          0  MISS:          0  iACCESS:          0  iHIT:          0  iMISS:          0  dACCESS:          0  dHIT:          0  dMISS:          0  itACCESS:          0  itHIT:          0  itMISS:          0  dtACCESS:          0  dtHIT:          0  dtMISS:          0
cpu0_L1I PREFETCH     ACCESS:   27928436  HIT:   21119440  MISS:    6808996  iACCESS:   27928436  iHIT:   21119440  iMISS:    6808996  dACCESS:          0  dHIT:          0  dMISS:          0  itACCESS:          0  itHIT:          0  itMISS:          0  dtACCESS:          0  dtHIT:          0  dtMISS:          0
cpu0_L1I WRITE        ACCESS:          0  HIT:          0  MISS:          0  iACCESS:          0  iHIT:          0  iMISS:          0  dACCESS:          0  dHIT:          0  dMISS:          0  itACCESS:          0  itHIT:          0  itMISS:          0  dtACCESS:          0  dtHIT:          0  dtMISS:          0
cpu0_L1I TRANSLATION  ACCESS:          0  HIT:          0  MISS:          0  iACCESS:          0  iHIT:          0  iMISS:          0  dACCESS:          0  dHIT:          0  dMISS:          0  itACCESS:          0  itHIT:          0  itMISS:          0  dtACCESS:          0  dtHIT:          0  dtMISS:          0
cpu0_L1I PREFETCH  REQUESTED:   30554077  ISSUED:   30552154  CROSSED:          0  USEFUL:    2247488  USELESS:     778802
cpu0_L1I AVERAGE iMISS LATENCY: 24.5757 cycles
cpu0_L1I AVERAGE dMISS LATENCY: 0 cycles
cpu0_L1I AVERAGE itMISS LATENCY: 0 cycles
cpu0_L1I AVERAGE dtMISS LATENCY: 0 cycles
cpu0_L1I PAGE CROSSINGS (TLB HIT):         0 
cpu0_L1I PAGE CROSSINGS (TLB MISS):         0 
cpu0_L1I AVERAGE MISS LATENCY: 24.5757 cycles
cpu0_ITLB TOTAL       ACCESS:   33541310  HIT:   31274809  MISS:    2266501  iACCESS:   33541310  iHIT:   31274809  iMISS:    2266501  dACCESS:          0  dHIT:          0  dMISS:          0  itACCESS:          0  itHIT:          0  itMISS:          0  dtACCESS:          0  dtHIT:          0  dtMISS:          0
cpu0_ITLB LOAD         ACCESS:   33541310  HIT:   31274809  MISS:    2266501  iACCESS:   33541310  iHIT:   31274809  iMISS:    2266501  dACCESS:          0  dHIT:          0  dMISS:          0  itACCESS:          0  itHIT:          0  itMISS:          0  dtACCESS:          0  dtHIT:          0  dtMISS:          0
cpu0_ITLB RFO          ACCESS:          0  HIT:          0  MISS:          0  iACCESS:          0  iHIT:          0  iMISS:          0  dACCESS:          0  dHIT:          0  dMISS:          0  itACCESS:          0  itHIT:          0  itMISS:          0  dtACCESS:          0  dtHIT:          0  dtMISS:          0
cpu0_ITLB PREFETCH     ACCESS:          0  HIT:          0  MISS:          0  iACCESS:          0  iHIT:          0  iMISS:          0  dACCESS:          0  dHIT:          0  dMISS:          0  itACCESS:          0  itHIT:          0  itMISS:          0  dtACCESS:          0  dtHIT:          0  dtMISS:          0
cpu0_ITLB WRITE        ACCESS:          0  HIT:          0  MISS:          0  iACCESS:          0  iHIT:          0  iMISS:          0  dACCESS:          0  dHIT:          0  dMISS:          0  itACCESS:          0  itHIT:          0  itMISS:          0  dtACCESS:          0  dtHIT:          0  dtMISS:          0
cpu0_ITLB TRANSLATION  ACCESS:          0  HIT:          0  MISS:          0  iACCESS:          0  iHIT:          0  iMISS:          0  dACCESS:          0  dHIT:          0  dMISS:          0  itACCESS:          0  itHIT:          0  itMISS:          0  dtACCESS:          0  dtHIT:          0  dtMISS:          0
cpu0_ITLB PREFETCH  REQUESTED:          0  ISSUED:          0  CROSSED:          0  USEFUL:     397409  USELESS:      80985
cpu0_ITLB AVERAGE iMISS LATENCY: 8.10167 cycles
cpu0_ITLB AVERAGE dMISS LATENCY: 0 cycles
cpu0_ITLB AVERAGE itMISS LATENCY: 0 cycles
cpu0_ITLB AVERAGE dtMISS LATENCY: 0 cycles
cpu0_ITLB PAGE CROSSINGS (TLB HIT):         0 
cpu0_ITLB PAGE CROSSINGS (TLB MISS):         0 
cpu0_ITLB AVERAGE MISS LATENCY: 8.10167 cycles
cpu0_DTLB TOTAL       ACCESS:   28920114  HIT:   25299660  MISS:    3620454  iACCESS:          0  iHIT:          0  iMISS:          0  dACCESS:   28920114  dHIT:   25299660  dMISS:    3620454  itACCESS:          0  itHIT:          0  itMISS:          0  dtACCESS:          0  dtHIT:          0  dtMISS:          0
cpu0_DTLB LOAD         ACCESS:   28920114  HIT:   25299660  MISS:    3620454  iACCESS:          0  iHIT:          0  iMISS:          0  dACCESS:   28920114  dHIT:   25299660  dMISS:    3620454  itACCESS:          0  itHIT:          0  itMISS:          0  dtACCESS:          0  dtHIT:          0  dtMISS:          0
cpu0_DTLB RFO          ACCESS:          0  HIT:          0  MISS:          0  iACCESS:          0  iHIT:          0  iMISS:          0  dACCESS:          0  dHIT:          0  dMISS:          0  itACCESS:          0  itHIT:          0  itMISS:          0  dtACCESS:          0  dtHIT:          0  dtMISS:          0
cpu0_DTLB PREFETCH     ACCESS:          0  HIT:          0  MISS:          0  iACCESS:          0  iHIT:          0  iMISS:          0  dACCESS:          0  dHIT:          0  dMISS:          0  itACCESS:          0  itHIT:          0  itMISS:          0  dtACCESS:          0  dtHIT:          0  dtMISS:          0
cpu0_DTLB WRITE        ACCESS:          0  HIT:          0  MISS:          0  iACCESS:          0  iHIT:          0  iMISS:          0  dACCESS:          0  dHIT:          0  dMISS:          0  itACCESS:          0  itHIT:          0  itMISS:          0  dtACCESS:          0  dtHIT:          0  dtMISS:          0
cpu0_DTLB TRANSLATION  ACCESS:          0  HIT:          0  MISS:          0  iACCESS:          0  iHIT:          0  iMISS:          0  dACCESS:          0  dHIT:          0  dMISS:          0  itACCESS:          0  itHIT:          0  itMISS:          0  dtACCESS:          0  dtHIT:          0  dtMISS:          0
cpu0_DTLB PREFETCH  REQUESTED:          0  ISSUED:          0  CROSSED:          0  USEFUL:          0  USELESS:          0
cpu0_DTLB AVERAGE iMISS LATENCY: 0 cycles
cpu0_DTLB AVERAGE dMISS LATENCY: 17.5384 cycles
cpu0_DTLB AVERAGE itMISS LATENCY: 0 cycles
cpu0_DTLB AVERAGE dtMISS LATENCY: 0 cycles
cpu0_DTLB PAGE CROSSINGS (TLB HIT):         0 
cpu0_DTLB PAGE CROSSINGS (TLB MISS):         0 
cpu0_DTLB AVERAGE MISS LATENCY: 17.5384 cycles
cpu0_STLB TOTAL       ACCESS:    2612473  HIT:    2219694  MISS:     392779  iACCESS:     478394  iHIT:     358774  iMISS:     119620  dACCESS:    2134079  dHIT:    1860920  dMISS:     273159  itACCESS:          0  itHIT:          0  itMISS:          0  dtACCESS:          0  dtHIT:          0  dtMISS:          0
cpu0_STLB LOAD         ACCESS:    2612473  HIT:    2219694  MISS:     392779  iACCESS:     478394  iHIT:     358774  iMISS:     119620  dACCESS:    2134079  dHIT:    1860920  dMISS:     273159  itACCESS:          0  itHIT:          0  itMISS:          0  dtACCESS:          0  dtHIT:          0  dtMISS:          0
cpu0_STLB RFO          ACCESS:          0  HIT:          0  MISS:          0  iACCESS:          0  iHIT:          0  iMISS:          0  dACCESS:          0  dHIT:          0  dMISS:          0  itACCESS:          0  itHIT:          0  itMISS:          0  dtACCESS:          0  dtHIT:          0  dtMISS:          0
cpu0_STLB PREFETCH     ACCESS:          0  HIT:          0  MISS:          0  iACCESS:          0  iHIT:          0  iMISS:          0  dACCESS:          0  dHIT:          0  dMISS:          0  itACCESS:          0  itHIT:          0  itMISS:          0  dtACCESS:          0  dtHIT:          0  dtMISS:          0
cpu0_STLB WRITE        ACCESS:          0  HIT:          0  MISS:          0  iACCESS:          0  iHIT:          0  iMISS:          0  dACCESS:          0  dHIT:          0  dMISS:          0  itACCESS:          0  itHIT:          0  itMISS:          0  dtACCESS:          0  dtHIT:          0  dtMISS:          0
cpu0_STLB TRANSLATION  ACCESS:          0  HIT:          0  MISS:          0  iACCESS:          0  iHIT:          0  iMISS:          0  dACCESS:          0  dHIT:          0  dMISS:          0  itACCESS:          0  itHIT:          0  itMISS:          0  dtACCESS:          0  dtHIT:          0  dtMISS:          0
cpu0_STLB PREFETCH  REQUESTED:          0  ISSUED:          0  CROSSED:          0  USEFUL:          0  USELESS:          0
cpu0_STLB AVERAGE iMISS LATENCY: 37.009 cycles
cpu0_STLB AVERAGE dMISS LATENCY: 117.986 cycles
cpu0_STLB AVERAGE itMISS LATENCY: 0 cycles
cpu0_STLB AVERAGE dtMISS LATENCY: 0 cycles
cpu0_STLB PAGE CROSSINGS (TLB HIT):         0 
cpu0_STLB PAGE CROSSINGS (TLB MISS):         0 
cpu0_STLB AVERAGE MISS LATENCY: 154.995 cycles
cpu0_L1D TOTAL       ACCESS:   45315336  HIT:   39307993  MISS:    6007343  iACCESS:          0  iHIT:          0  iMISS:          0  dACCESS:   44746913  dHIT:   39274202  dMISS:    5472711  itACCESS:     133854  itHIT:      14777  itMISS:     119077  dtACCESS:     434569  dtHIT:      19014  dtMISS:     415555
cpu0_L1D LOAD         ACCESS:   20408854  HIT:   17940177  MISS:    2468677  iACCESS:          0  iHIT:          0  iMISS:          0  dACCESS:   20408854  dHIT:   17940177  dMISS:    2468677  itACCESS:          0  itHIT:          0  itMISS:          0  dtACCESS:          0  dtHIT:          0  dtMISS:          0
cpu0_L1D RFO          ACCESS:          0  HIT:          0  MISS:          0  iACCESS:          0  iHIT:          0  iMISS:          0  dACCESS:          0  dHIT:          0  dMISS:          0  itACCESS:          0  itHIT:          0  itMISS:          0  dtACCESS:          0  dtHIT:          0  dtMISS:          0
cpu0_L1D PREFETCH     ACCESS:   14186945  HIT:   11763389  MISS:    2423556  iACCESS:          0  iHIT:          0  iMISS:          0  dACCESS:   14186945  dHIT:   11763389  dMISS:    2423556  itACCESS:          0  itHIT:          0  itMISS:          0  dtACCESS:          0  dtHIT:          0  dtMISS:          0
cpu0_L1D WRITE        ACCESS:   10151114  HIT:    9570636  MISS:     580478  iACCESS:          0  iHIT:          0  iMISS:          0  dACCESS:   10151114  dHIT:    9570636  dMISS:     580478  itACCESS:          0  itHIT:          0  itMISS:          0  dtACCESS:          0  dtHIT:          0  dtMISS:          0
cpu0_L1D TRANSLATION  ACCESS:     568423  HIT:      33791  MISS:     534632  iACCESS:          0  iHIT:          0  iMISS:          0  dACCESS:          0  dHIT:          0  dMISS:          0  itACCESS:     133854  itHIT:      14777  itMISS:     119077  dtACCESS:     434569  dtHIT:      19014  dtMISS:     415555
cpu0_L1D PREFETCH  REQUESTED:   20408854  ISSUED:   18588700  CROSSED:          0  USEFUL:     362659  USELESS:     939961
cpu0_L1D AVERAGE iMISS LATENCY: 0 cycles
cpu0_L1D AVERAGE dMISS LATENCY: 49.9774 cycles
cpu0_L1D AVERAGE itMISS LATENCY: 2.23553 cycles
cpu0_L1D AVERAGE dtMISS LATENCY: 6.94554 cycles
cpu0_L1D PAGE CROSSINGS (TLB HIT):         0 
cpu0_L1D PAGE CROSSINGS (TLB MISS):         0 
cpu0_L1D AVERAGE MISS LATENCY: 59.1585 cycles
cpu0_L2C TOTAL       ACCESS:    8757301  HIT:    1536764  MISS:    7220537  iACCESS:    3841870  iHIT:     805892  iMISS:    3035978  dACCESS:    4408119  dHIT:     529258  dMISS:    3878861  itACCESS:     118533  itHIT:      39885  itMISS:      78648  dtACCESS:     388779  dtHIT:     161729  dtMISS:     227050
cpu0_L2C LOAD         ACCESS:    2076043  HIT:     200272  MISS:    1875771  iACCESS:     852250  iHIT:     113571  iMISS:     738679  dACCESS:    1223793  dHIT:      86701  dMISS:    1137092  itACCESS:          0  itHIT:          0  itMISS:          0  dtACCESS:          0  dtHIT:          0  dtMISS:          0
cpu0_L2C RFO          ACCESS:     215229  HIT:      26516  MISS:     188713  iACCESS:          0  iHIT:          0  iMISS:          0  dACCESS:     215229  dHIT:      26516  dMISS:     188713  itACCESS:          0  itHIT:          0  itMISS:          0  dtACCESS:          0  dtHIT:          0  dtMISS:          0
cpu0_L2C PREFETCH     ACCESS:    5613848  HIT:    1008396  MISS:    4605452  iACCESS:    2989620  iHIT:     692321  iMISS:    2297299  dACCESS:    2624228  dHIT:     316075  dMISS:    2308153  itACCESS:          0  itHIT:          0  itMISS:          0  dtACCESS:          0  dtHIT:          0  dtMISS:          0
cpu0_L2C WRITE        ACCESS:     344869  HIT:      99966  MISS:     244903  iACCESS:          0  iHIT:          0  iMISS:          0  dACCESS:     344869  dHIT:      99966  dMISS:     244903  itACCESS:          0  itHIT:          0  itMISS:          0  dtACCESS:          0  dtHIT:          0  dtMISS:          0
cpu0_L2C TRANSLATION  ACCESS:     507312  HIT:     201614  MISS:     305698  iACCESS:          0  iHIT:          0  iMISS:          0  dACCESS:          0  dHIT:          0  dMISS:          0  itACCESS:     118533  itHIT:      39885  itMISS:      78648  dtACCESS:     388779  dtHIT:     161729  dtMISS:     227050
cpu0_L2C PREFETCH  REQUESTED:    1567503  ISSUED:    1567501  CROSSED:          0  USEFUL:     422206  USELESS:     502415
cpu0_L2C AVERAGE iMISS LATENCY: 27.2386 cycles
cpu0_L2C AVERAGE dMISS LATENCY: 51.2273 cycles
cpu0_L2C AVERAGE itMISS LATENCY: 1.70083 cycles
cpu0_L2C AVERAGE dtMISS LATENCY: 5.26021 cycles
cpu0_L2C PAGE CROSSINGS (TLB HIT):         0 
cpu0_L2C PAGE CROSSINGS (TLB MISS):         0 
cpu0_L2C AVERAGE MISS LATENCY: 85.4268 cycles
LLC TOTAL       ACCESS:    7026314  HIT:    4179271  MISS:    2847043  iACCESS:    2940442  iHIT:    2047997  iMISS:     892445  dACCESS:    3780174  dHIT:    2060724  dMISS:    1719450  itACCESS:      78648  itHIT:      18579  itMISS:      60069  dtACCESS:     227050  dtHIT:      51971  dtMISS:     175079
LLC LOAD         ACCESS:    1867431  HIT:    1175322  MISS:     692109  iACCESS:     737163  iHIT:     548639  iMISS:     188524  dACCESS:    1130268  dHIT:     626683  dMISS:     503585  itACCESS:          0  itHIT:          0  itMISS:          0  dtACCESS:          0  dtHIT:          0  dtMISS:          0
LLC RFO          ACCESS:     188701  HIT:      93770  MISS:      94931  iACCESS:          0  iHIT:          0  iMISS:          0  dACCESS:     188701  dHIT:      93770  dMISS:      94931  itACCESS:          0  itHIT:          0  itMISS:          0  dtACCESS:          0  dtHIT:          0  dtMISS:          0
LLC PREFETCH     ACCESS:    4384193  HIT:    2565608  MISS:    1818585  iACCESS:    2203279  iHIT:    1499358  iMISS:     703921  dACCESS:    2180914  dHIT:    1066250  dMISS:    1114664  itACCESS:          0  itHIT:          0  itMISS:          0  dtACCESS:          0  dtHIT:          0  dtMISS:          0
LLC WRITE        ACCESS:     280291  HIT:     274021  MISS:       6270  iACCESS:          0  iHIT:          0  iMISS:          0  dACCESS:     280291  dHIT:     274021  dMISS:       6270  itACCESS:          0  itHIT:          0  itMISS:          0  dtACCESS:          0  dtHIT:          0  dtMISS:          0
LLC TRANSLATION  ACCESS:     305698  HIT:      70550  MISS:     235148  iACCESS:          0  iHIT:          0  iMISS:          0  dACCESS:          0  dHIT:          0  dMISS:          0  itACCESS:      78648  itHIT:      18579  itMISS:      60069  dtACCESS:     227050  dtHIT:      51971  dtMISS:     175079
LLC PREFETCH  REQUESTED:          0  ISSUED:          0  CROSSED:          0  USEFUL:          0  USELESS:          0
LLC AVERAGE iMISS LATENCY: 49.0101 cycles
LLC AVERAGE dMISS LATENCY: 107.026 cycles
LLC AVERAGE itMISS LATENCY: 3.76938 cycles
LLC AVERAGE dtMISS LATENCY: 11.7699 cycles
LLC PAGE CROSSINGS (TLB HIT):         0 
LLC PAGE CROSSINGS (TLB MISS):         0 
LLC AVERAGE MISS LATENCY: 171.575 cycles

PageTableWalker TOTAL       ACCESS:     197672  
PageTableWalker AVERAGE LATENCY: 5.9079 cycles
PageTableWalker TOTAL LATENCY: 1167826 cycles

DRAM Statistics
Channel 0
 RQ ROW_BUFFER_HIT:     639533
  ROW_BUFFER_MISS:    2180458
 AVG DBUS CONGESTED CYCLE:    3.64994
 WQ ROW_BUFFER_HIT:      71806
  ROW_BUFFER_MISS:      66073  FULL:          0

