last_page:0x200000000000000
VMEM_RES_CAP:0x100000
PAGE_SIZE:4096
LOG2_PAGE_SIZE:12
LOG2_PAGE_TABLE_SIZE:9
page_table_levels:5
WARNING: physical memory size is smaller than virtual memory size
FDiP enabled with aggresivity 16

*** ChampSim Multicore Out-of-Order Simulator ***

Warmup Instructions: 50000000
Simulation Instructions: 100000000
Number of CPUs: 1
Small page size: 4096
Large page size: 2097152

CPU 0 Bimodal branch predictor
Basic BTB sets: 1024 ways: 8 indirect buffer size: 4096 RAS size: 64
Instruction page size distrubution: 0
Loading instruction page size distribution from /home/bsc/bsc018186/scratch/itp_asplos25_AE/dump/smt_srv540_ap_srv442_ap_1024i.pdst
Data page size distrubution: 0
Loading data page size distribution from /home/bsc/bsc018186/scratch/itp_asplos25_AE/dump/smt_srv540_ap_srv442_ap_1024i.pdst
cpu0_L2C IP-based stride prefetcher
cpu0_L1D next line prefetcher
CHiRPing...
cpu0_L1I next line prefetcher
Off-chip DRAM Size: 4 GiB Channels: 1 Width: 64-bit Data Rate: 3200 MT/s
Heartbeat CPU 0 instructions: 10000000 cycles: 2500485 heartbeat IPC: 3.99923 cumulative IPC: 3.99923 (Simulation time: 0 hr 0 min 40 sec) 
Heartbeat CPU 0 instructions: 20000001 cycles: 5000854 heartbeat IPC: 3.99942 cumulative IPC: 3.99932 (Simulation time: 0 hr 1 min 21 sec) 
Heartbeat CPU 0 instructions: 30000003 cycles: 7501144 heartbeat IPC: 3.99954 cumulative IPC: 3.9994 (Simulation time: 0 hr 2 min 4 sec) 
Heartbeat CPU 0 instructions: 40000002 cycles: 10001231 heartbeat IPC: 3.99987 cumulative IPC: 3.99951 (Simulation time: 0 hr 2 min 46 sec) 
Heartbeat CPU 0 instructions: 50000001 cycles: 12501473 heartbeat IPC: 3.99962 cumulative IPC: 3.99953 (Simulation time: 0 hr 3 min 30 sec) 
Warmup finished CPU 0 instructions: 50000001 cycles: 12501474 cumulative IPC: 3.99953 (Simulation time: 0 hr 3 min 30 sec) 

Warmup complete CPU 0 instructions: 50000001 cycles: 12501474 (Simulation time: 0 hr 3 min 30 sec) 

Heartbeat CPU 0 instructions: 60000000 cycles: 42126038 heartbeat IPC: 0.337558 cumulative IPC: 0.337558 (Simulation time: 0 hr 4 min 59 sec) 
Heartbeat CPU 0 instructions: 70000004 cycles: 71217613 heartbeat IPC: 0.343743 cumulative IPC: 0.340622 (Simulation time: 0 hr 6 min 33 sec) 
Heartbeat CPU 0 instructions: 80000000 cycles: 99934231 heartbeat IPC: 0.348231 cumulative IPC: 0.343121 (Simulation time: 0 hr 8 min 13 sec) 
Heartbeat CPU 0 instructions: 90000000 cycles: 129215904 heartbeat IPC: 0.341511 cumulative IPC: 0.342717 (Simulation time: 0 hr 9 min 54 sec) 
Heartbeat CPU 0 instructions: 100000001 cycles: 158984918 heartbeat IPC: 0.33592 cumulative IPC: 0.341336 (Simulation time: 0 hr 11 min 34 sec) 
Heartbeat CPU 0 instructions: 110000002 cycles: 188473832 heartbeat IPC: 0.339111 cumulative IPC: 0.340963 (Simulation time: 0 hr 13 min 16 sec) 
Heartbeat CPU 0 instructions: 120000002 cycles: 217623791 heartbeat IPC: 0.343054 cumulative IPC: 0.34126 (Simulation time: 0 hr 14 min 55 sec) 
Heartbeat CPU 0 instructions: 130000001 cycles: 246545791 heartbeat IPC: 0.345758 cumulative IPC: 0.341816 (Simulation time: 0 hr 16 min 35 sec) 
Heartbeat CPU 0 instructions: 140000002 cycles: 275083928 heartbeat IPC: 0.350409 cumulative IPC: 0.34275 (Simulation time: 0 hr 18 min 14 sec) 
Heartbeat CPU 0 instructions: 150000001 cycles: 302822725 heartbeat IPC: 0.360506 cumulative IPC: 0.344447 (Simulation time: 0 hr 19 min 50 sec) 
Simulation finished CPU 0 instructions: 100000000 cycles: 290321252 cumulative IPC: 0.344447 (Simulation time: 0 hr 19 min 50 sec) 

Simulation complete CPU 0 instructions: 100000000 cycles: 290321252 (Simulation time: 0 hr 19 min 50 sec) 


ChampSim completed all CPUs

Saving instructions large page distribution to /home/bsc/bsc018186/scratch/itp_asplos25_AE/dump/smt_srv540_ap_srv442_ap_1024i.pdst...
Saving data large page distribution to /home/bsc/bsc018186/scratch/itp_asplos25_AE/dump/smt_srv540_ap_srv442_ap_1024i.pdst...
=== Simulation ===
CPU 0 runs /gpfs/projects/bsc18/MN4/bsc18/romol/ChampSim/traces/qualcomm_srv/smt_srv540_ap_srv442_ap_1024i.champsimtrace.xz

Region of Interest Statistics

CPU 0 cumulative IPC: 0.344447 instructions: 100000000 cycles: 290321252
CPU 0 Branch Prediction Accuracy: 76.4137% MPKI: 42.5415 Average ROB Occupancy at Mispredict: 11.4139
Branch type MPKI
BRANCH_DIRECT_JUMP: 1.29877
BRANCH_INDIRECT: 22.7466
BRANCH_CONDITIONAL: 11.6727
BRANCH_DIRECT_CALL: 2.41268
BRANCH_INDIRECT_CALL: 0.997001
BRANCH_RETURN: 3.41375

Instructions large pages: 0
Instructions small pages: 9745
Large page distribution for instructions: 0%

Data large pages: 0
Data small pages: 8570
Large page distribution for data: 0%

cpu0_L1I TOTAL       ACCESS:   38830070  HIT:   30040066  MISS:    8790004  iACCESS:   38830070  iHIT:   30040066  iMISS:    8790004  dACCESS:          0  dHIT:          0  dMISS:          0  itACCESS:          0  itHIT:          0  itMISS:          0  dtACCESS:          0  dtHIT:          0  dtMISS:          0
cpu0_L1I LOAD         ACCESS:   11645333  HIT:    9223693  MISS:    2421640  iACCESS:   11645333  iHIT:    9223693  iMISS:    2421640  dACCESS:          0  dHIT:          0  dMISS:          0  itACCESS:          0  itHIT:          0  itMISS:          0  dtACCESS:          0  dtHIT:          0  dtMISS:          0
cpu0_L1I RFO          ACCESS:          0  HIT:          0  MISS:          0  iACCESS:          0  iHIT:          0  iMISS:          0  dACCESS:          0  dHIT:          0  dMISS:          0  itACCESS:          0  itHIT:          0  itMISS:          0  dtACCESS:          0  dtHIT:          0  dtMISS:          0
cpu0_L1I PREFETCH     ACCESS:   27184737  HIT:   20816373  MISS:    6368364  iACCESS:   27184737  iHIT:   20816373  iMISS:    6368364  dACCESS:          0  dHIT:          0  dMISS:          0  itACCESS:          0  itHIT:          0  itMISS:          0  dtACCESS:          0  dtHIT:          0  dtMISS:          0
cpu0_L1I WRITE        ACCESS:          0  HIT:          0  MISS:          0  iACCESS:          0  iHIT:          0  iMISS:          0  dACCESS:          0  dHIT:          0  dMISS:          0  itACCESS:          0  itHIT:          0  itMISS:          0  dtACCESS:          0  dtHIT:          0  dtMISS:          0
cpu0_L1I TRANSLATION  ACCESS:          0  HIT:          0  MISS:          0  iACCESS:          0  iHIT:          0  iMISS:          0  dACCESS:          0  dHIT:          0  dMISS:          0  itACCESS:          0  itHIT:          0  itMISS:          0  dtACCESS:          0  dtHIT:          0  dtMISS:          0
cpu0_L1I PREFETCH  REQUESTED:   30033985  ISSUED:   30033973  CROSSED:          0  USEFUL:    2205324  USELESS:     770384
cpu0_L1I AVERAGE iMISS LATENCY: 22.0083 cycles
cpu0_L1I AVERAGE dMISS LATENCY: 0 cycles
cpu0_L1I AVERAGE itMISS LATENCY: 0 cycles
cpu0_L1I AVERAGE dtMISS LATENCY: 0 cycles
cpu0_L1I PAGE CROSSINGS (TLB HIT):         0 
cpu0_L1I PAGE CROSSINGS (TLB MISS):         0 
cpu0_L1I AVERAGE MISS LATENCY: 22.0083 cycles
cpu0_ITLB TOTAL       ACCESS:   32797749  HIT:   30512805  MISS:    2284944  iACCESS:   32797749  iHIT:   30512805  iMISS:    2284944  dACCESS:          0  dHIT:          0  dMISS:          0  itACCESS:          0  itHIT:          0  itMISS:          0  dtACCESS:          0  dtHIT:          0  dtMISS:          0
cpu0_ITLB LOAD         ACCESS:   32797749  HIT:   30512805  MISS:    2284944  iACCESS:   32797749  iHIT:   30512805  iMISS:    2284944  dACCESS:          0  dHIT:          0  dMISS:          0  itACCESS:          0  itHIT:          0  itMISS:          0  dtACCESS:          0  dtHIT:          0  dtMISS:          0
cpu0_ITLB RFO          ACCESS:          0  HIT:          0  MISS:          0  iACCESS:          0  iHIT:          0  iMISS:          0  dACCESS:          0  dHIT:          0  dMISS:          0  itACCESS:          0  itHIT:          0  itMISS:          0  dtACCESS:          0  dtHIT:          0  dtMISS:          0
cpu0_ITLB PREFETCH     ACCESS:          0  HIT:          0  MISS:          0  iACCESS:          0  iHIT:          0  iMISS:          0  dACCESS:          0  dHIT:          0  dMISS:          0  itACCESS:          0  itHIT:          0  itMISS:          0  dtACCESS:          0  dtHIT:          0  dtMISS:          0
cpu0_ITLB WRITE        ACCESS:          0  HIT:          0  MISS:          0  iACCESS:          0  iHIT:          0  iMISS:          0  dACCESS:          0  dHIT:          0  dMISS:          0  itACCESS:          0  itHIT:          0  itMISS:          0  dtACCESS:          0  dtHIT:          0  dtMISS:          0
cpu0_ITLB TRANSLATION  ACCESS:          0  HIT:          0  MISS:          0  iACCESS:          0  iHIT:          0  iMISS:          0  dACCESS:          0  dHIT:          0  dMISS:          0  itACCESS:          0  itHIT:          0  itMISS:          0  dtACCESS:          0  dtHIT:          0  dtMISS:          0
cpu0_ITLB PREFETCH  REQUESTED:          0  ISSUED:          0  CROSSED:          0  USEFUL:     387682  USELESS:      82823
cpu0_ITLB AVERAGE iMISS LATENCY: 9.8977 cycles
cpu0_ITLB AVERAGE dMISS LATENCY: 0 cycles
cpu0_ITLB AVERAGE itMISS LATENCY: 0 cycles
cpu0_ITLB AVERAGE dtMISS LATENCY: 0 cycles
cpu0_ITLB PAGE CROSSINGS (TLB HIT):         0 
cpu0_ITLB PAGE CROSSINGS (TLB MISS):         0 
cpu0_ITLB AVERAGE MISS LATENCY: 9.8977 cycles
cpu0_DTLB TOTAL       ACCESS:   28792739  HIT:   25114574  MISS:    3678165  iACCESS:          0  iHIT:          0  iMISS:          0  dACCESS:   28792739  dHIT:   25114574  dMISS:    3678165  itACCESS:          0  itHIT:          0  itMISS:          0  dtACCESS:          0  dtHIT:          0  dtMISS:          0
cpu0_DTLB LOAD         ACCESS:   28792739  HIT:   25114574  MISS:    3678165  iACCESS:          0  iHIT:          0  iMISS:          0  dACCESS:   28792739  dHIT:   25114574  dMISS:    3678165  itACCESS:          0  itHIT:          0  itMISS:          0  dtACCESS:          0  dtHIT:          0  dtMISS:          0
cpu0_DTLB RFO          ACCESS:          0  HIT:          0  MISS:          0  iACCESS:          0  iHIT:          0  iMISS:          0  dACCESS:          0  dHIT:          0  dMISS:          0  itACCESS:          0  itHIT:          0  itMISS:          0  dtACCESS:          0  dtHIT:          0  dtMISS:          0
cpu0_DTLB PREFETCH     ACCESS:          0  HIT:          0  MISS:          0  iACCESS:          0  iHIT:          0  iMISS:          0  dACCESS:          0  dHIT:          0  dMISS:          0  itACCESS:          0  itHIT:          0  itMISS:          0  dtACCESS:          0  dtHIT:          0  dtMISS:          0
cpu0_DTLB WRITE        ACCESS:          0  HIT:          0  MISS:          0  iACCESS:          0  iHIT:          0  iMISS:          0  dACCESS:          0  dHIT:          0  dMISS:          0  itACCESS:          0  itHIT:          0  itMISS:          0  dtACCESS:          0  dtHIT:          0  dtMISS:          0
cpu0_DTLB TRANSLATION  ACCESS:          0  HIT:          0  MISS:          0  iACCESS:          0  iHIT:          0  iMISS:          0  dACCESS:          0  dHIT:          0  dMISS:          0  itACCESS:          0  itHIT:          0  itMISS:          0  dtACCESS:          0  dtHIT:          0  dtMISS:          0
cpu0_DTLB PREFETCH  REQUESTED:          0  ISSUED:          0  CROSSED:          0  USEFUL:          0  USELESS:          0
cpu0_DTLB AVERAGE iMISS LATENCY: 0 cycles
cpu0_DTLB AVERAGE dMISS LATENCY: 24.8918 cycles
cpu0_DTLB AVERAGE itMISS LATENCY: 0 cycles
cpu0_DTLB AVERAGE dtMISS LATENCY: 0 cycles
cpu0_DTLB PAGE CROSSINGS (TLB HIT):         0 
cpu0_DTLB PAGE CROSSINGS (TLB MISS):         0 
cpu0_DTLB AVERAGE MISS LATENCY: 24.8918 cycles
cpu0_STLB TOTAL       ACCESS:    2596329  HIT:    2222408  MISS:     373921  iACCESS:     470504  iHIT:     363113  iMISS:     107391  dACCESS:    2125825  dHIT:    1859295  dMISS:     266530  itACCESS:          0  itHIT:          0  itMISS:          0  dtACCESS:          0  dtHIT:          0  dtMISS:          0
cpu0_STLB LOAD         ACCESS:    2596329  HIT:    2222408  MISS:     373921  iACCESS:     470504  iHIT:     363113  iMISS:     107391  dACCESS:    2125825  dHIT:    1859295  dMISS:     266530  itACCESS:          0  itHIT:          0  itMISS:          0  dtACCESS:          0  dtHIT:          0  dtMISS:          0
cpu0_STLB RFO          ACCESS:          0  HIT:          0  MISS:          0  iACCESS:          0  iHIT:          0  iMISS:          0  dACCESS:          0  dHIT:          0  dMISS:          0  itACCESS:          0  itHIT:          0  itMISS:          0  dtACCESS:          0  dtHIT:          0  dtMISS:          0
cpu0_STLB PREFETCH     ACCESS:          0  HIT:          0  MISS:          0  iACCESS:          0  iHIT:          0  iMISS:          0  dACCESS:          0  dHIT:          0  dMISS:          0  itACCESS:          0  itHIT:          0  itMISS:          0  dtACCESS:          0  dtHIT:          0  dtMISS:          0
cpu0_STLB WRITE        ACCESS:          0  HIT:          0  MISS:          0  iACCESS:          0  iHIT:          0  iMISS:          0  dACCESS:          0  dHIT:          0  dMISS:          0  itACCESS:          0  itHIT:          0  itMISS:          0  dtACCESS:          0  dtHIT:          0  dtMISS:          0
cpu0_STLB TRANSLATION  ACCESS:          0  HIT:          0  MISS:          0  iACCESS:          0  iHIT:          0  iMISS:          0  dACCESS:          0  dHIT:          0  dMISS:          0  itACCESS:          0  itHIT:          0  itMISS:          0  dtACCESS:          0  dtHIT:          0  dtMISS:          0
cpu0_STLB PREFETCH  REQUESTED:          0  ISSUED:          0  CROSSED:          0  USEFUL:          0  USELESS:          0
cpu0_STLB AVERAGE iMISS LATENCY: 50.4359 cycles
cpu0_STLB AVERAGE dMISS LATENCY: 199.085 cycles
cpu0_STLB AVERAGE itMISS LATENCY: 0 cycles
cpu0_STLB AVERAGE dtMISS LATENCY: 0 cycles
cpu0_STLB PAGE CROSSINGS (TLB HIT):         0 
cpu0_STLB PAGE CROSSINGS (TLB MISS):         0 
cpu0_STLB AVERAGE MISS LATENCY: 249.521 cycles
cpu0_L1D TOTAL       ACCESS:   44872238  HIT:   38940761  MISS:    5931477  iACCESS:          0  iHIT:          0  iMISS:          0  dACCESS:   44322683  dHIT:   38909110  dMISS:    5413573  itACCESS:     120946  itHIT:      12232  itMISS:     108714  dtACCESS:     428609  dtHIT:      19419  dtMISS:     409190
cpu0_L1D LOAD         ACCESS:   20258278  HIT:   17820804  MISS:    2437474  iACCESS:          0  iHIT:          0  iMISS:          0  dACCESS:   20258278  dHIT:   17820804  dMISS:    2437474  itACCESS:          0  itHIT:          0  itMISS:          0  dtACCESS:          0  dtHIT:          0  dtMISS:          0
cpu0_L1D RFO          ACCESS:          0  HIT:          0  MISS:          0  iACCESS:          0  iHIT:          0  iMISS:          0  dACCESS:          0  dHIT:          0  dMISS:          0  itACCESS:          0  itHIT:          0  itMISS:          0  dtACCESS:          0  dtHIT:          0  dtMISS:          0
cpu0_L1D PREFETCH     ACCESS:   13922083  HIT:   11519078  MISS:    2403005  iACCESS:          0  iHIT:          0  iMISS:          0  dACCESS:   13922083  dHIT:   11519078  dMISS:    2403005  itACCESS:          0  itHIT:          0  itMISS:          0  dtACCESS:          0  dtHIT:          0  dtMISS:          0
cpu0_L1D WRITE        ACCESS:   10142322  HIT:    9569228  MISS:     573094  iACCESS:          0  iHIT:          0  iMISS:          0  dACCESS:   10142322  dHIT:    9569228  dMISS:     573094  itACCESS:          0  itHIT:          0  itMISS:          0  dtACCESS:          0  dtHIT:          0  dtMISS:          0
cpu0_L1D TRANSLATION  ACCESS:     549555  HIT:      31651  MISS:     517904  iACCESS:          0  iHIT:          0  iMISS:          0  dACCESS:          0  dHIT:          0  dMISS:          0  itACCESS:     120946  itHIT:      12232  itMISS:     108714  dtACCESS:     428609  dtHIT:      19419  dtMISS:     409190
cpu0_L1D PREFETCH  REQUESTED:   20258278  ISSUED:   18380845  CROSSED:          0  USEFUL:     358460  USELESS:     933789
cpu0_L1D AVERAGE iMISS LATENCY: 0 cycles
cpu0_L1D AVERAGE dMISS LATENCY: 48.7888 cycles
cpu0_L1D AVERAGE itMISS LATENCY: 3.01021 cycles
cpu0_L1D AVERAGE dtMISS LATENCY: 11.7755 cycles
cpu0_L1D PAGE CROSSINGS (TLB HIT):         0 
cpu0_L1D PAGE CROSSINGS (TLB MISS):         0 
cpu0_L1D AVERAGE MISS LATENCY: 63.5745 cycles
cpu0_L2C TOTAL       ACCESS:    8633345  HIT:    4286135  MISS:    4347210  iACCESS:    3807627  iHIT:    2379213  iMISS:    1428414  dACCESS:    4338684  dHIT:    1850090  dMISS:    2488594  itACCESS:     108605  itHIT:      17831  itMISS:      90774  dtACCESS:     378429  dtHIT:      39001  dtMISS:     339428
cpu0_L2C LOAD         ACCESS:    2080838  HIT:    1034987  MISS:    1045851  iACCESS:     870099  iHIT:     569249  iMISS:     300850  dACCESS:    1210739  dHIT:     465738  dMISS:     745001  itACCESS:          0  itHIT:          0  itMISS:          0  dtACCESS:          0  dtHIT:          0  dtMISS:          0
cpu0_L2C RFO          ACCESS:     220988  HIT:      86543  MISS:     134445  iACCESS:          0  iHIT:          0  iMISS:          0  dACCESS:     220988  dHIT:      86543  dMISS:     134445  itACCESS:          0  itHIT:          0  itMISS:          0  dtACCESS:          0  dtHIT:          0  dtMISS:          0
cpu0_L2C PREFETCH     ACCESS:    5495622  HIT:    2762671  MISS:    2732951  iACCESS:    2937528  iHIT:    1809964  iMISS:    1127564  dACCESS:    2558094  dHIT:     952707  dMISS:    1605387  itACCESS:          0  itHIT:          0  itMISS:          0  dtACCESS:          0  dtHIT:          0  dtMISS:          0
cpu0_L2C WRITE        ACCESS:     348863  HIT:     345102  MISS:       3761  iACCESS:          0  iHIT:          0  iMISS:          0  dACCESS:     348863  dHIT:     345102  dMISS:       3761  itACCESS:          0  itHIT:          0  itMISS:          0  dtACCESS:          0  dtHIT:          0  dtMISS:          0
cpu0_L2C TRANSLATION  ACCESS:     487034  HIT:      56832  MISS:     430202  iACCESS:          0  iHIT:          0  iMISS:          0  dACCESS:          0  dHIT:          0  dMISS:          0  itACCESS:     108605  itHIT:      17831  itMISS:      90774  dtACCESS:     378429  dtHIT:      39001  dtMISS:     339428
cpu0_L2C PREFETCH  REQUESTED:    1526653  ISSUED:    1526651  CROSSED:          0  USEFUL:     351769  USELESS:     303256
cpu0_L2C AVERAGE iMISS LATENCY: 36.94 cycles
cpu0_L2C AVERAGE dMISS LATENCY: 80.1934 cycles
cpu0_L2C AVERAGE itMISS LATENCY: 3.86073 cycles
cpu0_L2C AVERAGE dtMISS LATENCY: 15.2001 cycles
cpu0_L2C PAGE CROSSINGS (TLB HIT):         0 
cpu0_L2C PAGE CROSSINGS (TLB MISS):         0 
cpu0_L2C AVERAGE MISS LATENCY: 136.195 cycles
LLC TOTAL       ACCESS:    4360599  HIT:    1427211  MISS:    2933388  iACCESS:    1346541  iHIT:     496650  iMISS:     849891  dACCESS:    2583856  dHIT:     888642  dMISS:    1695214  itACCESS:      90774  itHIT:       6793  itMISS:      83981  dtACCESS:     339428  dtHIT:      35126  dtMISS:     304302
LLC LOAD         ACCESS:    1037964  HIT:     343615  MISS:     694349  iACCESS:     299613  iHIT:     116014  iMISS:     183599  dACCESS:     738351  dHIT:     227601  dMISS:     510750  itACCESS:          0  itHIT:          0  itMISS:          0  dtACCESS:          0  dtHIT:          0  dtMISS:          0
LLC RFO          ACCESS:     134440  HIT:      41154  MISS:      93286  iACCESS:          0  iHIT:          0  iMISS:          0  dACCESS:     134440  dHIT:      41154  dMISS:      93286  itACCESS:          0  itHIT:          0  itMISS:          0  dtACCESS:          0  dtHIT:          0  dtMISS:          0
LLC PREFETCH     ACCESS:    2545772  HIT:     798237  MISS:    1747535  iACCESS:    1046928  iHIT:     380636  iMISS:     666292  dACCESS:    1498844  dHIT:     417601  dMISS:    1081243  itACCESS:          0  itHIT:          0  itMISS:          0  dtACCESS:          0  dtHIT:          0  dtMISS:          0
LLC WRITE        ACCESS:     212221  HIT:     202286  MISS:       9935  iACCESS:          0  iHIT:          0  iMISS:          0  dACCESS:     212221  dHIT:     202286  dMISS:       9935  itACCESS:          0  itHIT:          0  itMISS:          0  dtACCESS:          0  dtHIT:          0  dtMISS:          0
LLC TRANSLATION  ACCESS:     430202  HIT:      41919  MISS:     388283  iACCESS:          0  iHIT:          0  iMISS:          0  dACCESS:          0  dHIT:          0  dMISS:          0  itACCESS:      90774  itHIT:       6793  itMISS:      83981  dtACCESS:     339428  dtHIT:      35126  dtMISS:     304302
LLC PREFETCH  REQUESTED:          0  ISSUED:          0  CROSSED:          0  USEFUL:          0  USELESS:          0
LLC AVERAGE iMISS LATENCY: 45.7144 cycles
LLC AVERAGE dMISS LATENCY: 104.098 cycles
LLC AVERAGE itMISS LATENCY: 5.10762 cycles
LLC AVERAGE dtMISS LATENCY: 20.2384 cycles
LLC PAGE CROSSINGS (TLB HIT):         0 
LLC PAGE CROSSINGS (TLB MISS):         0 
LLC AVERAGE MISS LATENCY: 175.158 cycles

PageTableWalker TOTAL       ACCESS:     185524  
PageTableWalker AVERAGE LATENCY: 6.50075 cycles
PageTableWalker TOTAL LATENCY: 1206044 cycles

DRAM Statistics
Channel 0
 RQ ROW_BUFFER_HIT:     593992
  ROW_BUFFER_MISS:    2307706
 AVG DBUS CONGESTED CYCLE:     3.6471
 WQ ROW_BUFFER_HIT:      65338
  ROW_BUFFER_MISS:      55785  FULL:          0

