last_page:0x200000000000000
VMEM_RES_CAP:0x100000
PAGE_SIZE:4096
LOG2_PAGE_SIZE:12
LOG2_PAGE_TABLE_SIZE:9
page_table_levels:5
WARNING: physical memory size is smaller than virtual memory size
FDiP enabled with aggresivity 16

*** ChampSim Multicore Out-of-Order Simulator ***

Warmup Instructions: 50000000
Simulation Instructions: 100000000
Number of CPUs: 1
Small page size: 4096
Large page size: 2097152

CPU 0 Bimodal branch predictor
Basic BTB sets: 1024 ways: 8 indirect buffer size: 4096 RAS size: 64
Instruction page size distrubution: 0
Loading instruction page size distribution from /home/bsc/bsc018186/scratch/itp_asplos25_AE/dump/smt_srv85_ap_srv526_ap_1024i.pdst
Data page size distrubution: 0
Loading data page size distribution from /home/bsc/bsc018186/scratch/itp_asplos25_AE/dump/smt_srv85_ap_srv526_ap_1024i.pdst
cpu0_L2C IP-based stride prefetcher
cpu0_L1D next line prefetcher
CHiRPing...
cpu0_L1I next line prefetcher
Off-chip DRAM Size: 4 GiB Channels: 1 Width: 64-bit Data Rate: 3200 MT/s
Heartbeat CPU 0 instructions: 10000002 cycles: 2500434 heartbeat IPC: 3.99931 cumulative IPC: 3.99931 (Simulation time: 0 hr 0 min 43 sec) 
Heartbeat CPU 0 instructions: 20000001 cycles: 5000814 heartbeat IPC: 3.9994 cumulative IPC: 3.99935 (Simulation time: 0 hr 1 min 27 sec) 
Heartbeat CPU 0 instructions: 30000001 cycles: 7585208 heartbeat IPC: 3.86938 cumulative IPC: 3.95507 (Simulation time: 0 hr 2 min 15 sec) 
Heartbeat CPU 0 instructions: 40000000 cycles: 10128767 heartbeat IPC: 3.9315 cumulative IPC: 3.94915 (Simulation time: 0 hr 3 min 2 sec) 
Heartbeat CPU 0 instructions: 50000001 cycles: 12658900 heartbeat IPC: 3.95237 cumulative IPC: 3.9498 (Simulation time: 0 hr 3 min 48 sec) 
Warmup finished CPU 0 instructions: 50000001 cycles: 12658901 cumulative IPC: 3.9498 (Simulation time: 0 hr 3 min 48 sec) 

Warmup complete CPU 0 instructions: 50000001 cycles: 12658901 (Simulation time: 0 hr 3 min 48 sec) 

Heartbeat CPU 0 instructions: 60000003 cycles: 40224356 heartbeat IPC: 0.362773 cumulative IPC: 0.362773 (Simulation time: 0 hr 5 min 15 sec) 
Heartbeat CPU 0 instructions: 70000004 cycles: 68923611 heartbeat IPC: 0.348442 cumulative IPC: 0.355463 (Simulation time: 0 hr 6 min 43 sec) 
Heartbeat CPU 0 instructions: 80000003 cycles: 97088648 heartbeat IPC: 0.355051 cumulative IPC: 0.355326 (Simulation time: 0 hr 8 min 11 sec) 
Heartbeat CPU 0 instructions: 90000002 cycles: 124826848 heartbeat IPC: 0.360514 cumulative IPC: 0.356609 (Simulation time: 0 hr 9 min 40 sec) 
Heartbeat CPU 0 instructions: 100000000 cycles: 153430583 heartbeat IPC: 0.349605 cumulative IPC: 0.355186 (Simulation time: 0 hr 11 min 9 sec) 
Heartbeat CPU 0 instructions: 110000004 cycles: 182132091 heartbeat IPC: 0.348414 cumulative IPC: 0.354039 (Simulation time: 0 hr 12 min 38 sec) 
Heartbeat CPU 0 instructions: 120000000 cycles: 209824375 heartbeat IPC: 0.361112 cumulative IPC: 0.355032 (Simulation time: 0 hr 14 min 6 sec) 
Heartbeat CPU 0 instructions: 130000002 cycles: 238170682 heartbeat IPC: 0.35278 cumulative IPC: 0.354749 (Simulation time: 0 hr 15 min 35 sec) 
Heartbeat CPU 0 instructions: 140000004 cycles: 266324956 heartbeat IPC: 0.355186 cumulative IPC: 0.354798 (Simulation time: 0 hr 17 min 4 sec) 
Heartbeat CPU 0 instructions: 150000000 cycles: 295414253 heartbeat IPC: 0.343769 cumulative IPC: 0.353663 (Simulation time: 0 hr 18 min 34 sec) 
Simulation finished CPU 0 instructions: 100000004 cycles: 282755354 cumulative IPC: 0.353663 (Simulation time: 0 hr 18 min 34 sec) 

Simulation complete CPU 0 instructions: 100000004 cycles: 282755354 (Simulation time: 0 hr 18 min 34 sec) 


ChampSim completed all CPUs

Saving instructions large page distribution to /home/bsc/bsc018186/scratch/itp_asplos25_AE/dump/smt_srv85_ap_srv526_ap_1024i.pdst...
Saving data large page distribution to /home/bsc/bsc018186/scratch/itp_asplos25_AE/dump/smt_srv85_ap_srv526_ap_1024i.pdst...
=== Simulation ===
CPU 0 runs /gpfs/projects/bsc18/MN4/bsc18/romol/ChampSim/traces/qualcomm_srv/smt_srv85_ap_srv526_ap_1024i.champsimtrace.xz

Region of Interest Statistics

CPU 0 cumulative IPC: 0.353663 instructions: 100000004 cycles: 282755354
CPU 0 Branch Prediction Accuracy: 75.3321% MPKI: 44.42 Average ROB Occupancy at Mispredict: 10.5735
Branch type MPKI
BRANCH_DIRECT_JUMP: 1.46417
BRANCH_INDIRECT: 22.9756
BRANCH_CONDITIONAL: 12.7519
BRANCH_DIRECT_CALL: 2.66512
BRANCH_INDIRECT_CALL: 0.98894
BRANCH_RETURN: 3.57432

Instructions large pages: 0
Instructions small pages: 13681
Large page distribution for instructions: 0%

Data large pages: 0
Data small pages: 12256
Large page distribution for data: 0%

cpu0_L1I TOTAL       ACCESS:   39405586  HIT:   30082831  MISS:    9322755  iACCESS:   39405586  iHIT:   30082831  iMISS:    9322755  dACCESS:          0  dHIT:          0  dMISS:          0  itACCESS:          0  itHIT:          0  itMISS:          0  dtACCESS:          0  dtHIT:          0  dtMISS:          0
cpu0_L1I LOAD         ACCESS:   11736617  HIT:    9197515  MISS:    2539102  iACCESS:   11736617  iHIT:    9197515  iMISS:    2539102  dACCESS:          0  dHIT:          0  dMISS:          0  itACCESS:          0  itHIT:          0  itMISS:          0  dtACCESS:          0  dtHIT:          0  dtMISS:          0
cpu0_L1I RFO          ACCESS:          0  HIT:          0  MISS:          0  iACCESS:          0  iHIT:          0  iMISS:          0  dACCESS:          0  dHIT:          0  dMISS:          0  itACCESS:          0  itHIT:          0  itMISS:          0  dtACCESS:          0  dtHIT:          0  dtMISS:          0
cpu0_L1I PREFETCH     ACCESS:   27668969  HIT:   20885316  MISS:    6783653  iACCESS:   27668969  iHIT:   20885316  iMISS:    6783653  dACCESS:          0  dHIT:          0  dMISS:          0  itACCESS:          0  itHIT:          0  itMISS:          0  dtACCESS:          0  dtHIT:          0  dtMISS:          0
cpu0_L1I WRITE        ACCESS:          0  HIT:          0  MISS:          0  iACCESS:          0  iHIT:          0  iMISS:          0  dACCESS:          0  dHIT:          0  dMISS:          0  itACCESS:          0  itHIT:          0  itMISS:          0  dtACCESS:          0  dtHIT:          0  dtMISS:          0
cpu0_L1I TRANSLATION  ACCESS:          0  HIT:          0  MISS:          0  iACCESS:          0  iHIT:          0  iMISS:          0  dACCESS:          0  dHIT:          0  dMISS:          0  itACCESS:          0  itHIT:          0  itMISS:          0  dtACCESS:          0  dtHIT:          0  dtMISS:          0
cpu0_L1I PREFETCH  REQUESTED:   30244700  ISSUED:   30243223  CROSSED:          0  USEFUL:    2225927  USELESS:     776430
cpu0_L1I AVERAGE iMISS LATENCY: 24.4259 cycles
cpu0_L1I AVERAGE dMISS LATENCY: 0 cycles
cpu0_L1I AVERAGE itMISS LATENCY: 0 cycles
cpu0_L1I AVERAGE dtMISS LATENCY: 0 cycles
cpu0_L1I PAGE CROSSINGS (TLB HIT):         0 
cpu0_L1I PAGE CROSSINGS (TLB MISS):         0 
cpu0_L1I AVERAGE MISS LATENCY: 24.4259 cycles
cpu0_ITLB TOTAL       ACCESS:   33182553  HIT:   30897401  MISS:    2285152  iACCESS:   33182553  iHIT:   30897401  iMISS:    2285152  dACCESS:          0  dHIT:          0  dMISS:          0  itACCESS:          0  itHIT:          0  itMISS:          0  dtACCESS:          0  dtHIT:          0  dtMISS:          0
cpu0_ITLB LOAD         ACCESS:   33182553  HIT:   30897401  MISS:    2285152  iACCESS:   33182553  iHIT:   30897401  iMISS:    2285152  dACCESS:          0  dHIT:          0  dMISS:          0  itACCESS:          0  itHIT:          0  itMISS:          0  dtACCESS:          0  dtHIT:          0  dtMISS:          0
cpu0_ITLB RFO          ACCESS:          0  HIT:          0  MISS:          0  iACCESS:          0  iHIT:          0  iMISS:          0  dACCESS:          0  dHIT:          0  dMISS:          0  itACCESS:          0  itHIT:          0  itMISS:          0  dtACCESS:          0  dtHIT:          0  dtMISS:          0
cpu0_ITLB PREFETCH     ACCESS:          0  HIT:          0  MISS:          0  iACCESS:          0  iHIT:          0  iMISS:          0  dACCESS:          0  dHIT:          0  dMISS:          0  itACCESS:          0  itHIT:          0  itMISS:          0  dtACCESS:          0  dtHIT:          0  dtMISS:          0
cpu0_ITLB WRITE        ACCESS:          0  HIT:          0  MISS:          0  iACCESS:          0  iHIT:          0  iMISS:          0  dACCESS:          0  dHIT:          0  dMISS:          0  itACCESS:          0  itHIT:          0  itMISS:          0  dtACCESS:          0  dtHIT:          0  dtMISS:          0
cpu0_ITLB TRANSLATION  ACCESS:          0  HIT:          0  MISS:          0  iACCESS:          0  iHIT:          0  iMISS:          0  dACCESS:          0  dHIT:          0  dMISS:          0  itACCESS:          0  itHIT:          0  itMISS:          0  dtACCESS:          0  dtHIT:          0  dtMISS:          0
cpu0_ITLB PREFETCH  REQUESTED:          0  ISSUED:          0  CROSSED:          0  USEFUL:     399164  USELESS:      85099
cpu0_ITLB AVERAGE iMISS LATENCY: 8.27685 cycles
cpu0_ITLB AVERAGE dMISS LATENCY: 0 cycles
cpu0_ITLB AVERAGE itMISS LATENCY: 0 cycles
cpu0_ITLB AVERAGE dtMISS LATENCY: 0 cycles
cpu0_ITLB PAGE CROSSINGS (TLB HIT):         0 
cpu0_ITLB PAGE CROSSINGS (TLB MISS):         0 
cpu0_ITLB AVERAGE MISS LATENCY: 8.27685 cycles
cpu0_DTLB TOTAL       ACCESS:   28951536  HIT:   25302848  MISS:    3648688  iACCESS:          0  iHIT:          0  iMISS:          0  dACCESS:   28951536  dHIT:   25302848  dMISS:    3648688  itACCESS:          0  itHIT:          0  itMISS:          0  dtACCESS:          0  dtHIT:          0  dtMISS:          0
cpu0_DTLB LOAD         ACCESS:   28951536  HIT:   25302848  MISS:    3648688  iACCESS:          0  iHIT:          0  iMISS:          0  dACCESS:   28951536  dHIT:   25302848  dMISS:    3648688  itACCESS:          0  itHIT:          0  itMISS:          0  dtACCESS:          0  dtHIT:          0  dtMISS:          0
cpu0_DTLB RFO          ACCESS:          0  HIT:          0  MISS:          0  iACCESS:          0  iHIT:          0  iMISS:          0  dACCESS:          0  dHIT:          0  dMISS:          0  itACCESS:          0  itHIT:          0  itMISS:          0  dtACCESS:          0  dtHIT:          0  dtMISS:          0
cpu0_DTLB PREFETCH     ACCESS:          0  HIT:          0  MISS:          0  iACCESS:          0  iHIT:          0  iMISS:          0  dACCESS:          0  dHIT:          0  dMISS:          0  itACCESS:          0  itHIT:          0  itMISS:          0  dtACCESS:          0  dtHIT:          0  dtMISS:          0
cpu0_DTLB WRITE        ACCESS:          0  HIT:          0  MISS:          0  iACCESS:          0  iHIT:          0  iMISS:          0  dACCESS:          0  dHIT:          0  dMISS:          0  itACCESS:          0  itHIT:          0  itMISS:          0  dtACCESS:          0  dtHIT:          0  dtMISS:          0
cpu0_DTLB TRANSLATION  ACCESS:          0  HIT:          0  MISS:          0  iACCESS:          0  iHIT:          0  iMISS:          0  dACCESS:          0  dHIT:          0  dMISS:          0  itACCESS:          0  itHIT:          0  itMISS:          0  dtACCESS:          0  dtHIT:          0  dtMISS:          0
cpu0_DTLB PREFETCH  REQUESTED:          0  ISSUED:          0  CROSSED:          0  USEFUL:          0  USELESS:          0
cpu0_DTLB AVERAGE iMISS LATENCY: 0 cycles
cpu0_DTLB AVERAGE dMISS LATENCY: 17.7461 cycles
cpu0_DTLB AVERAGE itMISS LATENCY: 0 cycles
cpu0_DTLB AVERAGE dtMISS LATENCY: 0 cycles
cpu0_DTLB PAGE CROSSINGS (TLB HIT):         0 
cpu0_DTLB PAGE CROSSINGS (TLB MISS):         0 
cpu0_DTLB AVERAGE MISS LATENCY: 17.7461 cycles
cpu0_STLB TOTAL       ACCESS:    2612599  HIT:    2217568  MISS:     395031  iACCESS:     484275  iHIT:     361560  iMISS:     122715  dACCESS:    2128324  dHIT:    1856008  dMISS:     272316  itACCESS:          0  itHIT:          0  itMISS:          0  dtACCESS:          0  dtHIT:          0  dtMISS:          0
cpu0_STLB LOAD         ACCESS:    2612599  HIT:    2217568  MISS:     395031  iACCESS:     484275  iHIT:     361560  iMISS:     122715  dACCESS:    2128324  dHIT:    1856008  dMISS:     272316  itACCESS:          0  itHIT:          0  itMISS:          0  dtACCESS:          0  dtHIT:          0  dtMISS:          0
cpu0_STLB RFO          ACCESS:          0  HIT:          0  MISS:          0  iACCESS:          0  iHIT:          0  iMISS:          0  dACCESS:          0  dHIT:          0  dMISS:          0  itACCESS:          0  itHIT:          0  itMISS:          0  dtACCESS:          0  dtHIT:          0  dtMISS:          0
cpu0_STLB PREFETCH     ACCESS:          0  HIT:          0  MISS:          0  iACCESS:          0  iHIT:          0  iMISS:          0  dACCESS:          0  dHIT:          0  dMISS:          0  itACCESS:          0  itHIT:          0  itMISS:          0  dtACCESS:          0  dtHIT:          0  dtMISS:          0
cpu0_STLB WRITE        ACCESS:          0  HIT:          0  MISS:          0  iACCESS:          0  iHIT:          0  iMISS:          0  dACCESS:          0  dHIT:          0  dMISS:          0  itACCESS:          0  itHIT:          0  itMISS:          0  dtACCESS:          0  dtHIT:          0  dtMISS:          0
cpu0_STLB TRANSLATION  ACCESS:          0  HIT:          0  MISS:          0  iACCESS:          0  iHIT:          0  iMISS:          0  dACCESS:          0  dHIT:          0  dMISS:          0  itACCESS:          0  itHIT:          0  itMISS:          0  dtACCESS:          0  dtHIT:          0  dtMISS:          0
cpu0_STLB PREFETCH  REQUESTED:          0  ISSUED:          0  CROSSED:          0  USEFUL:          0  USELESS:          0
cpu0_STLB AVERAGE iMISS LATENCY: 38.0731 cycles
cpu0_STLB AVERAGE dMISS LATENCY: 120.598 cycles
cpu0_STLB AVERAGE itMISS LATENCY: 0 cycles
cpu0_STLB AVERAGE dtMISS LATENCY: 0 cycles
cpu0_STLB PAGE CROSSINGS (TLB HIT):         0 
cpu0_STLB PAGE CROSSINGS (TLB MISS):         0 
cpu0_STLB AVERAGE MISS LATENCY: 158.672 cycles
cpu0_L1D TOTAL       ACCESS:   44817905  HIT:   39310219  MISS:    5507686  iACCESS:          0  iHIT:          0  iMISS:          0  dACCESS:   44244978  dHIT:   39273975  dMISS:    4971003  itACCESS:     137852  itHIT:      14603  itMISS:     123249  dtACCESS:     435075  dtHIT:      21641  dtMISS:     413434
cpu0_L1D LOAD         ACCESS:   20138760  HIT:   17923702  MISS:    2215058  iACCESS:          0  iHIT:          0  iMISS:          0  dACCESS:   20138760  dHIT:   17923702  dMISS:    2215058  itACCESS:          0  itHIT:          0  itMISS:          0  dtACCESS:          0  dtHIT:          0  dtMISS:          0
cpu0_L1D RFO          ACCESS:          0  HIT:          0  MISS:          0  iACCESS:          0  iHIT:          0  iMISS:          0  dACCESS:          0  dHIT:          0  dMISS:          0  itACCESS:          0  itHIT:          0  itMISS:          0  dtACCESS:          0  dtHIT:          0  dtMISS:          0
cpu0_L1D PREFETCH     ACCESS:   13875876  HIT:   11714156  MISS:    2161720  iACCESS:          0  iHIT:          0  iMISS:          0  dACCESS:   13875876  dHIT:   11714156  dMISS:    2161720  itACCESS:          0  itHIT:          0  itMISS:          0  dtACCESS:          0  dtHIT:          0  dtMISS:          0
cpu0_L1D WRITE        ACCESS:   10230342  HIT:    9636117  MISS:     594225  iACCESS:          0  iHIT:          0  iMISS:          0  dACCESS:   10230342  dHIT:    9636117  dMISS:     594225  itACCESS:          0  itHIT:          0  itMISS:          0  dtACCESS:          0  dtHIT:          0  dtMISS:          0
cpu0_L1D TRANSLATION  ACCESS:     572927  HIT:      36244  MISS:     536683  iACCESS:          0  iHIT:          0  iMISS:          0  dACCESS:          0  dHIT:          0  dMISS:          0  itACCESS:     137852  itHIT:      14603  itMISS:     123249  dtACCESS:     435075  dtHIT:      21641  dtMISS:     413434
cpu0_L1D PREFETCH  REQUESTED:   20138760  ISSUED:   18520304  CROSSED:          0  USEFUL:     355345  USELESS:     944068
cpu0_L1D AVERAGE iMISS LATENCY: 0 cycles
cpu0_L1D AVERAGE dMISS LATENCY: 52.9908 cycles
cpu0_L1D AVERAGE itMISS LATENCY: 2.52212 cycles
cpu0_L1D AVERAGE dtMISS LATENCY: 7.63227 cycles
cpu0_L1D PAGE CROSSINGS (TLB HIT):         0 
cpu0_L1D PAGE CROSSINGS (TLB MISS):         0 
cpu0_L1D AVERAGE MISS LATENCY: 63.1452 cycles
cpu0_L2C TOTAL       ACCESS:    8672211  HIT:    1492174  MISS:    7180037  iACCESS:    3823654  iHIT:     777702  iMISS:    3045952  dACCESS:    4336258  dHIT:     515183  dMISS:    3821075  itACCESS:     122336  itHIT:      41696  itMISS:      80640  dtACCESS:     389963  dtHIT:     157593  dtMISS:     232370
cpu0_L2C LOAD         ACCESS:    2074610  HIT:     201733  MISS:    1872877  iACCESS:     855462  iHIT:     113697  iMISS:     741765  dACCESS:    1219148  dHIT:      88036  dMISS:    1131112  itACCESS:          0  itHIT:          0  itMISS:          0  dtACCESS:          0  dtHIT:          0  dtMISS:          0
cpu0_L2C RFO          ACCESS:     220834  HIT:      24824  MISS:     196010  iACCESS:          0  iHIT:          0  iMISS:          0  dACCESS:     220834  dHIT:      24824  dMISS:     196010  itACCESS:          0  itHIT:          0  itMISS:          0  dtACCESS:          0  dtHIT:          0  dtMISS:          0
cpu0_L2C PREFETCH     ACCESS:    5517708  HIT:     965808  MISS:    4551900  iACCESS:    2968192  iHIT:     664005  iMISS:    2304187  dACCESS:    2549516  dHIT:     301803  dMISS:    2247713  itACCESS:          0  itHIT:          0  itMISS:          0  dtACCESS:          0  dtHIT:          0  dtMISS:          0
cpu0_L2C WRITE        ACCESS:     346760  HIT:     100520  MISS:     246240  iACCESS:          0  iHIT:          0  iMISS:          0  dACCESS:     346760  dHIT:     100520  dMISS:     246240  itACCESS:          0  itHIT:          0  itMISS:          0  dtACCESS:          0  dtHIT:          0  dtMISS:          0
cpu0_L2C TRANSLATION  ACCESS:     512299  HIT:     199289  MISS:     313010  iACCESS:          0  iHIT:          0  iMISS:          0  dACCESS:          0  dHIT:          0  dMISS:          0  itACCESS:     122336  itHIT:      41696  itMISS:      80640  dtACCESS:     389963  dtHIT:     157593  dtMISS:     232370
cpu0_L2C PREFETCH  REQUESTED:    1487436  ISSUED:    1487433  CROSSED:          0  USEFUL:     399478  USELESS:     489857
cpu0_L2C AVERAGE iMISS LATENCY: 27.1337 cycles
cpu0_L2C AVERAGE dMISS LATENCY: 49.9437 cycles
cpu0_L2C AVERAGE itMISS LATENCY: 1.76964 cycles
cpu0_L2C AVERAGE dtMISS LATENCY: 5.33096 cycles
cpu0_L2C PAGE CROSSINGS (TLB HIT):         0 
cpu0_L2C PAGE CROSSINGS (TLB MISS):         0 
cpu0_L2C AVERAGE MISS LATENCY: 84.1779 cycles
LLC TOTAL       ACCESS:    7001276  HIT:    4228433  MISS:    2772843  iACCESS:    2953017  iHIT:    2078523  iMISS:     874494  dACCESS:    3735249  dHIT:    2077165  dMISS:    1658084  itACCESS:      80640  itHIT:      18033  itMISS:      62607  dtACCESS:     232370  dtHIT:      54712  dtMISS:     177658
LLC LOAD         ACCESS:    1866518  HIT:    1196266  MISS:     670252  iACCESS:     740268  iHIT:     556753  iMISS:     183515  dACCESS:    1126250  dHIT:     639513  dMISS:     486737  itACCESS:          0  itHIT:          0  itMISS:          0  dtACCESS:          0  dtHIT:          0  dtMISS:          0
LLC RFO          ACCESS:     195997  HIT:      98897  MISS:      97100  iACCESS:          0  iHIT:          0  iMISS:          0  dACCESS:     195997  dHIT:      98897  dMISS:      97100  itACCESS:          0  itHIT:          0  itMISS:          0  dtACCESS:          0  dtHIT:          0  dtMISS:          0
LLC PREFETCH     ACCESS:    4341386  HIT:    2582346  MISS:    1759040  iACCESS:    2212749  iHIT:    1521770  iMISS:     690979  dACCESS:    2128637  dHIT:    1060576  dMISS:    1068061  itACCESS:          0  itHIT:          0  itMISS:          0  dtACCESS:          0  dtHIT:          0  dtMISS:          0
LLC WRITE        ACCESS:     284365  HIT:     278179  MISS:       6186  iACCESS:          0  iHIT:          0  iMISS:          0  dACCESS:     284365  dHIT:     278179  dMISS:       6186  itACCESS:          0  itHIT:          0  itMISS:          0  dtACCESS:          0  dtHIT:          0  dtMISS:          0
LLC TRANSLATION  ACCESS:     313010  HIT:      72745  MISS:     240265  iACCESS:          0  iHIT:          0  iMISS:          0  dACCESS:          0  dHIT:          0  dMISS:          0  itACCESS:      80640  itHIT:      18033  itMISS:      62607  dtACCESS:     232370  dtHIT:      54712  dtMISS:     177658
LLC PREFETCH  REQUESTED:          0  ISSUED:          0  CROSSED:          0  USEFUL:          0  USELESS:          0
LLC AVERAGE iMISS LATENCY: 49.5729 cycles
LLC AVERAGE dMISS LATENCY: 105.706 cycles
LLC AVERAGE itMISS LATENCY: 4.00912 cycles
LLC AVERAGE dtMISS LATENCY: 12.1539 cycles
LLC PAGE CROSSINGS (TLB HIT):         0 
LLC PAGE CROSSINGS (TLB MISS):         0 
LLC AVERAGE MISS LATENCY: 171.442 cycles

PageTableWalker TOTAL       ACCESS:     147006  
PageTableWalker AVERAGE LATENCY: 5.98226 cycles
PageTableWalker TOTAL LATENCY: 879427 cycles

DRAM Statistics
Channel 0
 RQ ROW_BUFFER_HIT:     614129
  ROW_BUFFER_MISS:    2141703
 AVG DBUS CONGESTED CYCLE:    3.65144
 WQ ROW_BUFFER_HIT:      68123
  ROW_BUFFER_MISS:      66384  FULL:          0

