last_page:0x200000000000000
VMEM_RES_CAP:0x100000
PAGE_SIZE:4096
LOG2_PAGE_SIZE:12
LOG2_PAGE_TABLE_SIZE:9
page_table_levels:5
WARNING: physical memory size is smaller than virtual memory size
FDiP enabled with aggresivity 16

*** ChampSim Multicore Out-of-Order Simulator ***

Warmup Instructions: 50000000
Simulation Instructions: 100000000
Number of CPUs: 1
Small page size: 4096
Large page size: 2097152

CPU 0 Bimodal branch predictor
Basic BTB sets: 1024 ways: 8 indirect buffer size: 4096 RAS size: 64
Instruction page size distrubution: 0
Loading instruction page size distribution from /home/bsc/bsc018186/scratch/itp_asplos25_AE/dump/smt_srv12_ap_srv259_ap_1024i.pdst
Data page size distrubution: 0
Loading data page size distribution from /home/bsc/bsc018186/scratch/itp_asplos25_AE/dump/smt_srv12_ap_srv259_ap_1024i.pdst
cpu0_L2C IP-based stride prefetcher
cpu0_L2C is using PTP replacement policy:
	TLB_STRESS_THRESHOLD:0
	PTE_EVICTION_RATIO:0
cpu0_L1D next line prefetcher
cpu0_STLB using iTP with max lru@8
cpu0_STLB using iTP with instr@0 and data@2
Init sat counter with 3 bits (max:50).
cpu0_L1I next line prefetcher
Off-chip DRAM Size: 4 GiB Channels: 1 Width: 64-bit Data Rate: 3200 MT/s
Heartbeat CPU 0 instructions: 10000000 cycles: 2500356 heartbeat IPC: 3.99944 cumulative IPC: 3.99944 (Simulation time: 0 hr 0 min 48 sec) 
Heartbeat CPU 0 instructions: 20000001 cycles: 5000461 heartbeat IPC: 3.99984 cumulative IPC: 3.99964 (Simulation time: 0 hr 1 min 39 sec) 
Heartbeat CPU 0 instructions: 30000003 cycles: 7501022 heartbeat IPC: 3.99911 cumulative IPC: 3.99946 (Simulation time: 0 hr 2 min 30 sec) 
Heartbeat CPU 0 instructions: 40000000 cycles: 10001195 heartbeat IPC: 3.99973 cumulative IPC: 3.99953 (Simulation time: 0 hr 3 min 19 sec) 
Heartbeat CPU 0 instructions: 50000002 cycles: 12501403 heartbeat IPC: 3.99967 cumulative IPC: 3.99956 (Simulation time: 0 hr 4 min 10 sec) 
Warmup finished CPU 0 instructions: 50000002 cycles: 12501404 cumulative IPC: 3.99956 (Simulation time: 0 hr 4 min 10 sec) 

Warmup complete CPU 0 instructions: 50000002 cycles: 12501404 (Simulation time: 0 hr 4 min 10 sec) 

Heartbeat CPU 0 instructions: 60000000 cycles: 42051825 heartbeat IPC: 0.338405 cumulative IPC: 0.338405 (Simulation time: 0 hr 5 min 53 sec) 
Heartbeat CPU 0 instructions: 70000002 cycles: 72407369 heartbeat IPC: 0.32943 cumulative IPC: 0.333857 (Simulation time: 0 hr 7 min 34 sec) 
Heartbeat CPU 0 instructions: 80000001 cycles: 102241401 heartbeat IPC: 0.335188 cumulative IPC: 0.3343 (Simulation time: 0 hr 9 min 18 sec) 
Heartbeat CPU 0 instructions: 90000003 cycles: 128709807 heartbeat IPC: 0.377809 cumulative IPC: 0.34421 (Simulation time: 0 hr 10 min 55 sec) 
Heartbeat CPU 0 instructions: 100000000 cycles: 159149323 heartbeat IPC: 0.328521 cumulative IPC: 0.340953 (Simulation time: 0 hr 12 min 41 sec) 
Heartbeat CPU 0 instructions: 110000002 cycles: 188656470 heartbeat IPC: 0.338902 cumulative IPC: 0.340609 (Simulation time: 0 hr 14 min 23 sec) 
Heartbeat CPU 0 instructions: 120000004 cycles: 217357537 heartbeat IPC: 0.34842 cumulative IPC: 0.341704 (Simulation time: 0 hr 16 min 3 sec) 
Heartbeat CPU 0 instructions: 130000002 cycles: 246525040 heartbeat IPC: 0.342848 cumulative IPC: 0.341846 (Simulation time: 0 hr 17 min 47 sec) 
Heartbeat CPU 0 instructions: 140000000 cycles: 275981162 heartbeat IPC: 0.339488 cumulative IPC: 0.341583 (Simulation time: 0 hr 19 min 27 sec) 
Heartbeat CPU 0 instructions: 150000002 cycles: 305550342 heartbeat IPC: 0.338191 cumulative IPC: 0.34124 (Simulation time: 0 hr 21 min 11 sec) 
Simulation finished CPU 0 instructions: 100000000 cycles: 293048939 cumulative IPC: 0.34124 (Simulation time: 0 hr 21 min 11 sec) 

Simulation complete CPU 0 instructions: 100000000 cycles: 293048939 (Simulation time: 0 hr 21 min 11 sec) 


ChampSim completed all CPUs

Saving instructions large page distribution to /home/bsc/bsc018186/scratch/itp_asplos25_AE/dump/smt_srv12_ap_srv259_ap_1024i.pdst...
Saving data large page distribution to /home/bsc/bsc018186/scratch/itp_asplos25_AE/dump/smt_srv12_ap_srv259_ap_1024i.pdst...
=== Simulation ===
CPU 0 runs /gpfs/projects/bsc18/MN4/bsc18/romol/ChampSim/traces/qualcomm_srv/smt_srv12_ap_srv259_ap_1024i.champsimtrace.xz

Region of Interest Statistics

CPU 0 cumulative IPC: 0.34124 instructions: 100000000 cycles: 293048939
CPU 0 Branch Prediction Accuracy: 75.8292% MPKI: 43.7687 Average ROB Occupancy at Mispredict: 11.1769
Branch type MPKI
BRANCH_DIRECT_JUMP: 1.39259
BRANCH_INDIRECT: 22.9541
BRANCH_CONDITIONAL: 12.2272
BRANCH_DIRECT_CALL: 2.61102
BRANCH_INDIRECT_CALL: 1.11506
BRANCH_RETURN: 3.46885

Instructions large pages: 0
Instructions small pages: 11133
Large page distribution for instructions: 0%

Data large pages: 0
Data small pages: 9495
Large page distribution for data: 0%

cpu0_L1I TOTAL       ACCESS:   38888067  HIT:   30195434  MISS:    8692633  iACCESS:   38888067  iHIT:   30195434  iMISS:    8692633  dACCESS:          0  dHIT:          0  dMISS:          0  itACCESS:          0  itHIT:          0  itMISS:          0  dtACCESS:          0  dtHIT:          0  dtMISS:          0
cpu0_L1I LOAD         ACCESS:   11611622  HIT:    9230546  MISS:    2381076  iACCESS:   11611622  iHIT:    9230546  iMISS:    2381076  dACCESS:          0  dHIT:          0  dMISS:          0  itACCESS:          0  itHIT:          0  itMISS:          0  dtACCESS:          0  dtHIT:          0  dtMISS:          0
cpu0_L1I RFO          ACCESS:          0  HIT:          0  MISS:          0  iACCESS:          0  iHIT:          0  iMISS:          0  dACCESS:          0  dHIT:          0  dMISS:          0  itACCESS:          0  itHIT:          0  itMISS:          0  dtACCESS:          0  dtHIT:          0  dtMISS:          0
cpu0_L1I PREFETCH     ACCESS:   27276445  HIT:   20964888  MISS:    6311557  iACCESS:   27276445  iHIT:   20964888  iMISS:    6311557  dACCESS:          0  dHIT:          0  dMISS:          0  itACCESS:          0  itHIT:          0  itMISS:          0  dtACCESS:          0  dtHIT:          0  dtMISS:          0
cpu0_L1I WRITE        ACCESS:          0  HIT:          0  MISS:          0  iACCESS:          0  iHIT:          0  iMISS:          0  dACCESS:          0  dHIT:          0  dMISS:          0  itACCESS:          0  itHIT:          0  itMISS:          0  dtACCESS:          0  dtHIT:          0  dtMISS:          0
cpu0_L1I TRANSLATION  ACCESS:          0  HIT:          0  MISS:          0  iACCESS:          0  iHIT:          0  iMISS:          0  dACCESS:          0  dHIT:          0  dMISS:          0  itACCESS:          0  itHIT:          0  itMISS:          0  dtACCESS:          0  dtHIT:          0  dtMISS:          0
cpu0_L1I PREFETCH  REQUESTED:   30095325  ISSUED:   30095308  CROSSED:          0  USEFUL:    2202135  USELESS:     766896
cpu0_L1I AVERAGE iMISS LATENCY: 23.1838 cycles
cpu0_L1I AVERAGE dMISS LATENCY: 0 cycles
cpu0_L1I AVERAGE itMISS LATENCY: 0 cycles
cpu0_L1I AVERAGE dtMISS LATENCY: 0 cycles
cpu0_L1I PAGE CROSSINGS (TLB HIT):         0 
cpu0_L1I PAGE CROSSINGS (TLB MISS):         0 
cpu0_L1I AVERAGE MISS LATENCY: 23.1838 cycles
cpu0_ITLB TOTAL       ACCESS:   32909722  HIT:   30662295  MISS:    2247427  iACCESS:   32909722  iHIT:   30662295  iMISS:    2247427  dACCESS:          0  dHIT:          0  dMISS:          0  itACCESS:          0  itHIT:          0  itMISS:          0  dtACCESS:          0  dtHIT:          0  dtMISS:          0
cpu0_ITLB LOAD         ACCESS:   32909722  HIT:   30662295  MISS:    2247427  iACCESS:   32909722  iHIT:   30662295  iMISS:    2247427  dACCESS:          0  dHIT:          0  dMISS:          0  itACCESS:          0  itHIT:          0  itMISS:          0  dtACCESS:          0  dtHIT:          0  dtMISS:          0
cpu0_ITLB RFO          ACCESS:          0  HIT:          0  MISS:          0  iACCESS:          0  iHIT:          0  iMISS:          0  dACCESS:          0  dHIT:          0  dMISS:          0  itACCESS:          0  itHIT:          0  itMISS:          0  dtACCESS:          0  dtHIT:          0  dtMISS:          0
cpu0_ITLB PREFETCH     ACCESS:          0  HIT:          0  MISS:          0  iACCESS:          0  iHIT:          0  iMISS:          0  dACCESS:          0  dHIT:          0  dMISS:          0  itACCESS:          0  itHIT:          0  itMISS:          0  dtACCESS:          0  dtHIT:          0  dtMISS:          0
cpu0_ITLB WRITE        ACCESS:          0  HIT:          0  MISS:          0  iACCESS:          0  iHIT:          0  iMISS:          0  dACCESS:          0  dHIT:          0  dMISS:          0  itACCESS:          0  itHIT:          0  itMISS:          0  dtACCESS:          0  dtHIT:          0  dtMISS:          0
cpu0_ITLB TRANSLATION  ACCESS:          0  HIT:          0  MISS:          0  iACCESS:          0  iHIT:          0  iMISS:          0  dACCESS:          0  dHIT:          0  dMISS:          0  itACCESS:          0  itHIT:          0  itMISS:          0  dtACCESS:          0  dtHIT:          0  dtMISS:          0
cpu0_ITLB PREFETCH  REQUESTED:          0  ISSUED:          0  CROSSED:          0  USEFUL:     389315  USELESS:      81744
cpu0_ITLB AVERAGE iMISS LATENCY: 6.34265 cycles
cpu0_ITLB AVERAGE dMISS LATENCY: 0 cycles
cpu0_ITLB AVERAGE itMISS LATENCY: 0 cycles
cpu0_ITLB AVERAGE dtMISS LATENCY: 0 cycles
cpu0_ITLB PAGE CROSSINGS (TLB HIT):         0 
cpu0_ITLB PAGE CROSSINGS (TLB MISS):         0 
cpu0_ITLB AVERAGE MISS LATENCY: 6.34265 cycles
cpu0_DTLB TOTAL       ACCESS:   28899430  HIT:   25332314  MISS:    3567116  iACCESS:          0  iHIT:          0  iMISS:          0  dACCESS:   28899430  dHIT:   25332314  dMISS:    3567116  itACCESS:          0  itHIT:          0  itMISS:          0  dtACCESS:          0  dtHIT:          0  dtMISS:          0
cpu0_DTLB LOAD         ACCESS:   28899430  HIT:   25332314  MISS:    3567116  iACCESS:          0  iHIT:          0  iMISS:          0  dACCESS:   28899430  dHIT:   25332314  dMISS:    3567116  itACCESS:          0  itHIT:          0  itMISS:          0  dtACCESS:          0  dtHIT:          0  dtMISS:          0
cpu0_DTLB RFO          ACCESS:          0  HIT:          0  MISS:          0  iACCESS:          0  iHIT:          0  iMISS:          0  dACCESS:          0  dHIT:          0  dMISS:          0  itACCESS:          0  itHIT:          0  itMISS:          0  dtACCESS:          0  dtHIT:          0  dtMISS:          0
cpu0_DTLB PREFETCH     ACCESS:          0  HIT:          0  MISS:          0  iACCESS:          0  iHIT:          0  iMISS:          0  dACCESS:          0  dHIT:          0  dMISS:          0  itACCESS:          0  itHIT:          0  itMISS:          0  dtACCESS:          0  dtHIT:          0  dtMISS:          0
cpu0_DTLB WRITE        ACCESS:          0  HIT:          0  MISS:          0  iACCESS:          0  iHIT:          0  iMISS:          0  dACCESS:          0  dHIT:          0  dMISS:          0  itACCESS:          0  itHIT:          0  itMISS:          0  dtACCESS:          0  dtHIT:          0  dtMISS:          0
cpu0_DTLB TRANSLATION  ACCESS:          0  HIT:          0  MISS:          0  iACCESS:          0  iHIT:          0  iMISS:          0  dACCESS:          0  dHIT:          0  dMISS:          0  itACCESS:          0  itHIT:          0  itMISS:          0  dtACCESS:          0  dtHIT:          0  dtMISS:          0
cpu0_DTLB PREFETCH  REQUESTED:          0  ISSUED:          0  CROSSED:          0  USEFUL:          0  USELESS:          0
cpu0_DTLB AVERAGE iMISS LATENCY: 0 cycles
cpu0_DTLB AVERAGE dMISS LATENCY: 28.1924 cycles
cpu0_DTLB AVERAGE itMISS LATENCY: 0 cycles
cpu0_DTLB AVERAGE dtMISS LATENCY: 0 cycles
cpu0_DTLB PAGE CROSSINGS (TLB HIT):         0 
cpu0_DTLB PAGE CROSSINGS (TLB MISS):         0 
cpu0_DTLB AVERAGE MISS LATENCY: 28.1924 cycles
cpu0_STLB TOTAL       ACCESS:    2544865  HIT:    2182959  MISS:     361906  iACCESS:     471067  iHIT:     419048  iMISS:      52019  dACCESS:    2073798  dHIT:    1763911  dMISS:     309887  itACCESS:          0  itHIT:          0  itMISS:          0  dtACCESS:          0  dtHIT:          0  dtMISS:          0
cpu0_STLB LOAD         ACCESS:    2544865  HIT:    2182959  MISS:     361906  iACCESS:     471067  iHIT:     419048  iMISS:      52019  dACCESS:    2073798  dHIT:    1763911  dMISS:     309887  itACCESS:          0  itHIT:          0  itMISS:          0  dtACCESS:          0  dtHIT:          0  dtMISS:          0
cpu0_STLB RFO          ACCESS:          0  HIT:          0  MISS:          0  iACCESS:          0  iHIT:          0  iMISS:          0  dACCESS:          0  dHIT:          0  dMISS:          0  itACCESS:          0  itHIT:          0  itMISS:          0  dtACCESS:          0  dtHIT:          0  dtMISS:          0
cpu0_STLB PREFETCH     ACCESS:          0  HIT:          0  MISS:          0  iACCESS:          0  iHIT:          0  iMISS:          0  dACCESS:          0  dHIT:          0  dMISS:          0  itACCESS:          0  itHIT:          0  itMISS:          0  dtACCESS:          0  dtHIT:          0  dtMISS:          0
cpu0_STLB WRITE        ACCESS:          0  HIT:          0  MISS:          0  iACCESS:          0  iHIT:          0  iMISS:          0  dACCESS:          0  dHIT:          0  dMISS:          0  itACCESS:          0  itHIT:          0  itMISS:          0  dtACCESS:          0  dtHIT:          0  dtMISS:          0
cpu0_STLB TRANSLATION  ACCESS:          0  HIT:          0  MISS:          0  iACCESS:          0  iHIT:          0  iMISS:          0  dACCESS:          0  dHIT:          0  dMISS:          0  itACCESS:          0  itHIT:          0  itMISS:          0  dtACCESS:          0  dtHIT:          0  dtMISS:          0
cpu0_STLB PREFETCH  REQUESTED:          0  ISSUED:          0  CROSSED:          0  USEFUL:          0  USELESS:          0
cpu0_STLB AVERAGE iMISS LATENCY: 29.1696 cycles
cpu0_STLB AVERAGE dMISS LATENCY: 231.602 cycles
cpu0_STLB AVERAGE itMISS LATENCY: 0 cycles
cpu0_STLB AVERAGE dtMISS LATENCY: 0 cycles
cpu0_STLB PAGE CROSSINGS (TLB HIT):         0 
cpu0_STLB PAGE CROSSINGS (TLB MISS):         0 
cpu0_STLB AVERAGE MISS LATENCY: 260.772 cycles
cpu0_L1D TOTAL       ACCESS:   44974733  HIT:   39170779  MISS:    5803954  iACCESS:          0  iHIT:          0  iMISS:          0  dACCESS:   44407008  dHIT:   39143288  dMISS:    5263720  itACCESS:      62661  itHIT:       4388  itMISS:      58273  dtACCESS:     505064  dtHIT:      23103  dtMISS:     481961
cpu0_L1D LOAD         ACCESS:   20330122  HIT:   17970483  MISS:    2359639  iACCESS:          0  iHIT:          0  iMISS:          0  dACCESS:   20330122  dHIT:   17970483  dMISS:    2359639  itACCESS:          0  itHIT:          0  itMISS:          0  dtACCESS:          0  dtHIT:          0  dtMISS:          0
cpu0_L1D RFO          ACCESS:          0  HIT:          0  MISS:          0  iACCESS:          0  iHIT:          0  iMISS:          0  dACCESS:          0  dHIT:          0  dMISS:          0  itACCESS:          0  itHIT:          0  itMISS:          0  dtACCESS:          0  dtHIT:          0  dtMISS:          0
cpu0_L1D PREFETCH     ACCESS:   13935008  HIT:   11607128  MISS:    2327880  iACCESS:          0  iHIT:          0  iMISS:          0  dACCESS:   13935008  dHIT:   11607128  dMISS:    2327880  itACCESS:          0  itHIT:          0  itMISS:          0  dtACCESS:          0  dtHIT:          0  dtMISS:          0
cpu0_L1D WRITE        ACCESS:   10141878  HIT:    9565677  MISS:     576201  iACCESS:          0  iHIT:          0  iMISS:          0  dACCESS:   10141878  dHIT:    9565677  dMISS:     576201  itACCESS:          0  itHIT:          0  itMISS:          0  dtACCESS:          0  dtHIT:          0  dtMISS:          0
cpu0_L1D TRANSLATION  ACCESS:     567725  HIT:      27491  MISS:     540234  iACCESS:          0  iHIT:          0  iMISS:          0  dACCESS:          0  dHIT:          0  dMISS:          0  itACCESS:      62661  itHIT:       4388  itMISS:      58273  dtACCESS:     505064  dtHIT:      23103  dtMISS:     481961
cpu0_L1D PREFETCH  REQUESTED:   20330122  ISSUED:   18495399  CROSSED:          0  USEFUL:     357370  USELESS:     927841
cpu0_L1D AVERAGE iMISS LATENCY: 0 cycles
cpu0_L1D AVERAGE dMISS LATENCY: 49.635 cycles
cpu0_L1D AVERAGE itMISS LATENCY: 1.70659 cycles
cpu0_L1D AVERAGE dtMISS LATENCY: 13.5244 cycles
cpu0_L1D PAGE CROSSINGS (TLB HIT):         0 
cpu0_L1D PAGE CROSSINGS (TLB MISS):         0 
cpu0_L1D AVERAGE MISS LATENCY: 64.866 cycles
cpu0_L2C TOTAL       ACCESS:    8602919  HIT:    4178112  MISS:    4424807  iACCESS:    3781013  iHIT:    2299741  iMISS:    1481272  dACCESS:    4318882  dHIT:    1814637  dMISS:    2504245  itACCESS:      57966  itHIT:       7664  itMISS:      50302  dtACCESS:     445058  dtHIT:      56070  dtMISS:     388988
cpu0_L2C LOAD         ACCESS:    2055825  HIT:    1005946  MISS:    1049879  iACCESS:     849718  iHIT:     542260  iMISS:     307458  dACCESS:    1206107  dHIT:     463686  dMISS:     742421  itACCESS:          0  itHIT:          0  itMISS:          0  dtACCESS:          0  dtHIT:          0  dtMISS:          0
cpu0_L2C RFO          ACCESS:     214928  HIT:      80618  MISS:     134310  iACCESS:          0  iHIT:          0  iMISS:          0  dACCESS:     214928  dHIT:      80618  dMISS:     134310  itACCESS:          0  itHIT:          0  itMISS:          0  dtACCESS:          0  dtHIT:          0  dtMISS:          0
cpu0_L2C PREFETCH     ACCESS:    5492548  HIT:    2695194  MISS:    2797354  iACCESS:    2931295  iHIT:    1757481  iMISS:    1173814  dACCESS:    2561253  dHIT:     937713  dMISS:    1623540  itACCESS:          0  itHIT:          0  itMISS:          0  dtACCESS:          0  dtHIT:          0  dtMISS:          0
cpu0_L2C WRITE        ACCESS:     336594  HIT:     332620  MISS:       3974  iACCESS:          0  iHIT:          0  iMISS:          0  dACCESS:     336594  dHIT:     332620  dMISS:       3974  itACCESS:          0  itHIT:          0  itMISS:          0  dtACCESS:          0  dtHIT:          0  dtMISS:          0
cpu0_L2C TRANSLATION  ACCESS:     503024  HIT:      63734  MISS:     439290  iACCESS:          0  iHIT:          0  iMISS:          0  dACCESS:          0  dHIT:          0  dMISS:          0  itACCESS:      57966  itHIT:       7664  itMISS:      50302  dtACCESS:     445058  dtHIT:      56070  dtMISS:     388988
cpu0_L2C PREFETCH  REQUESTED:    1532316  ISSUED:    1532314  CROSSED:          0  USEFUL:     361252  USELESS:     314547
cpu0_L2C AVERAGE iMISS LATENCY: 38.2186 cycles
cpu0_L2C AVERAGE dMISS LATENCY: 79.2206 cycles
cpu0_L2C AVERAGE itMISS LATENCY: 2.10875 cycles
cpu0_L2C AVERAGE dtMISS LATENCY: 16.7406 cycles
cpu0_L2C PAGE CROSSINGS (TLB HIT):         0 
cpu0_L2C PAGE CROSSINGS (TLB MISS):         0 
cpu0_L2C AVERAGE MISS LATENCY: 136.289 cycles
LLC TOTAL       ACCESS:    4429415  HIT:    1431210  MISS:    2998205  iACCESS:    1397743  iHIT:     500743  iMISS:     897000  dACCESS:    2592382  dHIT:     878842  dMISS:    1713540  itACCESS:      50302  itHIT:       3461  itMISS:      46841  dtACCESS:     388988  dtHIT:      48164  dtMISS:     340824
LLC LOAD         ACCESS:    1042495  HIT:     339566  MISS:     702929  iACCESS:     306389  iHIT:     116235  iMISS:     190154  dACCESS:     736106  dHIT:     223331  dMISS:     512775  itACCESS:          0  itHIT:          0  itMISS:          0  dtACCESS:          0  dtHIT:          0  dtMISS:          0
LLC RFO          ACCESS:     134295  HIT:      40626  MISS:      93669  iACCESS:          0  iHIT:          0  iMISS:          0  dACCESS:     134295  dHIT:      40626  dMISS:      93669  itACCESS:          0  itHIT:          0  itMISS:          0  dtACCESS:          0  dtHIT:          0  dtMISS:          0
LLC PREFETCH     ACCESS:    2606480  HIT:     802486  MISS:    1803994  iACCESS:    1091354  iHIT:     384508  iMISS:     706846  dACCESS:    1515126  dHIT:     417978  dMISS:    1097148  itACCESS:          0  itHIT:          0  itMISS:          0  dtACCESS:          0  dtHIT:          0  dtMISS:          0
LLC WRITE        ACCESS:     206855  HIT:     196907  MISS:       9948  iACCESS:          0  iHIT:          0  iMISS:          0  dACCESS:     206855  dHIT:     196907  dMISS:       9948  itACCESS:          0  itHIT:          0  itMISS:          0  dtACCESS:          0  dtHIT:          0  dtMISS:          0
LLC TRANSLATION  ACCESS:     439290  HIT:      51625  MISS:     387665  iACCESS:          0  iHIT:          0  iMISS:          0  dACCESS:          0  dHIT:          0  dMISS:          0  itACCESS:      50302  itHIT:       3461  itMISS:      46841  dtACCESS:     388988  dtHIT:      48164  dtMISS:     340824
LLC PREFETCH  REQUESTED:          0  ISSUED:          0  CROSSED:          0  USEFUL:          0  USELESS:          0
LLC AVERAGE iMISS LATENCY: 47.2465 cycles
LLC AVERAGE dMISS LATENCY: 102.164 cycles
LLC AVERAGE itMISS LATENCY: 2.77936 cycles
LLC AVERAGE dtMISS LATENCY: 22.1422 cycles
LLC PAGE CROSSINGS (TLB HIT):         0 
LLC PAGE CROSSINGS (TLB MISS):         0 
LLC AVERAGE MISS LATENCY: 174.332 cycles

PageTableWalker TOTAL       ACCESS:     171322  
PageTableWalker AVERAGE LATENCY: 6.80669 cycles
PageTableWalker TOTAL LATENCY: 1166135 cycles

DRAM Statistics
Channel 0
 RQ ROW_BUFFER_HIT:     639878
  ROW_BUFFER_MISS:    2328745
 AVG DBUS CONGESTED CYCLE:     3.6492
 WQ ROW_BUFFER_HIT:      66176
  ROW_BUFFER_MISS:      53998  FULL:          0

