last_page:0x200000000000000
VMEM_RES_CAP:0x100000
PAGE_SIZE:4096
LOG2_PAGE_SIZE:12
LOG2_PAGE_TABLE_SIZE:9
page_table_levels:5
WARNING: physical memory size is smaller than virtual memory size
FDiP enabled with aggresivity 16

*** ChampSim Multicore Out-of-Order Simulator ***

Warmup Instructions: 50000000
Simulation Instructions: 100000000
Number of CPUs: 1
Small page size: 4096
Large page size: 2097152

CPU 0 Bimodal branch predictor
Basic BTB sets: 1024 ways: 8 indirect buffer size: 4096 RAS size: 64
Instruction page size distrubution: 0
Loading instruction page size distribution from /home/bsc/bsc018186/scratch/itp_asplos25_AE/dump/smt_srv207_ap_srv73_ap_1024i.pdst
Data page size distrubution: 0
Loading data page size distribution from /home/bsc/bsc018186/scratch/itp_asplos25_AE/dump/smt_srv207_ap_srv73_ap_1024i.pdst
cpu0_L2C IP-based stride prefetcher
cpu0_L2C is using PTP replacement policy:
	TLB_STRESS_THRESHOLD:0
	PTE_EVICTION_RATIO:0
cpu0_L1D next line prefetcher
cpu0_L1I next line prefetcher
Off-chip DRAM Size: 4 GiB Channels: 1 Width: 64-bit Data Rate: 3200 MT/s
Heartbeat CPU 0 instructions: 10000001 cycles: 2501046 heartbeat IPC: 3.99833 cumulative IPC: 3.99833 (Simulation time: 0 hr 0 min 45 sec) 
Heartbeat CPU 0 instructions: 20000003 cycles: 5001702 heartbeat IPC: 3.99896 cumulative IPC: 3.99864 (Simulation time: 0 hr 1 min 31 sec) 
Heartbeat CPU 0 instructions: 30000002 cycles: 7502334 heartbeat IPC: 3.99899 cumulative IPC: 3.99876 (Simulation time: 0 hr 2 min 18 sec) 
Heartbeat CPU 0 instructions: 40000003 cycles: 10002756 heartbeat IPC: 3.99933 cumulative IPC: 3.9989 (Simulation time: 0 hr 3 min 6 sec) 
Heartbeat CPU 0 instructions: 50000001 cycles: 12504263 heartbeat IPC: 3.99759 cumulative IPC: 3.99864 (Simulation time: 0 hr 3 min 54 sec) 
Warmup finished CPU 0 instructions: 50000001 cycles: 12504264 cumulative IPC: 3.99864 (Simulation time: 0 hr 3 min 54 sec) 

Warmup complete CPU 0 instructions: 50000001 cycles: 12504264 (Simulation time: 0 hr 3 min 54 sec) 

Heartbeat CPU 0 instructions: 60000004 cycles: 37157976 heartbeat IPC: 0.405619 cumulative IPC: 0.405619 (Simulation time: 0 hr 5 min 19 sec) 
Heartbeat CPU 0 instructions: 70000003 cycles: 59581291 heartbeat IPC: 0.445965 cumulative IPC: 0.424836 (Simulation time: 0 hr 6 min 43 sec) 
Heartbeat CPU 0 instructions: 80000002 cycles: 84487028 heartbeat IPC: 0.401514 cumulative IPC: 0.416767 (Simulation time: 0 hr 8 min 11 sec) 
Heartbeat CPU 0 instructions: 90000003 cycles: 116339253 heartbeat IPC: 0.31395 cumulative IPC: 0.385227 (Simulation time: 0 hr 9 min 51 sec) 
Heartbeat CPU 0 instructions: 100000003 cycles: 147895201 heartbeat IPC: 0.316898 cumulative IPC: 0.369301 (Simulation time: 0 hr 11 min 31 sec) 
Heartbeat CPU 0 instructions: 110000002 cycles: 179583092 heartbeat IPC: 0.315578 cumulative IPC: 0.359112 (Simulation time: 0 hr 13 min 12 sec) 
Heartbeat CPU 0 instructions: 120000001 cycles: 209647968 heartbeat IPC: 0.332615 cumulative IPC: 0.355071 (Simulation time: 0 hr 14 min 51 sec) 
Heartbeat CPU 0 instructions: 130000000 cycles: 226371773 heartbeat IPC: 0.59795 cumulative IPC: 0.374064 (Simulation time: 0 hr 16 min 13 sec) 
Heartbeat CPU 0 instructions: 140000002 cycles: 248651950 heartbeat IPC: 0.44883 cumulative IPC: 0.381118 (Simulation time: 0 hr 17 min 33 sec) 
Heartbeat CPU 0 instructions: 150000000 cycles: 279199633 heartbeat IPC: 0.327358 cumulative IPC: 0.37496 (Simulation time: 0 hr 19 min 1 sec) 
Simulation finished CPU 0 instructions: 100000004 cycles: 266695371 cumulative IPC: 0.37496 (Simulation time: 0 hr 19 min 1 sec) 

Simulation complete CPU 0 instructions: 100000004 cycles: 266695371 (Simulation time: 0 hr 19 min 1 sec) 


ChampSim completed all CPUs

Saving instructions large page distribution to /home/bsc/bsc018186/scratch/itp_asplos25_AE/dump/smt_srv207_ap_srv73_ap_1024i.pdst...
Saving data large page distribution to /home/bsc/bsc018186/scratch/itp_asplos25_AE/dump/smt_srv207_ap_srv73_ap_1024i.pdst...
=== Simulation ===
CPU 0 runs /gpfs/projects/bsc18/MN4/bsc18/romol/ChampSim/traces/qualcomm_srv/smt_srv207_ap_srv73_ap_1024i.champsimtrace.xz

Region of Interest Statistics

CPU 0 cumulative IPC: 0.37496 instructions: 100000004 cycles: 266695371
CPU 0 Branch Prediction Accuracy: 77.5974% MPKI: 43.423 Average ROB Occupancy at Mispredict: 11.1056
Branch type MPKI
BRANCH_DIRECT_JUMP: 1.11372
BRANCH_INDIRECT: 23.5844
BRANCH_CONDITIONAL: 12.0181
BRANCH_DIRECT_CALL: 2.04424
BRANCH_INDIRECT_CALL: 1.68306
BRANCH_RETURN: 2.97949

Instructions large pages: 0
Instructions small pages: 12734
Large page distribution for instructions: 0%

Data large pages: 0
Data small pages: 10893
Large page distribution for data: 0%

cpu0_L1I TOTAL       ACCESS:   37906151  HIT:   30826082  MISS:    7080069  iACCESS:   37906151  iHIT:   30826082  iMISS:    7080069  dACCESS:          0  dHIT:          0  dMISS:          0  itACCESS:          0  itHIT:          0  itMISS:          0  dtACCESS:          0  dtHIT:          0  dtMISS:          0
cpu0_L1I LOAD         ACCESS:   10371292  HIT:    8421809  MISS:    1949483  iACCESS:   10371292  iHIT:    8421809  iMISS:    1949483  dACCESS:          0  dHIT:          0  dMISS:          0  itACCESS:          0  itHIT:          0  itMISS:          0  dtACCESS:          0  dtHIT:          0  dtMISS:          0
cpu0_L1I RFO          ACCESS:          0  HIT:          0  MISS:          0  iACCESS:          0  iHIT:          0  iMISS:          0  dACCESS:          0  dHIT:          0  dMISS:          0  itACCESS:          0  itHIT:          0  itMISS:          0  dtACCESS:          0  dtHIT:          0  dtMISS:          0
cpu0_L1I PREFETCH     ACCESS:   27534859  HIT:   22404273  MISS:    5130586  iACCESS:   27534859  iHIT:   22404273  iMISS:    5130586  dACCESS:          0  dHIT:          0  dMISS:          0  itACCESS:          0  itHIT:          0  itMISS:          0  dtACCESS:          0  dtHIT:          0  dtMISS:          0
cpu0_L1I WRITE        ACCESS:          0  HIT:          0  MISS:          0  iACCESS:          0  iHIT:          0  iMISS:          0  dACCESS:          0  dHIT:          0  dMISS:          0  itACCESS:          0  itHIT:          0  itMISS:          0  dtACCESS:          0  dtHIT:          0  dtMISS:          0
cpu0_L1I TRANSLATION  ACCESS:          0  HIT:          0  MISS:          0  iACCESS:          0  iHIT:          0  iMISS:          0  dACCESS:          0  dHIT:          0  dMISS:          0  itACCESS:          0  itHIT:          0  itMISS:          0  dtACCESS:          0  dtHIT:          0  dtMISS:          0
cpu0_L1I PREFETCH  REQUESTED:   29880501  ISSUED:   29880501  CROSSED:          0  USEFUL:    1779713  USELESS:     667041
cpu0_L1I AVERAGE iMISS LATENCY: 24.4921 cycles
cpu0_L1I AVERAGE dMISS LATENCY: 0 cycles
cpu0_L1I AVERAGE itMISS LATENCY: 0 cycles
cpu0_L1I AVERAGE dtMISS LATENCY: 0 cycles
cpu0_L1I PAGE CROSSINGS (TLB HIT):         0 
cpu0_L1I PAGE CROSSINGS (TLB MISS):         0 
cpu0_L1I AVERAGE MISS LATENCY: 24.4921 cycles
cpu0_ITLB TOTAL       ACCESS:   32165778  HIT:   30299491  MISS:    1866287  iACCESS:   32165778  iHIT:   30299491  iMISS:    1866287  dACCESS:          0  dHIT:          0  dMISS:          0  itACCESS:          0  itHIT:          0  itMISS:          0  dtACCESS:          0  dtHIT:          0  dtMISS:          0
cpu0_ITLB LOAD         ACCESS:   32165778  HIT:   30299491  MISS:    1866287  iACCESS:   32165778  iHIT:   30299491  iMISS:    1866287  dACCESS:          0  dHIT:          0  dMISS:          0  itACCESS:          0  itHIT:          0  itMISS:          0  dtACCESS:          0  dtHIT:          0  dtMISS:          0
cpu0_ITLB RFO          ACCESS:          0  HIT:          0  MISS:          0  iACCESS:          0  iHIT:          0  iMISS:          0  dACCESS:          0  dHIT:          0  dMISS:          0  itACCESS:          0  itHIT:          0  itMISS:          0  dtACCESS:          0  dtHIT:          0  dtMISS:          0
cpu0_ITLB PREFETCH     ACCESS:          0  HIT:          0  MISS:          0  iACCESS:          0  iHIT:          0  iMISS:          0  dACCESS:          0  dHIT:          0  dMISS:          0  itACCESS:          0  itHIT:          0  itMISS:          0  dtACCESS:          0  dtHIT:          0  dtMISS:          0
cpu0_ITLB WRITE        ACCESS:          0  HIT:          0  MISS:          0  iACCESS:          0  iHIT:          0  iMISS:          0  dACCESS:          0  dHIT:          0  dMISS:          0  itACCESS:          0  itHIT:          0  itMISS:          0  dtACCESS:          0  dtHIT:          0  dtMISS:          0
cpu0_ITLB TRANSLATION  ACCESS:          0  HIT:          0  MISS:          0  iACCESS:          0  iHIT:          0  iMISS:          0  dACCESS:          0  dHIT:          0  dMISS:          0  itACCESS:          0  itHIT:          0  itMISS:          0  dtACCESS:          0  dtHIT:          0  dtMISS:          0
cpu0_ITLB PREFETCH  REQUESTED:          0  ISSUED:          0  CROSSED:          0  USEFUL:     330223  USELESS:      70090
cpu0_ITLB AVERAGE iMISS LATENCY: 10.4642 cycles
cpu0_ITLB AVERAGE dMISS LATENCY: 0 cycles
cpu0_ITLB AVERAGE itMISS LATENCY: 0 cycles
cpu0_ITLB AVERAGE dtMISS LATENCY: 0 cycles
cpu0_ITLB PAGE CROSSINGS (TLB HIT):         0 
cpu0_ITLB PAGE CROSSINGS (TLB MISS):         0 
cpu0_ITLB AVERAGE MISS LATENCY: 10.4642 cycles
cpu0_DTLB TOTAL       ACCESS:   31601195  HIT:   26256410  MISS:    5344785  iACCESS:          0  iHIT:          0  iMISS:          0  dACCESS:   31601195  dHIT:   26256410  dMISS:    5344785  itACCESS:          0  itHIT:          0  itMISS:          0  dtACCESS:          0  dtHIT:          0  dtMISS:          0
cpu0_DTLB LOAD         ACCESS:   31601195  HIT:   26256410  MISS:    5344785  iACCESS:          0  iHIT:          0  iMISS:          0  dACCESS:   31601195  dHIT:   26256410  dMISS:    5344785  itACCESS:          0  itHIT:          0  itMISS:          0  dtACCESS:          0  dtHIT:          0  dtMISS:          0
cpu0_DTLB RFO          ACCESS:          0  HIT:          0  MISS:          0  iACCESS:          0  iHIT:          0  iMISS:          0  dACCESS:          0  dHIT:          0  dMISS:          0  itACCESS:          0  itHIT:          0  itMISS:          0  dtACCESS:          0  dtHIT:          0  dtMISS:          0
cpu0_DTLB PREFETCH     ACCESS:          0  HIT:          0  MISS:          0  iACCESS:          0  iHIT:          0  iMISS:          0  dACCESS:          0  dHIT:          0  dMISS:          0  itACCESS:          0  itHIT:          0  itMISS:          0  dtACCESS:          0  dtHIT:          0  dtMISS:          0
cpu0_DTLB WRITE        ACCESS:          0  HIT:          0  MISS:          0  iACCESS:          0  iHIT:          0  iMISS:          0  dACCESS:          0  dHIT:          0  dMISS:          0  itACCESS:          0  itHIT:          0  itMISS:          0  dtACCESS:          0  dtHIT:          0  dtMISS:          0
cpu0_DTLB TRANSLATION  ACCESS:          0  HIT:          0  MISS:          0  iACCESS:          0  iHIT:          0  iMISS:          0  dACCESS:          0  dHIT:          0  dMISS:          0  itACCESS:          0  itHIT:          0  itMISS:          0  dtACCESS:          0  dtHIT:          0  dtMISS:          0
cpu0_DTLB PREFETCH  REQUESTED:          0  ISSUED:          0  CROSSED:          0  USEFUL:          0  USELESS:          0
cpu0_DTLB AVERAGE iMISS LATENCY: 0 cycles
cpu0_DTLB AVERAGE dMISS LATENCY: 14.7792 cycles
cpu0_DTLB AVERAGE itMISS LATENCY: 0 cycles
cpu0_DTLB AVERAGE dtMISS LATENCY: 0 cycles
cpu0_DTLB PAGE CROSSINGS (TLB HIT):         0 
cpu0_DTLB PAGE CROSSINGS (TLB MISS):         0 
cpu0_DTLB AVERAGE MISS LATENCY: 14.7792 cycles
cpu0_STLB TOTAL       ACCESS:    3247468  HIT:    2952222  MISS:     295246  iACCESS:     400319  iHIT:     308892  iMISS:      91427  dACCESS:    2847149  dHIT:    2643330  dMISS:     203819  itACCESS:          0  itHIT:          0  itMISS:          0  dtACCESS:          0  dtHIT:          0  dtMISS:          0
cpu0_STLB LOAD         ACCESS:    3247468  HIT:    2952222  MISS:     295246  iACCESS:     400319  iHIT:     308892  iMISS:      91427  dACCESS:    2847149  dHIT:    2643330  dMISS:     203819  itACCESS:          0  itHIT:          0  itMISS:          0  dtACCESS:          0  dtHIT:          0  dtMISS:          0
cpu0_STLB RFO          ACCESS:          0  HIT:          0  MISS:          0  iACCESS:          0  iHIT:          0  iMISS:          0  dACCESS:          0  dHIT:          0  dMISS:          0  itACCESS:          0  itHIT:          0  itMISS:          0  dtACCESS:          0  dtHIT:          0  dtMISS:          0
cpu0_STLB PREFETCH     ACCESS:          0  HIT:          0  MISS:          0  iACCESS:          0  iHIT:          0  iMISS:          0  dACCESS:          0  dHIT:          0  dMISS:          0  itACCESS:          0  itHIT:          0  itMISS:          0  dtACCESS:          0  dtHIT:          0  dtMISS:          0
cpu0_STLB WRITE        ACCESS:          0  HIT:          0  MISS:          0  iACCESS:          0  iHIT:          0  iMISS:          0  dACCESS:          0  dHIT:          0  dMISS:          0  itACCESS:          0  itHIT:          0  itMISS:          0  dtACCESS:          0  dtHIT:          0  dtMISS:          0
cpu0_STLB TRANSLATION  ACCESS:          0  HIT:          0  MISS:          0  iACCESS:          0  iHIT:          0  iMISS:          0  dACCESS:          0  dHIT:          0  dMISS:          0  itACCESS:          0  itHIT:          0  itMISS:          0  dtACCESS:          0  dtHIT:          0  dtMISS:          0
cpu0_STLB PREFETCH  REQUESTED:          0  ISSUED:          0  CROSSED:          0  USEFUL:          0  USELESS:          0
cpu0_STLB AVERAGE iMISS LATENCY: 55.3169 cycles
cpu0_STLB AVERAGE dMISS LATENCY: 189.624 cycles
cpu0_STLB AVERAGE itMISS LATENCY: 0 cycles
cpu0_STLB AVERAGE dtMISS LATENCY: 0 cycles
cpu0_STLB PAGE CROSSINGS (TLB HIT):         0 
cpu0_STLB PAGE CROSSINGS (TLB MISS):         0 
cpu0_STLB AVERAGE MISS LATENCY: 244.941 cycles
cpu0_L1D TOTAL       ACCESS:   49511834  HIT:   41211940  MISS:    8299894  iACCESS:          0  iHIT:          0  iMISS:          0  dACCESS:   49031508  dHIT:   41189133  dMISS:    7842375  itACCESS:     113092  itHIT:       9240  itMISS:     103852  dtACCESS:     367234  dtHIT:      13567  dtMISS:     353667
cpu0_L1D LOAD         ACCESS:   23721636  HIT:   19549412  MISS:    4172224  iACCESS:          0  iHIT:          0  iMISS:          0  dACCESS:   23721636  dHIT:   19549412  dMISS:    4172224  itACCESS:          0  itHIT:          0  itMISS:          0  dtACCESS:          0  dtHIT:          0  dtMISS:          0
cpu0_L1D RFO          ACCESS:          0  HIT:          0  MISS:          0  iACCESS:          0  iHIT:          0  iMISS:          0  dACCESS:          0  dHIT:          0  dMISS:          0  itACCESS:          0  itHIT:          0  itMISS:          0  dtACCESS:          0  dtHIT:          0  dtMISS:          0
cpu0_L1D PREFETCH     ACCESS:   15504453  HIT:   12634411  MISS:    2870042  iACCESS:          0  iHIT:          0  iMISS:          0  dACCESS:   15504453  dHIT:   12634411  dMISS:    2870042  itACCESS:          0  itHIT:          0  itMISS:          0  dtACCESS:          0  dtHIT:          0  dtMISS:          0
cpu0_L1D WRITE        ACCESS:    9805419  HIT:    9005310  MISS:     800109  iACCESS:          0  iHIT:          0  iMISS:          0  dACCESS:    9805419  dHIT:    9005310  dMISS:     800109  itACCESS:          0  itHIT:          0  itMISS:          0  dtACCESS:          0  dtHIT:          0  dtMISS:          0
cpu0_L1D TRANSLATION  ACCESS:     480326  HIT:      22807  MISS:     457519  iACCESS:          0  iHIT:          0  iMISS:          0  dACCESS:          0  dHIT:          0  dMISS:          0  itACCESS:     113092  itHIT:       9240  itMISS:     103852  dtACCESS:     367234  dtHIT:      13567  dtMISS:     353667
cpu0_L1D PREFETCH  REQUESTED:   23721636  ISSUED:   20110584  CROSSED:          0  USEFUL:     359065  USELESS:    1138783
cpu0_L1D AVERAGE iMISS LATENCY: 0 cycles
cpu0_L1D AVERAGE dMISS LATENCY: 33.6831 cycles
cpu0_L1D AVERAGE itMISS LATENCY: 1.85515 cycles
cpu0_L1D AVERAGE dtMISS LATENCY: 6.28791 cycles
cpu0_L1D PAGE CROSSINGS (TLB HIT):         0 
cpu0_L1D PAGE CROSSINGS (TLB MISS):         0 
cpu0_L1D AVERAGE MISS LATENCY: 41.8261 cycles
cpu0_L2C TOTAL       ACCESS:    9291896  HIT:    5565261  MISS:    3726635  iACCESS:    3124469  iHIT:    1908349  iMISS:    1216120  dACCESS:    5789754  dHIT:    3611119  dMISS:    2178635  itACCESS:      93294  itHIT:      15116  itMISS:      78178  dtACCESS:     284379  dtHIT:      30677  dtMISS:     253702
cpu0_L2C LOAD         ACCESS:    3390581  HIT:    2451320  MISS:     939261  iACCESS:     703073  iHIT:     448199  iMISS:     254874  dACCESS:    2687508  dHIT:    2003121  dMISS:     684387  itACCESS:          0  itHIT:          0  itMISS:          0  dtACCESS:          0  dtHIT:          0  dtMISS:          0
cpu0_L2C RFO          ACCESS:     243942  HIT:     110262  MISS:     133680  iACCESS:          0  iHIT:          0  iMISS:          0  dACCESS:     243942  dHIT:     110262  dMISS:     133680  itACCESS:          0  itHIT:          0  itMISS:          0  dtACCESS:          0  dtHIT:          0  dtMISS:          0
cpu0_L2C PREFETCH     ACCESS:    4941384  HIT:    2627737  MISS:    2313647  iACCESS:    2421396  iHIT:    1460150  iMISS:     961246  dACCESS:    2519988  dHIT:    1167587  dMISS:    1352401  itACCESS:          0  itHIT:          0  itMISS:          0  dtACCESS:          0  dtHIT:          0  dtMISS:          0
cpu0_L2C WRITE        ACCESS:     338316  HIT:     330149  MISS:       8167  iACCESS:          0  iHIT:          0  iMISS:          0  dACCESS:     338316  dHIT:     330149  dMISS:       8167  itACCESS:          0  itHIT:          0  itMISS:          0  dtACCESS:          0  dtHIT:          0  dtMISS:          0
cpu0_L2C TRANSLATION  ACCESS:     377673  HIT:      45793  MISS:     331880  iACCESS:          0  iHIT:          0  iMISS:          0  dACCESS:          0  dHIT:          0  dMISS:          0  itACCESS:      93294  itHIT:      15116  itMISS:      78178  dtACCESS:     284379  dtHIT:      30677  dtMISS:     253702
cpu0_L2C PREFETCH  REQUESTED:    1201247  ISSUED:    1201169  CROSSED:          0  USEFUL:     261255  USELESS:     254062
cpu0_L2C AVERAGE iMISS LATENCY: 39.6123 cycles
cpu0_L2C AVERAGE dMISS LATENCY: 81.904 cycles
cpu0_L2C AVERAGE itMISS LATENCY: 3.88472 cycles
cpu0_L2C AVERAGE dtMISS LATENCY: 13.2452 cycles
cpu0_L2C PAGE CROSSINGS (TLB HIT):         0 
cpu0_L2C PAGE CROSSINGS (TLB MISS):         0 
cpu0_L2C AVERAGE MISS LATENCY: 138.647 cycles
LLC TOTAL       ACCESS:    3752295  HIT:    1194255  MISS:    2558040  iACCESS:    1153614  iHIT:     377969  iMISS:     775645  dACCESS:    2266801  dHIT:     784210  dMISS:    1482591  itACCESS:      78178  itHIT:       6120  itMISS:      72058  dtACCESS:     253702  dtHIT:      25956  dtMISS:     227746
LLC LOAD         ACCESS:     932337  HIT:     316733  MISS:     615604  iACCESS:     253948  iHIT:      89383  iMISS:     164565  dACCESS:     678389  dHIT:     227350  dMISS:     451039  itACCESS:          0  itHIT:          0  itMISS:          0  dtACCESS:          0  dtHIT:          0  dtMISS:          0
LLC RFO          ACCESS:     133677  HIT:      38250  MISS:      95427  iACCESS:          0  iHIT:          0  iMISS:          0  dACCESS:     133677  dHIT:      38250  dMISS:      95427  itACCESS:          0  itHIT:          0  itMISS:          0  dtACCESS:          0  dtHIT:          0  dtMISS:          0
LLC PREFETCH     ACCESS:    2165341  HIT:     626474  MISS:    1538867  iACCESS:     899666  iHIT:     288586  iMISS:     611080  dACCESS:    1265675  dHIT:     337888  dMISS:     927787  itACCESS:          0  itHIT:          0  itMISS:          0  dtACCESS:          0  dtHIT:          0  dtMISS:          0
LLC WRITE        ACCESS:     189060  HIT:     180722  MISS:       8338  iACCESS:          0  iHIT:          0  iMISS:          0  dACCESS:     189060  dHIT:     180722  dMISS:       8338  itACCESS:          0  itHIT:          0  itMISS:          0  dtACCESS:          0  dtHIT:          0  dtMISS:          0
LLC TRANSLATION  ACCESS:     331880  HIT:      32076  MISS:     299804  iACCESS:          0  iHIT:          0  iMISS:          0  dACCESS:          0  dHIT:          0  dMISS:          0  itACCESS:      78178  itHIT:       6120  itMISS:      72058  dtACCESS:     253702  dtHIT:      25956  dtMISS:     227746
LLC PREFETCH  REQUESTED:          0  ISSUED:          0  CROSSED:          0  USEFUL:          0  USELESS:          0
LLC AVERAGE iMISS LATENCY: 48.8243 cycles
LLC AVERAGE dMISS LATENCY: 104.203 cycles
LLC AVERAGE itMISS LATENCY: 5.05336 cycles
LLC AVERAGE dtMISS LATENCY: 17.3349 cycles
LLC PAGE CROSSINGS (TLB HIT):         0 
LLC PAGE CROSSINGS (TLB MISS):         0 
LLC AVERAGE MISS LATENCY: 175.416 cycles

PageTableWalker TOTAL       ACCESS:     187727  
PageTableWalker AVERAGE LATENCY: 6.50254 cycles
PageTableWalker TOTAL LATENCY: 1220702 cycles

DRAM Statistics
Channel 0
 RQ ROW_BUFFER_HIT:     508946
  ROW_BUFFER_MISS:    2026502
 AVG DBUS CONGESTED CYCLE:    3.65577
 WQ ROW_BUFFER_HIT:      57179
  ROW_BUFFER_MISS:      53570  FULL:          0

