last_page:0x200000000000000
VMEM_RES_CAP:0x100000
PAGE_SIZE:4096
LOG2_PAGE_SIZE:12
LOG2_PAGE_TABLE_SIZE:9
page_table_levels:5
WARNING: physical memory size is smaller than virtual memory size
FDiP enabled with aggresivity 16

*** ChampSim Multicore Out-of-Order Simulator ***

Warmup Instructions: 50000000
Simulation Instructions: 100000000
Number of CPUs: 1
Small page size: 4096
Large page size: 2097152

CPU 0 Bimodal branch predictor
Basic BTB sets: 1024 ways: 8 indirect buffer size: 4096 RAS size: 64
Instruction page size distrubution: 0
Loading instruction page size distribution from /home/bsc/bsc018186/scratch/itp_asplos25_AE/dump/smt_srv537_ap_srv346_ap_1024i.pdst
Data page size distrubution: 0
Loading data page size distribution from /home/bsc/bsc018186/scratch/itp_asplos25_AE/dump/smt_srv537_ap_srv346_ap_1024i.pdst
cpu0_L2C IP-based stride prefetcher
cpu0_L2C is using PTP replacement policy:
	TLB_STRESS_THRESHOLD:0
	PTE_EVICTION_RATIO:0
cpu0_L1D next line prefetcher
cpu0_L1I next line prefetcher
Off-chip DRAM Size: 4 GiB Channels: 1 Width: 64-bit Data Rate: 3200 MT/s
Heartbeat CPU 0 instructions: 10000003 cycles: 2500418 heartbeat IPC: 3.99934 cumulative IPC: 3.99934 (Simulation time: 0 hr 0 min 39 sec) 
Heartbeat CPU 0 instructions: 20000000 cycles: 5000587 heartbeat IPC: 3.99973 cumulative IPC: 3.99954 (Simulation time: 0 hr 1 min 19 sec) 
Heartbeat CPU 0 instructions: 30000000 cycles: 7500693 heartbeat IPC: 3.99984 cumulative IPC: 3.99964 (Simulation time: 0 hr 2 min 6 sec) 
Heartbeat CPU 0 instructions: 40000002 cycles: 10001029 heartbeat IPC: 3.99947 cumulative IPC: 3.99959 (Simulation time: 0 hr 2 min 53 sec) 
Heartbeat CPU 0 instructions: 50000003 cycles: 12501259 heartbeat IPC: 3.99964 cumulative IPC: 3.9996 (Simulation time: 0 hr 3 min 38 sec) 
Warmup finished CPU 0 instructions: 50000003 cycles: 12501260 cumulative IPC: 3.9996 (Simulation time: 0 hr 3 min 38 sec) 

Warmup complete CPU 0 instructions: 50000003 cycles: 12501260 (Simulation time: 0 hr 3 min 38 sec) 

Heartbeat CPU 0 instructions: 60000000 cycles: 41104278 heartbeat IPC: 0.349614 cumulative IPC: 0.349614 (Simulation time: 0 hr 5 min 15 sec) 
Heartbeat CPU 0 instructions: 70000003 cycles: 69860962 heartbeat IPC: 0.347746 cumulative IPC: 0.348677 (Simulation time: 0 hr 6 min 53 sec) 
Heartbeat CPU 0 instructions: 80000003 cycles: 98569785 heartbeat IPC: 0.348325 cumulative IPC: 0.34856 (Simulation time: 0 hr 8 min 28 sec) 
Heartbeat CPU 0 instructions: 90000000 cycles: 125653009 heartbeat IPC: 0.369233 cumulative IPC: 0.353508 (Simulation time: 0 hr 10 min 2 sec) 
Heartbeat CPU 0 instructions: 100000003 cycles: 154072412 heartbeat IPC: 0.351873 cumulative IPC: 0.35318 (Simulation time: 0 hr 11 min 37 sec) 
Heartbeat CPU 0 instructions: 110000001 cycles: 183591759 heartbeat IPC: 0.338761 cumulative IPC: 0.350692 (Simulation time: 0 hr 13 min 16 sec) 
Heartbeat CPU 0 instructions: 120000000 cycles: 211628122 heartbeat IPC: 0.35668 cumulative IPC: 0.351535 (Simulation time: 0 hr 14 min 51 sec) 
Heartbeat CPU 0 instructions: 130000002 cycles: 239355811 heartbeat IPC: 0.360651 cumulative IPC: 0.352649 (Simulation time: 0 hr 16 min 23 sec) 
Heartbeat CPU 0 instructions: 140000003 cycles: 267861563 heartbeat IPC: 0.350807 cumulative IPC: 0.352444 (Simulation time: 0 hr 17 min 51 sec) 
Heartbeat CPU 0 instructions: 150000002 cycles: 296405792 heartbeat IPC: 0.350334 cumulative IPC: 0.352232 (Simulation time: 0 hr 19 min 25 sec) 
Simulation finished CPU 0 instructions: 100000004 cycles: 283904534 cumulative IPC: 0.352232 (Simulation time: 0 hr 19 min 25 sec) 

Simulation complete CPU 0 instructions: 100000004 cycles: 283904534 (Simulation time: 0 hr 19 min 25 sec) 


ChampSim completed all CPUs

Saving instructions large page distribution to /home/bsc/bsc018186/scratch/itp_asplos25_AE/dump/smt_srv537_ap_srv346_ap_1024i.pdst...
Saving data large page distribution to /home/bsc/bsc018186/scratch/itp_asplos25_AE/dump/smt_srv537_ap_srv346_ap_1024i.pdst...
=== Simulation ===
CPU 0 runs /gpfs/projects/bsc18/MN4/bsc18/romol/ChampSim/traces/qualcomm_srv/smt_srv537_ap_srv346_ap_1024i.champsimtrace.xz

Region of Interest Statistics

CPU 0 cumulative IPC: 0.352232 instructions: 100000004 cycles: 283904534
CPU 0 Branch Prediction Accuracy: 76.0378% MPKI: 43.1546 Average ROB Occupancy at Mispredict: 11.2375
Branch type MPKI
BRANCH_DIRECT_JUMP: 1.29275
BRANCH_INDIRECT: 22.4335
BRANCH_CONDITIONAL: 12.5778
BRANCH_DIRECT_CALL: 2.48923
BRANCH_INDIRECT_CALL: 0.93622
BRANCH_RETURN: 3.4251

Instructions large pages: 0
Instructions small pages: 13507
Large page distribution for instructions: 0%

Data large pages: 0
Data small pages: 12202
Large page distribution for data: 0%

cpu0_L1I TOTAL       ACCESS:   39065284  HIT:   30355239  MISS:    8710045  iACCESS:   39065284  iHIT:   30355239  iMISS:    8710045  dACCESS:          0  dHIT:          0  dMISS:          0  itACCESS:          0  itHIT:          0  itMISS:          0  dtACCESS:          0  dtHIT:          0  dtMISS:          0
cpu0_L1I LOAD         ACCESS:   11745345  HIT:    9366606  MISS:    2378739  iACCESS:   11745345  iHIT:    9366606  iMISS:    2378739  dACCESS:          0  dHIT:          0  dMISS:          0  itACCESS:          0  itHIT:          0  itMISS:          0  dtACCESS:          0  dtHIT:          0  dtMISS:          0
cpu0_L1I RFO          ACCESS:          0  HIT:          0  MISS:          0  iACCESS:          0  iHIT:          0  iMISS:          0  dACCESS:          0  dHIT:          0  dMISS:          0  itACCESS:          0  itHIT:          0  itMISS:          0  dtACCESS:          0  dtHIT:          0  dtMISS:          0
cpu0_L1I PREFETCH     ACCESS:   27319939  HIT:   20988633  MISS:    6331306  iACCESS:   27319939  iHIT:   20988633  iMISS:    6331306  dACCESS:          0  dHIT:          0  dMISS:          0  itACCESS:          0  itHIT:          0  itMISS:          0  dtACCESS:          0  dtHIT:          0  dtMISS:          0
cpu0_L1I WRITE        ACCESS:          0  HIT:          0  MISS:          0  iACCESS:          0  iHIT:          0  iMISS:          0  dACCESS:          0  dHIT:          0  dMISS:          0  itACCESS:          0  itHIT:          0  itMISS:          0  dtACCESS:          0  dtHIT:          0  dtMISS:          0
cpu0_L1I TRANSLATION  ACCESS:          0  HIT:          0  MISS:          0  iACCESS:          0  iHIT:          0  iMISS:          0  dACCESS:          0  dHIT:          0  dMISS:          0  itACCESS:          0  itHIT:          0  itMISS:          0  dtACCESS:          0  dtHIT:          0  dtMISS:          0
cpu0_L1I PREFETCH  REQUESTED:   30200567  ISSUED:   30200482  CROSSED:          0  USEFUL:    2204103  USELESS:     756267
cpu0_L1I AVERAGE iMISS LATENCY: 22.6842 cycles
cpu0_L1I AVERAGE dMISS LATENCY: 0 cycles
cpu0_L1I AVERAGE itMISS LATENCY: 0 cycles
cpu0_L1I AVERAGE dtMISS LATENCY: 0 cycles
cpu0_L1I PAGE CROSSINGS (TLB HIT):         0 
cpu0_L1I PAGE CROSSINGS (TLB MISS):         0 
cpu0_L1I AVERAGE MISS LATENCY: 22.6842 cycles
cpu0_ITLB TOTAL       ACCESS:   32971755  HIT:   30766567  MISS:    2205188  iACCESS:   32971755  iHIT:   30766567  iMISS:    2205188  dACCESS:          0  dHIT:          0  dMISS:          0  itACCESS:          0  itHIT:          0  itMISS:          0  dtACCESS:          0  dtHIT:          0  dtMISS:          0
cpu0_ITLB LOAD         ACCESS:   32971755  HIT:   30766567  MISS:    2205188  iACCESS:   32971755  iHIT:   30766567  iMISS:    2205188  dACCESS:          0  dHIT:          0  dMISS:          0  itACCESS:          0  itHIT:          0  itMISS:          0  dtACCESS:          0  dtHIT:          0  dtMISS:          0
cpu0_ITLB RFO          ACCESS:          0  HIT:          0  MISS:          0  iACCESS:          0  iHIT:          0  iMISS:          0  dACCESS:          0  dHIT:          0  dMISS:          0  itACCESS:          0  itHIT:          0  itMISS:          0  dtACCESS:          0  dtHIT:          0  dtMISS:          0
cpu0_ITLB PREFETCH     ACCESS:          0  HIT:          0  MISS:          0  iACCESS:          0  iHIT:          0  iMISS:          0  dACCESS:          0  dHIT:          0  dMISS:          0  itACCESS:          0  itHIT:          0  itMISS:          0  dtACCESS:          0  dtHIT:          0  dtMISS:          0
cpu0_ITLB WRITE        ACCESS:          0  HIT:          0  MISS:          0  iACCESS:          0  iHIT:          0  iMISS:          0  dACCESS:          0  dHIT:          0  dMISS:          0  itACCESS:          0  itHIT:          0  itMISS:          0  dtACCESS:          0  dtHIT:          0  dtMISS:          0
cpu0_ITLB TRANSLATION  ACCESS:          0  HIT:          0  MISS:          0  iACCESS:          0  iHIT:          0  iMISS:          0  dACCESS:          0  dHIT:          0  dMISS:          0  itACCESS:          0  itHIT:          0  itMISS:          0  dtACCESS:          0  dtHIT:          0  dtMISS:          0
cpu0_ITLB PREFETCH  REQUESTED:          0  ISSUED:          0  CROSSED:          0  USEFUL:     384368  USELESS:      77210
cpu0_ITLB AVERAGE iMISS LATENCY: 9.37711 cycles
cpu0_ITLB AVERAGE dMISS LATENCY: 0 cycles
cpu0_ITLB AVERAGE itMISS LATENCY: 0 cycles
cpu0_ITLB AVERAGE dtMISS LATENCY: 0 cycles
cpu0_ITLB PAGE CROSSINGS (TLB HIT):         0 
cpu0_ITLB PAGE CROSSINGS (TLB MISS):         0 
cpu0_ITLB AVERAGE MISS LATENCY: 9.37711 cycles
cpu0_DTLB TOTAL       ACCESS:   28737163  HIT:   25325779  MISS:    3411384  iACCESS:          0  iHIT:          0  iMISS:          0  dACCESS:   28737163  dHIT:   25325779  dMISS:    3411384  itACCESS:          0  itHIT:          0  itMISS:          0  dtACCESS:          0  dtHIT:          0  dtMISS:          0
cpu0_DTLB LOAD         ACCESS:   28737163  HIT:   25325779  MISS:    3411384  iACCESS:          0  iHIT:          0  iMISS:          0  dACCESS:   28737163  dHIT:   25325779  dMISS:    3411384  itACCESS:          0  itHIT:          0  itMISS:          0  dtACCESS:          0  dtHIT:          0  dtMISS:          0
cpu0_DTLB RFO          ACCESS:          0  HIT:          0  MISS:          0  iACCESS:          0  iHIT:          0  iMISS:          0  dACCESS:          0  dHIT:          0  dMISS:          0  itACCESS:          0  itHIT:          0  itMISS:          0  dtACCESS:          0  dtHIT:          0  dtMISS:          0
cpu0_DTLB PREFETCH     ACCESS:          0  HIT:          0  MISS:          0  iACCESS:          0  iHIT:          0  iMISS:          0  dACCESS:          0  dHIT:          0  dMISS:          0  itACCESS:          0  itHIT:          0  itMISS:          0  dtACCESS:          0  dtHIT:          0  dtMISS:          0
cpu0_DTLB WRITE        ACCESS:          0  HIT:          0  MISS:          0  iACCESS:          0  iHIT:          0  iMISS:          0  dACCESS:          0  dHIT:          0  dMISS:          0  itACCESS:          0  itHIT:          0  itMISS:          0  dtACCESS:          0  dtHIT:          0  dtMISS:          0
cpu0_DTLB TRANSLATION  ACCESS:          0  HIT:          0  MISS:          0  iACCESS:          0  iHIT:          0  iMISS:          0  dACCESS:          0  dHIT:          0  dMISS:          0  itACCESS:          0  itHIT:          0  itMISS:          0  dtACCESS:          0  dtHIT:          0  dtMISS:          0
cpu0_DTLB PREFETCH  REQUESTED:          0  ISSUED:          0  CROSSED:          0  USEFUL:          0  USELESS:          0
cpu0_DTLB AVERAGE iMISS LATENCY: 0 cycles
cpu0_DTLB AVERAGE dMISS LATENCY: 24.6361 cycles
cpu0_DTLB AVERAGE itMISS LATENCY: 0 cycles
cpu0_DTLB AVERAGE dtMISS LATENCY: 0 cycles
cpu0_DTLB PAGE CROSSINGS (TLB HIT):         0 
cpu0_DTLB PAGE CROSSINGS (TLB MISS):         0 
cpu0_DTLB AVERAGE MISS LATENCY: 24.6361 cycles
cpu0_STLB TOTAL       ACCESS:    2413927  HIT:    2065888  MISS:     348039  iACCESS:     461586  iHIT:     354867  iMISS:     106719  dACCESS:    1952341  dHIT:    1711021  dMISS:     241320  itACCESS:          0  itHIT:          0  itMISS:          0  dtACCESS:          0  dtHIT:          0  dtMISS:          0
cpu0_STLB LOAD         ACCESS:    2413927  HIT:    2065888  MISS:     348039  iACCESS:     461586  iHIT:     354867  iMISS:     106719  dACCESS:    1952341  dHIT:    1711021  dMISS:     241320  itACCESS:          0  itHIT:          0  itMISS:          0  dtACCESS:          0  dtHIT:          0  dtMISS:          0
cpu0_STLB RFO          ACCESS:          0  HIT:          0  MISS:          0  iACCESS:          0  iHIT:          0  iMISS:          0  dACCESS:          0  dHIT:          0  dMISS:          0  itACCESS:          0  itHIT:          0  itMISS:          0  dtACCESS:          0  dtHIT:          0  dtMISS:          0
cpu0_STLB PREFETCH     ACCESS:          0  HIT:          0  MISS:          0  iACCESS:          0  iHIT:          0  iMISS:          0  dACCESS:          0  dHIT:          0  dMISS:          0  itACCESS:          0  itHIT:          0  itMISS:          0  dtACCESS:          0  dtHIT:          0  dtMISS:          0
cpu0_STLB WRITE        ACCESS:          0  HIT:          0  MISS:          0  iACCESS:          0  iHIT:          0  iMISS:          0  dACCESS:          0  dHIT:          0  dMISS:          0  itACCESS:          0  itHIT:          0  itMISS:          0  dtACCESS:          0  dtHIT:          0  dtMISS:          0
cpu0_STLB TRANSLATION  ACCESS:          0  HIT:          0  MISS:          0  iACCESS:          0  iHIT:          0  iMISS:          0  dACCESS:          0  dHIT:          0  dMISS:          0  itACCESS:          0  itHIT:          0  itMISS:          0  dtACCESS:          0  dtHIT:          0  dtMISS:          0
cpu0_STLB PREFETCH  REQUESTED:          0  ISSUED:          0  CROSSED:          0  USEFUL:          0  USELESS:          0
cpu0_STLB AVERAGE iMISS LATENCY: 48.8265 cycles
cpu0_STLB AVERAGE dMISS LATENCY: 196.39 cycles
cpu0_STLB AVERAGE itMISS LATENCY: 0 cycles
cpu0_STLB AVERAGE dtMISS LATENCY: 0 cycles
cpu0_STLB PAGE CROSSINGS (TLB HIT):         0 
cpu0_STLB PAGE CROSSINGS (TLB MISS):         0 
cpu0_STLB AVERAGE MISS LATENCY: 245.216 cycles
cpu0_L1D TOTAL       ACCESS:   44273072  HIT:   39085483  MISS:    5187589  iACCESS:          0  iHIT:          0  iMISS:          0  dACCESS:   43753493  dHIT:   39051477  dMISS:    4702016  itACCESS:     118703  itHIT:      15564  itMISS:     103139  dtACCESS:     400876  dtHIT:      18442  dtMISS:     382434
cpu0_L1D LOAD         ACCESS:   19957055  HIT:   17858543  MISS:    2098512  iACCESS:          0  iHIT:          0  iMISS:          0  dACCESS:   19957055  dHIT:   17858543  dMISS:    2098512  itACCESS:          0  itHIT:          0  itMISS:          0  dtACCESS:          0  dtHIT:          0  dtMISS:          0
cpu0_L1D RFO          ACCESS:          0  HIT:          0  MISS:          0  iACCESS:          0  iHIT:          0  iMISS:          0  dACCESS:          0  dHIT:          0  dMISS:          0  itACCESS:          0  itHIT:          0  itMISS:          0  dtACCESS:          0  dtHIT:          0  dtMISS:          0
cpu0_L1D PREFETCH     ACCESS:   13634156  HIT:   11568967  MISS:    2065189  iACCESS:          0  iHIT:          0  iMISS:          0  dACCESS:   13634156  dHIT:   11568967  dMISS:    2065189  itACCESS:          0  itHIT:          0  itMISS:          0  dtACCESS:          0  dtHIT:          0  dtMISS:          0
cpu0_L1D WRITE        ACCESS:   10162282  HIT:    9623967  MISS:     538315  iACCESS:          0  iHIT:          0  iMISS:          0  dACCESS:   10162282  dHIT:    9623967  dMISS:     538315  itACCESS:          0  itHIT:          0  itMISS:          0  dtACCESS:          0  dtHIT:          0  dtMISS:          0
cpu0_L1D TRANSLATION  ACCESS:     519579  HIT:      34006  MISS:     485573  iACCESS:          0  iHIT:          0  iMISS:          0  dACCESS:          0  dHIT:          0  dMISS:          0  itACCESS:     118703  itHIT:      15564  itMISS:     103139  dtACCESS:     400876  dtHIT:      18442  dtMISS:     382434
cpu0_L1D PREFETCH  REQUESTED:   19957055  ISSUED:   18232315  CROSSED:          0  USEFUL:     369436  USELESS:     905749
cpu0_L1D AVERAGE iMISS LATENCY: 0 cycles
cpu0_L1D AVERAGE dMISS LATENCY: 50.9119 cycles
cpu0_L1D AVERAGE itMISS LATENCY: 3.08072 cycles
cpu0_L1D AVERAGE dtMISS LATENCY: 12.1604 cycles
cpu0_L1D PAGE CROSSINGS (TLB HIT):         0 
cpu0_L1D PAGE CROSSINGS (TLB MISS):         0 
cpu0_L1D AVERAGE MISS LATENCY: 66.153 cycles
cpu0_L2C TOTAL       ACCESS:    8501372  HIT:    4138819  MISS:    4362553  iACCESS:    3768859  iHIT:    2288509  iMISS:    1480350  dACCESS:    4280596  dHIT:    1790255  dMISS:    2490341  itACCESS:     103042  itHIT:      20370  itMISS:      82672  dtACCESS:     348875  dtHIT:      39685  dtMISS:     309190
cpu0_L2C LOAD         ACCESS:    2039027  HIT:    1002863  MISS:    1036164  iACCESS:     848164  iHIT:     540928  iMISS:     307236  dACCESS:    1190863  dHIT:     461935  dMISS:     728928  itACCESS:          0  itHIT:          0  itMISS:          0  dtACCESS:          0  dtHIT:          0  dtMISS:          0
cpu0_L2C RFO          ACCESS:     208509  HIT:      78240  MISS:     130269  iACCESS:          0  iHIT:          0  iMISS:          0  dACCESS:     208509  dHIT:      78240  dMISS:     130269  itACCESS:          0  itHIT:          0  itMISS:          0  dtACCESS:          0  dtHIT:          0  dtMISS:          0
cpu0_L2C PREFETCH     ACCESS:    5456593  HIT:    2663507  MISS:    2793086  iACCESS:    2920695  iHIT:    1747581  iMISS:    1173114  dACCESS:    2535898  dHIT:     915926  dMISS:    1619972  itACCESS:          0  itHIT:          0  itMISS:          0  dtACCESS:          0  dtHIT:          0  dtMISS:          0
cpu0_L2C WRITE        ACCESS:     345326  HIT:     334154  MISS:      11172  iACCESS:          0  iHIT:          0  iMISS:          0  dACCESS:     345326  dHIT:     334154  dMISS:      11172  itACCESS:          0  itHIT:          0  itMISS:          0  dtACCESS:          0  dtHIT:          0  dtMISS:          0
cpu0_L2C TRANSLATION  ACCESS:     451917  HIT:      60055  MISS:     391862  iACCESS:          0  iHIT:          0  iMISS:          0  dACCESS:          0  dHIT:          0  dMISS:          0  itACCESS:     103042  itHIT:      20370  itMISS:      82672  dtACCESS:     348875  dtHIT:      39685  dtMISS:     309190
cpu0_L2C PREFETCH  REQUESTED:    1505120  ISSUED:    1505117  CROSSED:          0  USEFUL:     360562  USELESS:     318950
cpu0_L2C AVERAGE iMISS LATENCY: 37.8592 cycles
cpu0_L2C AVERAGE dMISS LATENCY: 75.1335 cycles
cpu0_L2C AVERAGE itMISS LATENCY: 3.43116 cycles
cpu0_L2C AVERAGE dtMISS LATENCY: 13.665 cycles
cpu0_L2C PAGE CROSSINGS (TLB HIT):         0 
cpu0_L2C PAGE CROSSINGS (TLB MISS):         0 
cpu0_L2C AVERAGE MISS LATENCY: 130.089 cycles
LLC TOTAL       ACCESS:    4358828  HIT:    1505924  MISS:    2852904  iACCESS:    1390108  iHIT:     513199  iMISS:     876909  dACCESS:    2576858  dHIT:     952792  dMISS:    1624066  itACCESS:      82672  itHIT:       7979  itMISS:      74693  dtACCESS:     309190  dtHIT:      31954  dtMISS:     277236
LLC LOAD         ACCESS:    1031141  HIT:     374822  MISS:     656319  iACCESS:     305990  iHIT:     119666  iMISS:     186324  dACCESS:     725151  dHIT:     255156  dMISS:     469995  itACCESS:          0  itHIT:          0  itMISS:          0  dtACCESS:          0  dtHIT:          0  dtMISS:          0
LLC RFO          ACCESS:     130261  HIT:      43755  MISS:      86506  iACCESS:          0  iHIT:          0  iMISS:          0  dACCESS:     130261  dHIT:      43755  dMISS:      86506  itACCESS:          0  itHIT:          0  itMISS:          0  dtACCESS:          0  dtHIT:          0  dtMISS:          0
LLC PREFETCH     ACCESS:    2589368  HIT:     841607  MISS:    1747761  iACCESS:    1084118  iHIT:     393533  iMISS:     690585  dACCESS:    1505250  dHIT:     448074  dMISS:    1057176  itACCESS:          0  itHIT:          0  itMISS:          0  dtACCESS:          0  dtHIT:          0  dtMISS:          0
LLC WRITE        ACCESS:     216196  HIT:     205807  MISS:      10389  iACCESS:          0  iHIT:          0  iMISS:          0  dACCESS:     216196  dHIT:     205807  dMISS:      10389  itACCESS:          0  itHIT:          0  itMISS:          0  dtACCESS:          0  dtHIT:          0  dtMISS:          0
LLC TRANSLATION  ACCESS:     391862  HIT:      39933  MISS:     351929  iACCESS:          0  iHIT:          0  iMISS:          0  dACCESS:          0  dHIT:          0  dMISS:          0  itACCESS:      82672  itHIT:       7979  itMISS:      74693  dtACCESS:     309190  dtHIT:      31954  dtMISS:     277236
LLC PREFETCH  REQUESTED:          0  ISSUED:          0  CROSSED:          0  USEFUL:          0  USELESS:          0
LLC AVERAGE iMISS LATENCY: 48.3133 cycles
LLC AVERAGE dMISS LATENCY: 99.1819 cycles
LLC AVERAGE itMISS LATENCY: 4.67273 cycles
LLC AVERAGE dtMISS LATENCY: 18.7533 cycles
LLC PAGE CROSSINGS (TLB HIT):         0 
LLC PAGE CROSSINGS (TLB MISS):         0 
LLC AVERAGE MISS LATENCY: 170.922 cycles

PageTableWalker TOTAL       ACCESS:     171565  
PageTableWalker AVERAGE LATENCY: 6.37401 cycles
PageTableWalker TOTAL LATENCY: 1093557 cycles

DRAM Statistics
Channel 0
 RQ ROW_BUFFER_HIT:     610529
  ROW_BUFFER_MISS:    2222608
 AVG DBUS CONGESTED CYCLE:    3.64657
 WQ ROW_BUFFER_HIT:      62463
  ROW_BUFFER_MISS:      54973  FULL:          0

