last_page:0x200000000000000
VMEM_RES_CAP:0x100000
PAGE_SIZE:4096
LOG2_PAGE_SIZE:12
LOG2_PAGE_TABLE_SIZE:9
page_table_levels:5
WARNING: physical memory size is smaller than virtual memory size
FDiP enabled with aggresivity 16

*** ChampSim Multicore Out-of-Order Simulator ***

Warmup Instructions: 50000000
Simulation Instructions: 100000000
Number of CPUs: 1
Small page size: 4096
Large page size: 2097152

CPU 0 Bimodal branch predictor
Basic BTB sets: 1024 ways: 8 indirect buffer size: 4096 RAS size: 64
Instruction page size distrubution: 0
Loading instruction page size distribution from /home/bsc/bsc018186/scratch/itp_asplos25_AE/dump/smt_srv85_ap_srv298_ap_1024i.pdst
Data page size distrubution: 0
Loading data page size distribution from /home/bsc/bsc018186/scratch/itp_asplos25_AE/dump/smt_srv85_ap_srv298_ap_1024i.pdst
cpu0_L2C IP-based stride prefetcher
cpu0_L1D next line prefetcher
cpu0_STLB using iTP with max lru@8
cpu0_STLB using iTP with instr@0 and data@2
Init sat counter with 3 bits (max:50).
cpu0_L1I next line prefetcher
Off-chip DRAM Size: 4 GiB Channels: 1 Width: 64-bit Data Rate: 3200 MT/s
Heartbeat CPU 0 instructions: 10000001 cycles: 2500188 heartbeat IPC: 3.9997 cumulative IPC: 3.9997 (Simulation time: 0 hr 0 min 35 sec) 
Heartbeat CPU 0 instructions: 20000003 cycles: 5000368 heartbeat IPC: 3.99972 cumulative IPC: 3.99971 (Simulation time: 0 hr 1 min 13 sec) 
Heartbeat CPU 0 instructions: 30000002 cycles: 7500424 heartbeat IPC: 3.99992 cumulative IPC: 3.99978 (Simulation time: 0 hr 1 min 51 sec) 
Heartbeat CPU 0 instructions: 40000002 cycles: 10000543 heartbeat IPC: 3.99981 cumulative IPC: 3.99979 (Simulation time: 0 hr 2 min 29 sec) 
Heartbeat CPU 0 instructions: 50000003 cycles: 12500616 heartbeat IPC: 3.99989 cumulative IPC: 3.99981 (Simulation time: 0 hr 3 min 7 sec) 
Warmup finished CPU 0 instructions: 50000003 cycles: 12500617 cumulative IPC: 3.99981 (Simulation time: 0 hr 3 min 7 sec) 

Warmup complete CPU 0 instructions: 50000003 cycles: 12500617 (Simulation time: 0 hr 3 min 7 sec) 

Heartbeat CPU 0 instructions: 60000003 cycles: 41250513 heartbeat IPC: 0.347828 cumulative IPC: 0.347828 (Simulation time: 0 hr 4 min 26 sec) 
Heartbeat CPU 0 instructions: 70000001 cycles: 69486134 heartbeat IPC: 0.354163 cumulative IPC: 0.350967 (Simulation time: 0 hr 5 min 44 sec) 
Heartbeat CPU 0 instructions: 80000000 cycles: 97282973 heartbeat IPC: 0.359754 cumulative IPC: 0.353848 (Simulation time: 0 hr 7 min 2 sec) 
Heartbeat CPU 0 instructions: 90000002 cycles: 126561488 heartbeat IPC: 0.341548 cumulative IPC: 0.35069 (Simulation time: 0 hr 8 min 22 sec) 
Heartbeat CPU 0 instructions: 100000000 cycles: 155479858 heartbeat IPC: 0.345801 cumulative IPC: 0.349702 (Simulation time: 0 hr 9 min 41 sec) 
Heartbeat CPU 0 instructions: 110000001 cycles: 185012337 heartbeat IPC: 0.338611 cumulative IPC: 0.347803 (Simulation time: 0 hr 11 min 2 sec) 
Heartbeat CPU 0 instructions: 120000000 cycles: 213524046 heartbeat IPC: 0.350734 cumulative IPC: 0.348219 (Simulation time: 0 hr 12 min 21 sec) 
Heartbeat CPU 0 instructions: 130000003 cycles: 244013718 heartbeat IPC: 0.327981 cumulative IPC: 0.345553 (Simulation time: 0 hr 13 min 43 sec) 
Heartbeat CPU 0 instructions: 140000004 cycles: 273300661 heartbeat IPC: 0.34145 cumulative IPC: 0.345092 (Simulation time: 0 hr 15 min 3 sec) 
Heartbeat CPU 0 instructions: 150000000 cycles: 303440303 heartbeat IPC: 0.331789 cumulative IPC: 0.343714 (Simulation time: 0 hr 16 min 24 sec) 
Simulation finished CPU 0 instructions: 100000002 cycles: 290939688 cumulative IPC: 0.343714 (Simulation time: 0 hr 16 min 24 sec) 

Simulation complete CPU 0 instructions: 100000002 cycles: 290939688 (Simulation time: 0 hr 16 min 24 sec) 


ChampSim completed all CPUs

Saving instructions large page distribution to /home/bsc/bsc018186/scratch/itp_asplos25_AE/dump/smt_srv85_ap_srv298_ap_1024i.pdst...
Saving data large page distribution to /home/bsc/bsc018186/scratch/itp_asplos25_AE/dump/smt_srv85_ap_srv298_ap_1024i.pdst...
=== Simulation ===
CPU 0 runs /gpfs/projects/bsc18/MN4/bsc18/romol/ChampSim/traces/qualcomm_srv/smt_srv85_ap_srv298_ap_1024i.champsimtrace.xz

Region of Interest Statistics

CPU 0 cumulative IPC: 0.343714 instructions: 100000002 cycles: 290939688
CPU 0 Branch Prediction Accuracy: 75.772% MPKI: 43.5968 Average ROB Occupancy at Mispredict: 11.4388
Branch type MPKI
BRANCH_DIRECT_JUMP: 1.31237
BRANCH_INDIRECT: 22.8552
BRANCH_CONDITIONAL: 12.5628
BRANCH_DIRECT_CALL: 2.48014
BRANCH_INDIRECT_CALL: 0.94035
BRANCH_RETURN: 3.44596

Instructions large pages: 0
Instructions small pages: 13541
Large page distribution for instructions: 0%

Data large pages: 0
Data small pages: 12237
Large page distribution for data: 0%

cpu0_L1I TOTAL       ACCESS:   39284333  HIT:   30523752  MISS:    8760581  iACCESS:   39284333  iHIT:   30523752  iMISS:    8760581  dACCESS:          0  dHIT:          0  dMISS:          0  itACCESS:          0  itHIT:          0  itMISS:          0  dtACCESS:          0  dtHIT:          0  dtMISS:          0
cpu0_L1I LOAD         ACCESS:   11837209  HIT:    9441161  MISS:    2396048  iACCESS:   11837209  iHIT:    9441161  iMISS:    2396048  dACCESS:          0  dHIT:          0  dMISS:          0  itACCESS:          0  itHIT:          0  itMISS:          0  dtACCESS:          0  dtHIT:          0  dtMISS:          0
cpu0_L1I RFO          ACCESS:          0  HIT:          0  MISS:          0  iACCESS:          0  iHIT:          0  iMISS:          0  dACCESS:          0  dHIT:          0  dMISS:          0  itACCESS:          0  itHIT:          0  itMISS:          0  dtACCESS:          0  dtHIT:          0  dtMISS:          0
cpu0_L1I PREFETCH     ACCESS:   27447124  HIT:   21082591  MISS:    6364533  iACCESS:   27447124  iHIT:   21082591  iMISS:    6364533  dACCESS:          0  dHIT:          0  dMISS:          0  itACCESS:          0  itHIT:          0  itMISS:          0  dtACCESS:          0  dtHIT:          0  dtMISS:          0
cpu0_L1I WRITE        ACCESS:          0  HIT:          0  MISS:          0  iACCESS:          0  iHIT:          0  iMISS:          0  dACCESS:          0  dHIT:          0  dMISS:          0  itACCESS:          0  itHIT:          0  itMISS:          0  dtACCESS:          0  dtHIT:          0  dtMISS:          0
cpu0_L1I TRANSLATION  ACCESS:          0  HIT:          0  MISS:          0  iACCESS:          0  iHIT:          0  iMISS:          0  dACCESS:          0  dHIT:          0  dMISS:          0  itACCESS:          0  itHIT:          0  itMISS:          0  dtACCESS:          0  dtHIT:          0  dtMISS:          0
cpu0_L1I PREFETCH  REQUESTED:   30344919  ISSUED:   30344454  CROSSED:          0  USEFUL:    2212036  USELESS:     765679
cpu0_L1I AVERAGE iMISS LATENCY: 23.239 cycles
cpu0_L1I AVERAGE dMISS LATENCY: 0 cycles
cpu0_L1I AVERAGE itMISS LATENCY: 0 cycles
cpu0_L1I AVERAGE dtMISS LATENCY: 0 cycles
cpu0_L1I PAGE CROSSINGS (TLB HIT):         0 
cpu0_L1I PAGE CROSSINGS (TLB MISS):         0 
cpu0_L1I AVERAGE MISS LATENCY: 23.239 cycles
cpu0_ITLB TOTAL       ACCESS:   33145457  HIT:   30918689  MISS:    2226768  iACCESS:   33145457  iHIT:   30918689  iMISS:    2226768  dACCESS:          0  dHIT:          0  dMISS:          0  itACCESS:          0  itHIT:          0  itMISS:          0  dtACCESS:          0  dtHIT:          0  dtMISS:          0
cpu0_ITLB LOAD         ACCESS:   33145457  HIT:   30918689  MISS:    2226768  iACCESS:   33145457  iHIT:   30918689  iMISS:    2226768  dACCESS:          0  dHIT:          0  dMISS:          0  itACCESS:          0  itHIT:          0  itMISS:          0  dtACCESS:          0  dtHIT:          0  dtMISS:          0
cpu0_ITLB RFO          ACCESS:          0  HIT:          0  MISS:          0  iACCESS:          0  iHIT:          0  iMISS:          0  dACCESS:          0  dHIT:          0  dMISS:          0  itACCESS:          0  itHIT:          0  itMISS:          0  dtACCESS:          0  dtHIT:          0  dtMISS:          0
cpu0_ITLB PREFETCH     ACCESS:          0  HIT:          0  MISS:          0  iACCESS:          0  iHIT:          0  iMISS:          0  dACCESS:          0  dHIT:          0  dMISS:          0  itACCESS:          0  itHIT:          0  itMISS:          0  dtACCESS:          0  dtHIT:          0  dtMISS:          0
cpu0_ITLB WRITE        ACCESS:          0  HIT:          0  MISS:          0  iACCESS:          0  iHIT:          0  iMISS:          0  dACCESS:          0  dHIT:          0  dMISS:          0  itACCESS:          0  itHIT:          0  itMISS:          0  dtACCESS:          0  dtHIT:          0  dtMISS:          0
cpu0_ITLB TRANSLATION  ACCESS:          0  HIT:          0  MISS:          0  iACCESS:          0  iHIT:          0  iMISS:          0  dACCESS:          0  dHIT:          0  dMISS:          0  itACCESS:          0  itHIT:          0  itMISS:          0  dtACCESS:          0  dtHIT:          0  dtMISS:          0
cpu0_ITLB PREFETCH  REQUESTED:          0  ISSUED:          0  CROSSED:          0  USEFUL:     388332  USELESS:      78474
cpu0_ITLB AVERAGE iMISS LATENCY: 5.99487 cycles
cpu0_ITLB AVERAGE dMISS LATENCY: 0 cycles
cpu0_ITLB AVERAGE itMISS LATENCY: 0 cycles
cpu0_ITLB AVERAGE dtMISS LATENCY: 0 cycles
cpu0_ITLB PAGE CROSSINGS (TLB HIT):         0 
cpu0_ITLB PAGE CROSSINGS (TLB MISS):         0 
cpu0_ITLB AVERAGE MISS LATENCY: 5.99487 cycles
cpu0_DTLB TOTAL       ACCESS:   28793857  HIT:   25063758  MISS:    3730099  iACCESS:          0  iHIT:          0  iMISS:          0  dACCESS:   28793857  dHIT:   25063758  dMISS:    3730099  itACCESS:          0  itHIT:          0  itMISS:          0  dtACCESS:          0  dtHIT:          0  dtMISS:          0
cpu0_DTLB LOAD         ACCESS:   28793857  HIT:   25063758  MISS:    3730099  iACCESS:          0  iHIT:          0  iMISS:          0  dACCESS:   28793857  dHIT:   25063758  dMISS:    3730099  itACCESS:          0  itHIT:          0  itMISS:          0  dtACCESS:          0  dtHIT:          0  dtMISS:          0
cpu0_DTLB RFO          ACCESS:          0  HIT:          0  MISS:          0  iACCESS:          0  iHIT:          0  iMISS:          0  dACCESS:          0  dHIT:          0  dMISS:          0  itACCESS:          0  itHIT:          0  itMISS:          0  dtACCESS:          0  dtHIT:          0  dtMISS:          0
cpu0_DTLB PREFETCH     ACCESS:          0  HIT:          0  MISS:          0  iACCESS:          0  iHIT:          0  iMISS:          0  dACCESS:          0  dHIT:          0  dMISS:          0  itACCESS:          0  itHIT:          0  itMISS:          0  dtACCESS:          0  dtHIT:          0  dtMISS:          0
cpu0_DTLB WRITE        ACCESS:          0  HIT:          0  MISS:          0  iACCESS:          0  iHIT:          0  iMISS:          0  dACCESS:          0  dHIT:          0  dMISS:          0  itACCESS:          0  itHIT:          0  itMISS:          0  dtACCESS:          0  dtHIT:          0  dtMISS:          0
cpu0_DTLB TRANSLATION  ACCESS:          0  HIT:          0  MISS:          0  iACCESS:          0  iHIT:          0  iMISS:          0  dACCESS:          0  dHIT:          0  dMISS:          0  itACCESS:          0  itHIT:          0  itMISS:          0  dtACCESS:          0  dtHIT:          0  dtMISS:          0
cpu0_DTLB PREFETCH  REQUESTED:          0  ISSUED:          0  CROSSED:          0  USEFUL:          0  USELESS:          0
cpu0_DTLB AVERAGE iMISS LATENCY: 0 cycles
cpu0_DTLB AVERAGE dMISS LATENCY: 26.9295 cycles
cpu0_DTLB AVERAGE itMISS LATENCY: 0 cycles
cpu0_DTLB AVERAGE dtMISS LATENCY: 0 cycles
cpu0_DTLB PAGE CROSSINGS (TLB HIT):         0 
cpu0_DTLB PAGE CROSSINGS (TLB MISS):         0 
cpu0_DTLB AVERAGE MISS LATENCY: 26.9295 cycles
cpu0_STLB TOTAL       ACCESS:    2613065  HIT:    2252519  MISS:     360546  iACCESS:     466808  iHIT:     416887  iMISS:      49921  dACCESS:    2146257  dHIT:    1835632  dMISS:     310625  itACCESS:          0  itHIT:          0  itMISS:          0  dtACCESS:          0  dtHIT:          0  dtMISS:          0
cpu0_STLB LOAD         ACCESS:    2613065  HIT:    2252519  MISS:     360546  iACCESS:     466808  iHIT:     416887  iMISS:      49921  dACCESS:    2146257  dHIT:    1835632  dMISS:     310625  itACCESS:          0  itHIT:          0  itMISS:          0  dtACCESS:          0  dtHIT:          0  dtMISS:          0
cpu0_STLB RFO          ACCESS:          0  HIT:          0  MISS:          0  iACCESS:          0  iHIT:          0  iMISS:          0  dACCESS:          0  dHIT:          0  dMISS:          0  itACCESS:          0  itHIT:          0  itMISS:          0  dtACCESS:          0  dtHIT:          0  dtMISS:          0
cpu0_STLB PREFETCH     ACCESS:          0  HIT:          0  MISS:          0  iACCESS:          0  iHIT:          0  iMISS:          0  dACCESS:          0  dHIT:          0  dMISS:          0  itACCESS:          0  itHIT:          0  itMISS:          0  dtACCESS:          0  dtHIT:          0  dtMISS:          0
cpu0_STLB WRITE        ACCESS:          0  HIT:          0  MISS:          0  iACCESS:          0  iHIT:          0  iMISS:          0  dACCESS:          0  dHIT:          0  dMISS:          0  itACCESS:          0  itHIT:          0  itMISS:          0  dtACCESS:          0  dtHIT:          0  dtMISS:          0
cpu0_STLB TRANSLATION  ACCESS:          0  HIT:          0  MISS:          0  iACCESS:          0  iHIT:          0  iMISS:          0  dACCESS:          0  dHIT:          0  dMISS:          0  itACCESS:          0  itHIT:          0  itMISS:          0  dtACCESS:          0  dtHIT:          0  dtMISS:          0
cpu0_STLB PREFETCH  REQUESTED:          0  ISSUED:          0  CROSSED:          0  USEFUL:          0  USELESS:          0
cpu0_STLB AVERAGE iMISS LATENCY: 26.8678 cycles
cpu0_STLB AVERAGE dMISS LATENCY: 230.566 cycles
cpu0_STLB AVERAGE itMISS LATENCY: 0 cycles
cpu0_STLB AVERAGE dtMISS LATENCY: 0 cycles
cpu0_STLB PAGE CROSSINGS (TLB HIT):         0 
cpu0_STLB PAGE CROSSINGS (TLB MISS):         0 
cpu0_STLB AVERAGE MISS LATENCY: 257.434 cycles
cpu0_L1D TOTAL       ACCESS:   44464557  HIT:   39079435  MISS:    5385122  iACCESS:          0  iHIT:          0  iMISS:          0  dACCESS:   43907528  dHIT:   39050176  dMISS:    4857352  itACCESS:      59872  itHIT:       5002  itMISS:      54870  dtACCESS:     497157  dtHIT:      24257  dtMISS:     472900
cpu0_L1D LOAD         ACCESS:   20006143  HIT:   17829646  MISS:    2176497  iACCESS:          0  iHIT:          0  iMISS:          0  dACCESS:   20006143  dHIT:   17829646  dMISS:    2176497  itACCESS:          0  itHIT:          0  itMISS:          0  dtACCESS:          0  dtHIT:          0  dtMISS:          0
cpu0_L1D RFO          ACCESS:          0  HIT:          0  MISS:          0  iACCESS:          0  iHIT:          0  iMISS:          0  dACCESS:          0  dHIT:          0  dMISS:          0  itACCESS:          0  itHIT:          0  itMISS:          0  dtACCESS:          0  dtHIT:          0  dtMISS:          0
cpu0_L1D PREFETCH     ACCESS:   13738145  HIT:   11619263  MISS:    2118882  iACCESS:          0  iHIT:          0  iMISS:          0  dACCESS:   13738145  dHIT:   11619263  dMISS:    2118882  itACCESS:          0  itHIT:          0  itMISS:          0  dtACCESS:          0  dtHIT:          0  dtMISS:          0
cpu0_L1D WRITE        ACCESS:   10163240  HIT:    9601267  MISS:     561973  iACCESS:          0  iHIT:          0  iMISS:          0  dACCESS:   10163240  dHIT:    9601267  dMISS:     561973  itACCESS:          0  itHIT:          0  itMISS:          0  dtACCESS:          0  dtHIT:          0  dtMISS:          0
cpu0_L1D TRANSLATION  ACCESS:     557029  HIT:      29259  MISS:     527770  iACCESS:          0  iHIT:          0  iMISS:          0  dACCESS:          0  dHIT:          0  dMISS:          0  itACCESS:      59872  itHIT:       5002  itMISS:      54870  dtACCESS:     497157  dtHIT:      24257  dtMISS:     472900
cpu0_L1D PREFETCH  REQUESTED:   20006143  ISSUED:   18356839  CROSSED:          0  USEFUL:     357714  USELESS:     937241
cpu0_L1D AVERAGE iMISS LATENCY: 0 cycles
cpu0_L1D AVERAGE dMISS LATENCY: 50.7135 cycles
cpu0_L1D AVERAGE itMISS LATENCY: 1.69929 cycles
cpu0_L1D AVERAGE dtMISS LATENCY: 14.33 cycles
cpu0_L1D PAGE CROSSINGS (TLB HIT):         0 
cpu0_L1D PAGE CROSSINGS (TLB MISS):         0 
cpu0_L1D AVERAGE MISS LATENCY: 66.7427 cycles
cpu0_L2C TOTAL       ACCESS:    8631985  HIT:    4262822  MISS:    4369163  iACCESS:    3793377  iHIT:    2339724  iMISS:    1453653  dACCESS:    4338478  dHIT:    1858570  dMISS:    2479908  itACCESS:      54358  itHIT:       7889  itMISS:      46469  dtACCESS:     445772  dtHIT:      56639  dtMISS:     389133
cpu0_L2C LOAD         ACCESS:    2071820  HIT:    1037625  MISS:    1034195  iACCESS:     854781  iHIT:     552798  iMISS:     301983  dACCESS:    1217039  dHIT:     484827  dMISS:     732212  itACCESS:          0  itHIT:          0  itMISS:          0  dtACCESS:          0  dtHIT:          0  dtMISS:          0
cpu0_L2C RFO          ACCESS:     211149  HIT:      84556  MISS:     126593  iACCESS:          0  iHIT:          0  iMISS:          0  dACCESS:     211149  dHIT:      84556  dMISS:     126593  itACCESS:          0  itHIT:          0  itMISS:          0  dtACCESS:          0  dtHIT:          0  dtMISS:          0
cpu0_L2C PREFETCH     ACCESS:    5498337  HIT:    2730114  MISS:    2768223  iACCESS:    2938596  iHIT:    1786926  iMISS:    1151670  dACCESS:    2559741  dHIT:     943188  dMISS:    1616553  itACCESS:          0  itHIT:          0  itMISS:          0  dtACCESS:          0  dtHIT:          0  dtMISS:          0
cpu0_L2C WRITE        ACCESS:     350549  HIT:     345999  MISS:       4550  iACCESS:          0  iHIT:          0  iMISS:          0  dACCESS:     350549  dHIT:     345999  dMISS:       4550  itACCESS:          0  itHIT:          0  itMISS:          0  dtACCESS:          0  dtHIT:          0  dtMISS:          0
cpu0_L2C TRANSLATION  ACCESS:     500130  HIT:      64528  MISS:     435602  iACCESS:          0  iHIT:          0  iMISS:          0  dACCESS:          0  dHIT:          0  dMISS:          0  itACCESS:      54358  itHIT:       7889  itMISS:      46469  dtACCESS:     445772  dtHIT:      56639  dtMISS:     389133
cpu0_L2C PREFETCH  REQUESTED:    1511005  ISSUED:    1511003  CROSSED:          0  USEFUL:     358199  USELESS:     321970
cpu0_L2C AVERAGE iMISS LATENCY: 39.2162 cycles
cpu0_L2C AVERAGE dMISS LATENCY: 77.5079 cycles
cpu0_L2C AVERAGE itMISS LATENCY: 1.97148 cycles
cpu0_L2C AVERAGE dtMISS LATENCY: 16.6486 cycles
cpu0_L2C PAGE CROSSINGS (TLB HIT):         0 
cpu0_L2C PAGE CROSSINGS (TLB MISS):         0 
cpu0_L2C AVERAGE MISS LATENCY: 135.344 cycles
LLC TOTAL       ACCESS:    4368130  HIT:    1408362  MISS:    2959768  iACCESS:    1362839  iHIT:     457032  iMISS:     905807  dACCESS:    2569689  dHIT:     896695  dMISS:    1672994  itACCESS:      46469  itHIT:       3318  itMISS:      43151  dtACCESS:     389133  dtHIT:      51317  dtMISS:     337816
LLC LOAD         ACCESS:    1028522  HIT:     351186  MISS:     677336  iACCESS:     300690  iHIT:     108496  iMISS:     192194  dACCESS:     727832  dHIT:     242690  dMISS:     485142  itACCESS:          0  itHIT:          0  itMISS:          0  dtACCESS:          0  dtHIT:          0  dtMISS:          0
LLC RFO          ACCESS:     126591  HIT:      39281  MISS:      87310  iACCESS:          0  iHIT:          0  iMISS:          0  dACCESS:     126591  dHIT:      39281  dMISS:      87310  itACCESS:          0  itHIT:          0  itMISS:          0  dtACCESS:          0  dtHIT:          0  dtMISS:          0
LLC PREFETCH     ACCESS:    2562968  HIT:     760964  MISS:    1802004  iACCESS:    1062149  iHIT:     348536  iMISS:     713613  dACCESS:    1500819  dHIT:     412428  dMISS:    1088391  itACCESS:          0  itHIT:          0  itMISS:          0  dtACCESS:          0  dtHIT:          0  dtMISS:          0
LLC WRITE        ACCESS:     214447  HIT:     202296  MISS:      12151  iACCESS:          0  iHIT:          0  iMISS:          0  dACCESS:     214447  dHIT:     202296  dMISS:      12151  itACCESS:          0  itHIT:          0  itMISS:          0  dtACCESS:          0  dtHIT:          0  dtMISS:          0
LLC TRANSLATION  ACCESS:     435602  HIT:      54635  MISS:     380967  iACCESS:          0  iHIT:          0  iMISS:          0  dACCESS:          0  dHIT:          0  dMISS:          0  itACCESS:      46469  itHIT:       3318  itMISS:      43151  dtACCESS:     389133  dtHIT:      51317  dtMISS:     337816
LLC PREFETCH  REQUESTED:          0  ISSUED:          0  CROSSED:          0  USEFUL:          0  USELESS:          0
LLC AVERAGE iMISS LATENCY: 48.8275 cycles
LLC AVERAGE dMISS LATENCY: 99.4208 cycles
LLC AVERAGE itMISS LATENCY: 2.5989 cycles
LLC AVERAGE dtMISS LATENCY: 21.9789 cycles
LLC PAGE CROSSINGS (TLB HIT):         0 
LLC PAGE CROSSINGS (TLB MISS):         0 
LLC AVERAGE MISS LATENCY: 172.827 cycles

PageTableWalker TOTAL       ACCESS:     180962  
PageTableWalker AVERAGE LATENCY: 6.85388 cycles
PageTableWalker TOTAL LATENCY: 1240291 cycles

DRAM Statistics
Channel 0
 RQ ROW_BUFFER_HIT:     627228
  ROW_BUFFER_MISS:    2310154
 AVG DBUS CONGESTED CYCLE:    3.64873
 WQ ROW_BUFFER_HIT:      65276
  ROW_BUFFER_MISS:      54563  FULL:          0

