last_page:0x200000000000000
VMEM_RES_CAP:0x100000
PAGE_SIZE:4096
LOG2_PAGE_SIZE:12
LOG2_PAGE_TABLE_SIZE:9
page_table_levels:5
WARNING: physical memory size is smaller than virtual memory size
FDiP enabled with aggresivity 16

*** ChampSim Multicore Out-of-Order Simulator ***

Warmup Instructions: 50000000
Simulation Instructions: 100000000
Number of CPUs: 1
Small page size: 4096
Large page size: 2097152

CPU 0 Bimodal branch predictor
Basic BTB sets: 1024 ways: 8 indirect buffer size: 4096 RAS size: 64
Instruction page size distrubution: 0
Loading instruction page size distribution from /home/bsc/bsc018186/scratch/itp_asplos25_AE/dump/smt_srv85_ap_srv346_ap_1024i.pdst
Data page size distrubution: 0
Loading data page size distribution from /home/bsc/bsc018186/scratch/itp_asplos25_AE/dump/smt_srv85_ap_srv346_ap_1024i.pdst
cpu0_L2C IP-based stride prefetcher
cpu0_L2C is using PTP replacement policy:
	TLB_STRESS_THRESHOLD:0
	PTE_EVICTION_RATIO:0
cpu0_L1D next line prefetcher
cpu0_STLB using iTP with max lru@8
cpu0_STLB using iTP with instr@0 and data@2
Init sat counter with 3 bits (max:50).
cpu0_L1I next line prefetcher
Off-chip DRAM Size: 4 GiB Channels: 1 Width: 64-bit Data Rate: 3200 MT/s
Heartbeat CPU 0 instructions: 10000003 cycles: 2500334 heartbeat IPC: 3.99947 cumulative IPC: 3.99947 (Simulation time: 0 hr 0 min 38 sec) 
Heartbeat CPU 0 instructions: 20000003 cycles: 5000472 heartbeat IPC: 3.99978 cumulative IPC: 3.99963 (Simulation time: 0 hr 1 min 17 sec) 
Heartbeat CPU 0 instructions: 30000001 cycles: 7500568 heartbeat IPC: 3.99985 cumulative IPC: 3.9997 (Simulation time: 0 hr 1 min 57 sec) 
Heartbeat CPU 0 instructions: 40000000 cycles: 10000732 heartbeat IPC: 3.99974 cumulative IPC: 3.99971 (Simulation time: 0 hr 2 min 38 sec) 
Heartbeat CPU 0 instructions: 50000000 cycles: 12500753 heartbeat IPC: 3.99997 cumulative IPC: 3.99976 (Simulation time: 0 hr 3 min 19 sec) 
Warmup finished CPU 0 instructions: 50000000 cycles: 12500754 cumulative IPC: 3.99976 (Simulation time: 0 hr 3 min 19 sec) 

Warmup complete CPU 0 instructions: 50000000 cycles: 12500754 (Simulation time: 0 hr 3 min 19 sec) 

Heartbeat CPU 0 instructions: 60000000 cycles: 41538163 heartbeat IPC: 0.344384 cumulative IPC: 0.344384 (Simulation time: 0 hr 4 min 39 sec) 
Heartbeat CPU 0 instructions: 70000003 cycles: 70471762 heartbeat IPC: 0.34562 cumulative IPC: 0.345001 (Simulation time: 0 hr 6 min 0 sec) 
Heartbeat CPU 0 instructions: 80000002 cycles: 99619461 heartbeat IPC: 0.343081 cumulative IPC: 0.344358 (Simulation time: 0 hr 7 min 20 sec) 
Heartbeat CPU 0 instructions: 90000002 cycles: 127607059 heartbeat IPC: 0.357302 cumulative IPC: 0.347505 (Simulation time: 0 hr 8 min 38 sec) 
Heartbeat CPU 0 instructions: 100000000 cycles: 156885948 heartbeat IPC: 0.341543 cumulative IPC: 0.346296 (Simulation time: 0 hr 9 min 58 sec) 
Heartbeat CPU 0 instructions: 110000002 cycles: 186184077 heartbeat IPC: 0.341319 cumulative IPC: 0.345457 (Simulation time: 0 hr 11 min 19 sec) 
Heartbeat CPU 0 instructions: 120000000 cycles: 214968469 heartbeat IPC: 0.347411 cumulative IPC: 0.345735 (Simulation time: 0 hr 12 min 38 sec) 
Heartbeat CPU 0 instructions: 130000002 cycles: 243673501 heartbeat IPC: 0.348372 cumulative IPC: 0.346062 (Simulation time: 0 hr 13 min 58 sec) 
Heartbeat CPU 0 instructions: 140000004 cycles: 272870634 heartbeat IPC: 0.3425 cumulative IPC: 0.345663 (Simulation time: 0 hr 15 min 19 sec) 
Heartbeat CPU 0 instructions: 150000002 cycles: 302365839 heartbeat IPC: 0.339039 cumulative IPC: 0.344989 (Simulation time: 0 hr 16 min 40 sec) 
Simulation finished CPU 0 instructions: 100000002 cycles: 289865086 cumulative IPC: 0.344989 (Simulation time: 0 hr 16 min 40 sec) 

Simulation complete CPU 0 instructions: 100000002 cycles: 289865086 (Simulation time: 0 hr 16 min 40 sec) 


ChampSim completed all CPUs

Saving instructions large page distribution to /home/bsc/bsc018186/scratch/itp_asplos25_AE/dump/smt_srv85_ap_srv346_ap_1024i.pdst...
Saving data large page distribution to /home/bsc/bsc018186/scratch/itp_asplos25_AE/dump/smt_srv85_ap_srv346_ap_1024i.pdst...
=== Simulation ===
CPU 0 runs /gpfs/projects/bsc18/MN4/bsc18/romol/ChampSim/traces/qualcomm_srv/smt_srv85_ap_srv346_ap_1024i.champsimtrace.xz

Region of Interest Statistics

CPU 0 cumulative IPC: 0.344989 instructions: 100000002 cycles: 289865086
CPU 0 Branch Prediction Accuracy: 75.947% MPKI: 43.2219 Average ROB Occupancy at Mispredict: 11.5684
Branch type MPKI
BRANCH_DIRECT_JUMP: 1.29361
BRANCH_INDIRECT: 22.5598
BRANCH_CONDITIONAL: 12.5539
BRANCH_DIRECT_CALL: 2.47788
BRANCH_INDIRECT_CALL: 0.91463
BRANCH_RETURN: 3.42202

Instructions large pages: 0
Instructions small pages: 13169
Large page distribution for instructions: 0%

Data large pages: 0
Data small pages: 11885
Large page distribution for data: 0%

cpu0_L1I TOTAL       ACCESS:   38864639  HIT:   30155766  MISS:    8708873  iACCESS:   38864639  iHIT:   30155766  iMISS:    8708873  dACCESS:          0  dHIT:          0  dMISS:          0  itACCESS:          0  itHIT:          0  itMISS:          0  dtACCESS:          0  dtHIT:          0  dtMISS:          0
cpu0_L1I LOAD         ACCESS:   11652117  HIT:    9272261  MISS:    2379856  iACCESS:   11652117  iHIT:    9272261  iMISS:    2379856  dACCESS:          0  dHIT:          0  dMISS:          0  itACCESS:          0  itHIT:          0  itMISS:          0  dtACCESS:          0  dtHIT:          0  dtMISS:          0
cpu0_L1I RFO          ACCESS:          0  HIT:          0  MISS:          0  iACCESS:          0  iHIT:          0  iMISS:          0  dACCESS:          0  dHIT:          0  dMISS:          0  itACCESS:          0  itHIT:          0  itMISS:          0  dtACCESS:          0  dtHIT:          0  dtMISS:          0
cpu0_L1I PREFETCH     ACCESS:   27212522  HIT:   20883505  MISS:    6329017  iACCESS:   27212522  iHIT:   20883505  iMISS:    6329017  dACCESS:          0  dHIT:          0  dMISS:          0  itACCESS:          0  itHIT:          0  itMISS:          0  dtACCESS:          0  dtHIT:          0  dtMISS:          0
cpu0_L1I WRITE        ACCESS:          0  HIT:          0  MISS:          0  iACCESS:          0  iHIT:          0  iMISS:          0  dACCESS:          0  dHIT:          0  dMISS:          0  itACCESS:          0  itHIT:          0  itMISS:          0  dtACCESS:          0  dtHIT:          0  dtMISS:          0
cpu0_L1I TRANSLATION  ACCESS:          0  HIT:          0  MISS:          0  iACCESS:          0  iHIT:          0  iMISS:          0  dACCESS:          0  dHIT:          0  dMISS:          0  itACCESS:          0  itHIT:          0  itMISS:          0  dtACCESS:          0  dtHIT:          0  dtMISS:          0
cpu0_L1I PREFETCH  REQUESTED:   30029539  ISSUED:   30029281  CROSSED:          0  USEFUL:    2191607  USELESS:     753305
cpu0_L1I AVERAGE iMISS LATENCY: 23.5086 cycles
cpu0_L1I AVERAGE dMISS LATENCY: 0 cycles
cpu0_L1I AVERAGE itMISS LATENCY: 0 cycles
cpu0_L1I AVERAGE dtMISS LATENCY: 0 cycles
cpu0_L1I PAGE CROSSINGS (TLB HIT):         0 
cpu0_L1I PAGE CROSSINGS (TLB MISS):         0 
cpu0_L1I AVERAGE MISS LATENCY: 23.5086 cycles
cpu0_ITLB TOTAL       ACCESS:   32824011  HIT:   30624030  MISS:    2199981  iACCESS:   32824011  iHIT:   30624030  iMISS:    2199981  dACCESS:          0  dHIT:          0  dMISS:          0  itACCESS:          0  itHIT:          0  itMISS:          0  dtACCESS:          0  dtHIT:          0  dtMISS:          0
cpu0_ITLB LOAD         ACCESS:   32824011  HIT:   30624030  MISS:    2199981  iACCESS:   32824011  iHIT:   30624030  iMISS:    2199981  dACCESS:          0  dHIT:          0  dMISS:          0  itACCESS:          0  itHIT:          0  itMISS:          0  dtACCESS:          0  dtHIT:          0  dtMISS:          0
cpu0_ITLB RFO          ACCESS:          0  HIT:          0  MISS:          0  iACCESS:          0  iHIT:          0  iMISS:          0  dACCESS:          0  dHIT:          0  dMISS:          0  itACCESS:          0  itHIT:          0  itMISS:          0  dtACCESS:          0  dtHIT:          0  dtMISS:          0
cpu0_ITLB PREFETCH     ACCESS:          0  HIT:          0  MISS:          0  iACCESS:          0  iHIT:          0  iMISS:          0  dACCESS:          0  dHIT:          0  dMISS:          0  itACCESS:          0  itHIT:          0  itMISS:          0  dtACCESS:          0  dtHIT:          0  dtMISS:          0
cpu0_ITLB WRITE        ACCESS:          0  HIT:          0  MISS:          0  iACCESS:          0  iHIT:          0  iMISS:          0  dACCESS:          0  dHIT:          0  dMISS:          0  itACCESS:          0  itHIT:          0  itMISS:          0  dtACCESS:          0  dtHIT:          0  dtMISS:          0
cpu0_ITLB TRANSLATION  ACCESS:          0  HIT:          0  MISS:          0  iACCESS:          0  iHIT:          0  iMISS:          0  dACCESS:          0  dHIT:          0  dMISS:          0  itACCESS:          0  itHIT:          0  itMISS:          0  dtACCESS:          0  dtHIT:          0  dtMISS:          0
cpu0_ITLB PREFETCH  REQUESTED:          0  ISSUED:          0  CROSSED:          0  USEFUL:     383370  USELESS:      77408
cpu0_ITLB AVERAGE iMISS LATENCY: 6.19064 cycles
cpu0_ITLB AVERAGE dMISS LATENCY: 0 cycles
cpu0_ITLB AVERAGE itMISS LATENCY: 0 cycles
cpu0_ITLB AVERAGE dtMISS LATENCY: 0 cycles
cpu0_ITLB PAGE CROSSINGS (TLB HIT):         0 
cpu0_ITLB PAGE CROSSINGS (TLB MISS):         0 
cpu0_ITLB AVERAGE MISS LATENCY: 6.19064 cycles
cpu0_DTLB TOTAL       ACCESS:   28760990  HIT:   25073096  MISS:    3687894  iACCESS:          0  iHIT:          0  iMISS:          0  dACCESS:   28760990  dHIT:   25073096  dMISS:    3687894  itACCESS:          0  itHIT:          0  itMISS:          0  dtACCESS:          0  dtHIT:          0  dtMISS:          0
cpu0_DTLB LOAD         ACCESS:   28760990  HIT:   25073096  MISS:    3687894  iACCESS:          0  iHIT:          0  iMISS:          0  dACCESS:   28760990  dHIT:   25073096  dMISS:    3687894  itACCESS:          0  itHIT:          0  itMISS:          0  dtACCESS:          0  dtHIT:          0  dtMISS:          0
cpu0_DTLB RFO          ACCESS:          0  HIT:          0  MISS:          0  iACCESS:          0  iHIT:          0  iMISS:          0  dACCESS:          0  dHIT:          0  dMISS:          0  itACCESS:          0  itHIT:          0  itMISS:          0  dtACCESS:          0  dtHIT:          0  dtMISS:          0
cpu0_DTLB PREFETCH     ACCESS:          0  HIT:          0  MISS:          0  iACCESS:          0  iHIT:          0  iMISS:          0  dACCESS:          0  dHIT:          0  dMISS:          0  itACCESS:          0  itHIT:          0  itMISS:          0  dtACCESS:          0  dtHIT:          0  dtMISS:          0
cpu0_DTLB WRITE        ACCESS:          0  HIT:          0  MISS:          0  iACCESS:          0  iHIT:          0  iMISS:          0  dACCESS:          0  dHIT:          0  dMISS:          0  itACCESS:          0  itHIT:          0  itMISS:          0  dtACCESS:          0  dtHIT:          0  dtMISS:          0
cpu0_DTLB TRANSLATION  ACCESS:          0  HIT:          0  MISS:          0  iACCESS:          0  iHIT:          0  iMISS:          0  dACCESS:          0  dHIT:          0  dMISS:          0  itACCESS:          0  itHIT:          0  itMISS:          0  dtACCESS:          0  dtHIT:          0  dtMISS:          0
cpu0_DTLB PREFETCH  REQUESTED:          0  ISSUED:          0  CROSSED:          0  USEFUL:          0  USELESS:          0
cpu0_DTLB AVERAGE iMISS LATENCY: 0 cycles
cpu0_DTLB AVERAGE dMISS LATENCY: 26.6232 cycles
cpu0_DTLB AVERAGE itMISS LATENCY: 0 cycles
cpu0_DTLB AVERAGE dtMISS LATENCY: 0 cycles
cpu0_DTLB PAGE CROSSINGS (TLB HIT):         0 
cpu0_DTLB PAGE CROSSINGS (TLB MISS):         0 
cpu0_DTLB AVERAGE MISS LATENCY: 26.6232 cycles
cpu0_STLB TOTAL       ACCESS:    2596359  HIT:    2229147  MISS:     367212  iACCESS:     460784  iHIT:     409475  iMISS:      51309  dACCESS:    2135575  dHIT:    1819672  dMISS:     315903  itACCESS:          0  itHIT:          0  itMISS:          0  dtACCESS:          0  dtHIT:          0  dtMISS:          0
cpu0_STLB LOAD         ACCESS:    2596359  HIT:    2229147  MISS:     367212  iACCESS:     460784  iHIT:     409475  iMISS:      51309  dACCESS:    2135575  dHIT:    1819672  dMISS:     315903  itACCESS:          0  itHIT:          0  itMISS:          0  dtACCESS:          0  dtHIT:          0  dtMISS:          0
cpu0_STLB RFO          ACCESS:          0  HIT:          0  MISS:          0  iACCESS:          0  iHIT:          0  iMISS:          0  dACCESS:          0  dHIT:          0  dMISS:          0  itACCESS:          0  itHIT:          0  itMISS:          0  dtACCESS:          0  dtHIT:          0  dtMISS:          0
cpu0_STLB PREFETCH     ACCESS:          0  HIT:          0  MISS:          0  iACCESS:          0  iHIT:          0  iMISS:          0  dACCESS:          0  dHIT:          0  dMISS:          0  itACCESS:          0  itHIT:          0  itMISS:          0  dtACCESS:          0  dtHIT:          0  dtMISS:          0
cpu0_STLB WRITE        ACCESS:          0  HIT:          0  MISS:          0  iACCESS:          0  iHIT:          0  iMISS:          0  dACCESS:          0  dHIT:          0  dMISS:          0  itACCESS:          0  itHIT:          0  itMISS:          0  dtACCESS:          0  dtHIT:          0  dtMISS:          0
cpu0_STLB TRANSLATION  ACCESS:          0  HIT:          0  MISS:          0  iACCESS:          0  iHIT:          0  iMISS:          0  dACCESS:          0  dHIT:          0  dMISS:          0  itACCESS:          0  itHIT:          0  itMISS:          0  dtACCESS:          0  dtHIT:          0  dtMISS:          0
cpu0_STLB PREFETCH  REQUESTED:          0  ISSUED:          0  CROSSED:          0  USEFUL:          0  USELESS:          0
cpu0_STLB AVERAGE iMISS LATENCY: 27.2403 cycles
cpu0_STLB AVERAGE dMISS LATENCY: 220.433 cycles
cpu0_STLB AVERAGE itMISS LATENCY: 0 cycles
cpu0_STLB AVERAGE dtMISS LATENCY: 0 cycles
cpu0_STLB PAGE CROSSINGS (TLB HIT):         0 
cpu0_STLB PAGE CROSSINGS (TLB MISS):         0 
cpu0_STLB AVERAGE MISS LATENCY: 247.673 cycles
cpu0_L1D TOTAL       ACCESS:   44466418  HIT:   39047950  MISS:    5418468  iACCESS:          0  iHIT:          0  iMISS:          0  dACCESS:   43901850  dHIT:   39018440  dMISS:    4883410  itACCESS:      61557  itHIT:       5036  itMISS:      56521  dtACCESS:     503011  dtHIT:      24474  dtMISS:     478537
cpu0_L1D LOAD         ACCESS:   20025323  HIT:   17843603  MISS:    2181720  iACCESS:          0  iHIT:          0  iMISS:          0  dACCESS:   20025323  dHIT:   17843603  dMISS:    2181720  itACCESS:          0  itHIT:          0  itMISS:          0  dtACCESS:          0  dtHIT:          0  dtMISS:          0
cpu0_L1D RFO          ACCESS:          0  HIT:          0  MISS:          0  iACCESS:          0  iHIT:          0  iMISS:          0  dACCESS:          0  dHIT:          0  dMISS:          0  itACCESS:          0  itHIT:          0  itMISS:          0  dtACCESS:          0  dtHIT:          0  dtMISS:          0
cpu0_L1D PREFETCH     ACCESS:   13740470  HIT:   11595722  MISS:    2144748  iACCESS:          0  iHIT:          0  iMISS:          0  dACCESS:   13740470  dHIT:   11595722  dMISS:    2144748  itACCESS:          0  itHIT:          0  itMISS:          0  dtACCESS:          0  dtHIT:          0  dtMISS:          0
cpu0_L1D WRITE        ACCESS:   10136057  HIT:    9579115  MISS:     556942  iACCESS:          0  iHIT:          0  iMISS:          0  dACCESS:   10136057  dHIT:    9579115  dMISS:     556942  itACCESS:          0  itHIT:          0  itMISS:          0  dtACCESS:          0  dtHIT:          0  dtMISS:          0
cpu0_L1D TRANSLATION  ACCESS:     564568  HIT:      29510  MISS:     535058  iACCESS:          0  iHIT:          0  iMISS:          0  dACCESS:          0  dHIT:          0  dMISS:          0  itACCESS:      61557  itHIT:       5036  itMISS:      56521  dtACCESS:     503011  dtHIT:      24474  dtMISS:     478537
cpu0_L1D PREFETCH  REQUESTED:   20025323  ISSUED:   18342302  CROSSED:          0  USEFUL:     357055  USELESS:     936306
cpu0_L1D AVERAGE iMISS LATENCY: 0 cycles
cpu0_L1D AVERAGE dMISS LATENCY: 50.7738 cycles
cpu0_L1D AVERAGE itMISS LATENCY: 1.74535 cycles
cpu0_L1D AVERAGE dtMISS LATENCY: 13.8401 cycles
cpu0_L1D PAGE CROSSINGS (TLB HIT):         0 
cpu0_L1D PAGE CROSSINGS (TLB MISS):         0 
cpu0_L1D AVERAGE MISS LATENCY: 66.3591 cycles
cpu0_L2C TOTAL       ACCESS:    8576801  HIT:    3964686  MISS:    4612115  iACCESS:    3749103  iHIT:    2176609  iMISS:    1572494  dACCESS:    4317664  dHIT:    1706259  dMISS:    2611405  itACCESS:      56243  itHIT:       7308  itMISS:      48935  dtACCESS:     453791  dtHIT:      74510  dtMISS:     379281
cpu0_L2C LOAD         ACCESS:    2054371  HIT:     942994  MISS:    1111377  iACCESS:     842711  iHIT:     508097  iMISS:     334614  dACCESS:    1211660  dHIT:     434897  dMISS:     776763  itACCESS:          0  itHIT:          0  itMISS:          0  dtACCESS:          0  dtHIT:          0  dtMISS:          0
cpu0_L2C RFO          ACCESS:     210483  HIT:      76650  MISS:     133833  iACCESS:          0  iHIT:          0  iMISS:          0  dACCESS:     210483  dHIT:      76650  dMISS:     133833  itACCESS:          0  itHIT:          0  itMISS:          0  dtACCESS:          0  dtHIT:          0  dtMISS:          0
cpu0_L2C PREFETCH     ACCESS:    5455441  HIT:    2546477  MISS:    2908964  iACCESS:    2906392  iHIT:    1668512  iMISS:    1237880  dACCESS:    2549049  dHIT:     877965  dMISS:    1671084  itACCESS:          0  itHIT:          0  itMISS:          0  dtACCESS:          0  dtHIT:          0  dtMISS:          0
cpu0_L2C WRITE        ACCESS:     346472  HIT:     316747  MISS:      29725  iACCESS:          0  iHIT:          0  iMISS:          0  dACCESS:     346472  dHIT:     316747  dMISS:      29725  itACCESS:          0  itHIT:          0  itMISS:          0  dtACCESS:          0  dtHIT:          0  dtMISS:          0
cpu0_L2C TRANSLATION  ACCESS:     510034  HIT:      81818  MISS:     428216  iACCESS:          0  iHIT:          0  iMISS:          0  dACCESS:          0  dHIT:          0  dMISS:          0  itACCESS:      56243  itHIT:       7308  itMISS:      48935  dtACCESS:     453791  dtHIT:      74510  dtMISS:     379281
cpu0_L2C PREFETCH  REQUESTED:    1497953  ISSUED:    1497951  CROSSED:          0  USEFUL:     354401  USELESS:     332457
cpu0_L2C AVERAGE iMISS LATENCY: 37.501 cycles
cpu0_L2C AVERAGE dMISS LATENCY: 73.9439 cycles
cpu0_L2C AVERAGE itMISS LATENCY: 1.92979 cycles
cpu0_L2C AVERAGE dtMISS LATENCY: 15.2862 cycles
cpu0_L2C PAGE CROSSINGS (TLB HIT):         0 
cpu0_L2C PAGE CROSSINGS (TLB MISS):         0 
cpu0_L2C AVERAGE MISS LATENCY: 128.661 cycles
LLC TOTAL       ACCESS:    4596558  HIT:    1653683  MISS:    2942875  iACCESS:    1481225  iHIT:     578444  iMISS:     902781  dACCESS:    2687117  dHIT:    1018329  dMISS:    1668788  itACCESS:      48935  itHIT:       4529  itMISS:      44406  dtACCESS:     379281  dtHIT:      52381  dtMISS:     326900
LLC LOAD         ACCESS:    1106055  HIT:     429725  MISS:     676330  iACCESS:     333315  iHIT:     142914  iMISS:     190401  dACCESS:     772740  dHIT:     286811  dMISS:     485929  itACCESS:          0  itHIT:          0  itMISS:          0  dtACCESS:          0  dtHIT:          0  dtMISS:          0
LLC RFO          ACCESS:     133818  HIT:      47298  MISS:      86520  iACCESS:          0  iHIT:          0  iMISS:          0  dACCESS:     133818  dHIT:      47298  dMISS:      86520  itACCESS:          0  itHIT:          0  itMISS:          0  dtACCESS:          0  dtHIT:          0  dtMISS:          0
LLC PREFETCH     ACCESS:    2704519  HIT:     905469  MISS:    1799050  iACCESS:    1147910  iHIT:     435530  iMISS:     712380  dACCESS:    1556609  dHIT:     469939  dMISS:    1086670  itACCESS:          0  itHIT:          0  itMISS:          0  dtACCESS:          0  dtHIT:          0  dtMISS:          0
LLC WRITE        ACCESS:     223950  HIT:     214281  MISS:       9669  iACCESS:          0  iHIT:          0  iMISS:          0  dACCESS:     223950  dHIT:     214281  dMISS:       9669  itACCESS:          0  itHIT:          0  itMISS:          0  dtACCESS:          0  dtHIT:          0  dtMISS:          0
LLC TRANSLATION  ACCESS:     428216  HIT:      56910  MISS:     371306  iACCESS:          0  iHIT:          0  iMISS:          0  dACCESS:          0  dHIT:          0  dMISS:          0  itACCESS:      48935  itHIT:       4529  itMISS:      44406  dtACCESS:     379281  dtHIT:      52381  dtMISS:     326900
LLC PREFETCH  REQUESTED:          0  ISSUED:          0  CROSSED:          0  USEFUL:          0  USELESS:          0
LLC AVERAGE iMISS LATENCY: 48.8884 cycles
LLC AVERAGE dMISS LATENCY: 100.154 cycles
LLC AVERAGE itMISS LATENCY: 2.69493 cycles
LLC AVERAGE dtMISS LATENCY: 21.4108 cycles
LLC PAGE CROSSINGS (TLB HIT):         0 
LLC PAGE CROSSINGS (TLB MISS):         0 
LLC AVERAGE MISS LATENCY: 173.148 cycles

PageTableWalker TOTAL       ACCESS:     180203  
PageTableWalker AVERAGE LATENCY: 6.67188 cycles
PageTableWalker TOTAL LATENCY: 1202292 cycles

DRAM Statistics
Channel 0
 RQ ROW_BUFFER_HIT:     621892
  ROW_BUFFER_MISS:    2299911
 AVG DBUS CONGESTED CYCLE:    3.64814
 WQ ROW_BUFFER_HIT:      65739
  ROW_BUFFER_MISS:      57375  FULL:          0

