last_page:0x200000000000000
VMEM_RES_CAP:0x100000
PAGE_SIZE:4096
LOG2_PAGE_SIZE:12
LOG2_PAGE_TABLE_SIZE:9
page_table_levels:5
WARNING: physical memory size is smaller than virtual memory size
FDiP enabled with aggresivity 16

*** ChampSim Multicore Out-of-Order Simulator ***

Warmup Instructions: 50000000
Simulation Instructions: 100000000
Number of CPUs: 1
Small page size: 4096
Large page size: 2097152

CPU 0 Bimodal branch predictor
Basic BTB sets: 1024 ways: 8 indirect buffer size: 4096 RAS size: 64
Instruction page size distrubution: 0
Loading instruction page size distribution from /home/bsc/bsc018186/scratch/itp_asplos25_AE/dump/smt_srv537_ap_srv298_ap_1024i.pdst
Data page size distrubution: 0
Loading data page size distribution from /home/bsc/bsc018186/scratch/itp_asplos25_AE/dump/smt_srv537_ap_srv298_ap_1024i.pdst
cpu0_L2C IP-based stride prefetcher
cpu0_L1D next line prefetcher
CHiRPing...
cpu0_L1I next line prefetcher
Off-chip DRAM Size: 4 GiB Channels: 1 Width: 64-bit Data Rate: 3200 MT/s
Heartbeat CPU 0 instructions: 10000001 cycles: 2500503 heartbeat IPC: 3.9992 cumulative IPC: 3.9992 (Simulation time: 0 hr 0 min 42 sec) 
Heartbeat CPU 0 instructions: 20000001 cycles: 5000648 heartbeat IPC: 3.99977 cumulative IPC: 3.99949 (Simulation time: 0 hr 1 min 25 sec) 
Heartbeat CPU 0 instructions: 30000000 cycles: 7500826 heartbeat IPC: 3.99972 cumulative IPC: 3.99956 (Simulation time: 0 hr 2 min 9 sec) 
Heartbeat CPU 0 instructions: 40000002 cycles: 10000998 heartbeat IPC: 3.99973 cumulative IPC: 3.99961 (Simulation time: 0 hr 2 min 54 sec) 
Heartbeat CPU 0 instructions: 50000003 cycles: 12501419 heartbeat IPC: 3.99933 cumulative IPC: 3.99955 (Simulation time: 0 hr 3 min 39 sec) 
Warmup finished CPU 0 instructions: 50000003 cycles: 12501420 cumulative IPC: 3.99955 (Simulation time: 0 hr 3 min 39 sec) 

Warmup complete CPU 0 instructions: 50000003 cycles: 12501420 (Simulation time: 0 hr 3 min 39 sec) 

Heartbeat CPU 0 instructions: 60000003 cycles: 40389703 heartbeat IPC: 0.358574 cumulative IPC: 0.358574 (Simulation time: 0 hr 5 min 9 sec) 
Heartbeat CPU 0 instructions: 70000001 cycles: 67832569 heartbeat IPC: 0.364394 cumulative IPC: 0.361461 (Simulation time: 0 hr 6 min 34 sec) 
Heartbeat CPU 0 instructions: 80000001 cycles: 94680198 heartbeat IPC: 0.372473 cumulative IPC: 0.365058 (Simulation time: 0 hr 8 min 0 sec) 
Heartbeat CPU 0 instructions: 90000000 cycles: 122601604 heartbeat IPC: 0.358149 cumulative IPC: 0.363306 (Simulation time: 0 hr 9 min 26 sec) 
Heartbeat CPU 0 instructions: 100000003 cycles: 150034582 heartbeat IPC: 0.364525 cumulative IPC: 0.363549 (Simulation time: 0 hr 10 min 50 sec) 
Heartbeat CPU 0 instructions: 110000003 cycles: 179478567 heartbeat IPC: 0.339628 cumulative IPC: 0.359331 (Simulation time: 0 hr 12 min 19 sec) 
Heartbeat CPU 0 instructions: 120000000 cycles: 206882779 heartbeat IPC: 0.364908 cumulative IPC: 0.360117 (Simulation time: 0 hr 13 min 44 sec) 
Heartbeat CPU 0 instructions: 130000003 cycles: 235700188 heartbeat IPC: 0.347013 cumulative IPC: 0.358425 (Simulation time: 0 hr 15 min 10 sec) 
Heartbeat CPU 0 instructions: 140000003 cycles: 264264339 heartbeat IPC: 0.35009 cumulative IPC: 0.35748 (Simulation time: 0 hr 16 min 36 sec) 
Heartbeat CPU 0 instructions: 150000003 cycles: 293116050 heartbeat IPC: 0.3466 cumulative IPC: 0.356361 (Simulation time: 0 hr 18 min 3 sec) 
Simulation finished CPU 0 instructions: 100000000 cycles: 280614631 cumulative IPC: 0.356361 (Simulation time: 0 hr 18 min 3 sec) 

Simulation complete CPU 0 instructions: 100000000 cycles: 280614631 (Simulation time: 0 hr 18 min 3 sec) 


ChampSim completed all CPUs

Saving instructions large page distribution to /home/bsc/bsc018186/scratch/itp_asplos25_AE/dump/smt_srv537_ap_srv298_ap_1024i.pdst...
Saving data large page distribution to /home/bsc/bsc018186/scratch/itp_asplos25_AE/dump/smt_srv537_ap_srv298_ap_1024i.pdst...
=== Simulation ===
CPU 0 runs /gpfs/projects/bsc18/MN4/bsc18/romol/ChampSim/traces/qualcomm_srv/smt_srv537_ap_srv298_ap_1024i.champsimtrace.xz

Region of Interest Statistics

CPU 0 cumulative IPC: 0.356361 instructions: 100000000 cycles: 280614631
CPU 0 Branch Prediction Accuracy: 76.2198% MPKI: 42.8862 Average ROB Occupancy at Mispredict: 11.347
Branch type MPKI
BRANCH_DIRECT_JUMP: 1.26172
BRANCH_INDIRECT: 22.4047
BRANCH_CONDITIONAL: 12.4369
BRANCH_DIRECT_CALL: 2.43831
BRANCH_INDIRECT_CALL: 0.944601
BRANCH_RETURN: 3.40007

Instructions large pages: 0
Instructions small pages: 13840
Large page distribution for instructions: 0%

Data large pages: 0
Data small pages: 12554
Large page distribution for data: 0%

cpu0_L1I TOTAL       ACCESS:   39056722  HIT:   30368630  MISS:    8688092  iACCESS:   39056722  iHIT:   30368630  iMISS:    8688092  dACCESS:          0  dHIT:          0  dMISS:          0  itACCESS:          0  itHIT:          0  itMISS:          0  dtACCESS:          0  dtHIT:          0  dtMISS:          0
cpu0_L1I LOAD         ACCESS:   11734885  HIT:    9354311  MISS:    2380574  iACCESS:   11734885  iHIT:    9354311  iMISS:    2380574  dACCESS:          0  dHIT:          0  dMISS:          0  itACCESS:          0  itHIT:          0  itMISS:          0  dtACCESS:          0  dtHIT:          0  dtMISS:          0
cpu0_L1I RFO          ACCESS:          0  HIT:          0  MISS:          0  iACCESS:          0  iHIT:          0  iMISS:          0  dACCESS:          0  dHIT:          0  dMISS:          0  itACCESS:          0  itHIT:          0  itMISS:          0  dtACCESS:          0  dtHIT:          0  dtMISS:          0
cpu0_L1I PREFETCH     ACCESS:   27321837  HIT:   21014319  MISS:    6307518  iACCESS:   27321837  iHIT:   21014319  iMISS:    6307518  dACCESS:          0  dHIT:          0  dMISS:          0  itACCESS:          0  itHIT:          0  itMISS:          0  dtACCESS:          0  dtHIT:          0  dtMISS:          0
cpu0_L1I WRITE        ACCESS:          0  HIT:          0  MISS:          0  iACCESS:          0  iHIT:          0  iMISS:          0  dACCESS:          0  dHIT:          0  dMISS:          0  itACCESS:          0  itHIT:          0  itMISS:          0  dtACCESS:          0  dtHIT:          0  dtMISS:          0
cpu0_L1I TRANSLATION  ACCESS:          0  HIT:          0  MISS:          0  iACCESS:          0  iHIT:          0  iMISS:          0  dACCESS:          0  dHIT:          0  dMISS:          0  itACCESS:          0  itHIT:          0  itMISS:          0  dtACCESS:          0  dtHIT:          0  dtMISS:          0
cpu0_L1I PREFETCH  REQUESTED:   30191224  ISSUED:   30191083  CROSSED:          0  USEFUL:    2194696  USELESS:     757148
cpu0_L1I AVERAGE iMISS LATENCY: 22.389 cycles
cpu0_L1I AVERAGE dMISS LATENCY: 0 cycles
cpu0_L1I AVERAGE itMISS LATENCY: 0 cycles
cpu0_L1I AVERAGE dtMISS LATENCY: 0 cycles
cpu0_L1I PAGE CROSSINGS (TLB HIT):         0 
cpu0_L1I PAGE CROSSINGS (TLB MISS):         0 
cpu0_L1I AVERAGE MISS LATENCY: 22.389 cycles
cpu0_ITLB TOTAL       ACCESS:   32968890  HIT:   30747530  MISS:    2221360  iACCESS:   32968890  iHIT:   30747530  iMISS:    2221360  dACCESS:          0  dHIT:          0  dMISS:          0  itACCESS:          0  itHIT:          0  itMISS:          0  dtACCESS:          0  dtHIT:          0  dtMISS:          0
cpu0_ITLB LOAD         ACCESS:   32968890  HIT:   30747530  MISS:    2221360  iACCESS:   32968890  iHIT:   30747530  iMISS:    2221360  dACCESS:          0  dHIT:          0  dMISS:          0  itACCESS:          0  itHIT:          0  itMISS:          0  dtACCESS:          0  dtHIT:          0  dtMISS:          0
cpu0_ITLB RFO          ACCESS:          0  HIT:          0  MISS:          0  iACCESS:          0  iHIT:          0  iMISS:          0  dACCESS:          0  dHIT:          0  dMISS:          0  itACCESS:          0  itHIT:          0  itMISS:          0  dtACCESS:          0  dtHIT:          0  dtMISS:          0
cpu0_ITLB PREFETCH     ACCESS:          0  HIT:          0  MISS:          0  iACCESS:          0  iHIT:          0  iMISS:          0  dACCESS:          0  dHIT:          0  dMISS:          0  itACCESS:          0  itHIT:          0  itMISS:          0  dtACCESS:          0  dtHIT:          0  dtMISS:          0
cpu0_ITLB WRITE        ACCESS:          0  HIT:          0  MISS:          0  iACCESS:          0  iHIT:          0  iMISS:          0  dACCESS:          0  dHIT:          0  dMISS:          0  itACCESS:          0  itHIT:          0  itMISS:          0  dtACCESS:          0  dtHIT:          0  dtMISS:          0
cpu0_ITLB TRANSLATION  ACCESS:          0  HIT:          0  MISS:          0  iACCESS:          0  iHIT:          0  iMISS:          0  dACCESS:          0  dHIT:          0  dMISS:          0  itACCESS:          0  itHIT:          0  itMISS:          0  dtACCESS:          0  dtHIT:          0  dtMISS:          0
cpu0_ITLB PREFETCH  REQUESTED:          0  ISSUED:          0  CROSSED:          0  USEFUL:     384530  USELESS:      77857
cpu0_ITLB AVERAGE iMISS LATENCY: 9.2605 cycles
cpu0_ITLB AVERAGE dMISS LATENCY: 0 cycles
cpu0_ITLB AVERAGE itMISS LATENCY: 0 cycles
cpu0_ITLB AVERAGE dtMISS LATENCY: 0 cycles
cpu0_ITLB PAGE CROSSINGS (TLB HIT):         0 
cpu0_ITLB PAGE CROSSINGS (TLB MISS):         0 
cpu0_ITLB AVERAGE MISS LATENCY: 9.2605 cycles
cpu0_DTLB TOTAL       ACCESS:   28751232  HIT:   25273602  MISS:    3477630  iACCESS:          0  iHIT:          0  iMISS:          0  dACCESS:   28751232  dHIT:   25273602  dMISS:    3477630  itACCESS:          0  itHIT:          0  itMISS:          0  dtACCESS:          0  dtHIT:          0  dtMISS:          0
cpu0_DTLB LOAD         ACCESS:   28751232  HIT:   25273602  MISS:    3477630  iACCESS:          0  iHIT:          0  iMISS:          0  dACCESS:   28751232  dHIT:   25273602  dMISS:    3477630  itACCESS:          0  itHIT:          0  itMISS:          0  dtACCESS:          0  dtHIT:          0  dtMISS:          0
cpu0_DTLB RFO          ACCESS:          0  HIT:          0  MISS:          0  iACCESS:          0  iHIT:          0  iMISS:          0  dACCESS:          0  dHIT:          0  dMISS:          0  itACCESS:          0  itHIT:          0  itMISS:          0  dtACCESS:          0  dtHIT:          0  dtMISS:          0
cpu0_DTLB PREFETCH     ACCESS:          0  HIT:          0  MISS:          0  iACCESS:          0  iHIT:          0  iMISS:          0  dACCESS:          0  dHIT:          0  dMISS:          0  itACCESS:          0  itHIT:          0  itMISS:          0  dtACCESS:          0  dtHIT:          0  dtMISS:          0
cpu0_DTLB WRITE        ACCESS:          0  HIT:          0  MISS:          0  iACCESS:          0  iHIT:          0  iMISS:          0  dACCESS:          0  dHIT:          0  dMISS:          0  itACCESS:          0  itHIT:          0  itMISS:          0  dtACCESS:          0  dtHIT:          0  dtMISS:          0
cpu0_DTLB TRANSLATION  ACCESS:          0  HIT:          0  MISS:          0  iACCESS:          0  iHIT:          0  iMISS:          0  dACCESS:          0  dHIT:          0  dMISS:          0  itACCESS:          0  itHIT:          0  itMISS:          0  dtACCESS:          0  dtHIT:          0  dtMISS:          0
cpu0_DTLB PREFETCH  REQUESTED:          0  ISSUED:          0  CROSSED:          0  USEFUL:          0  USELESS:          0
cpu0_DTLB AVERAGE iMISS LATENCY: 0 cycles
cpu0_DTLB AVERAGE dMISS LATENCY: 24.0948 cycles
cpu0_DTLB AVERAGE itMISS LATENCY: 0 cycles
cpu0_DTLB AVERAGE dtMISS LATENCY: 0 cycles
cpu0_DTLB PAGE CROSSINGS (TLB HIT):         0 
cpu0_DTLB PAGE CROSSINGS (TLB MISS):         0 
cpu0_DTLB AVERAGE MISS LATENCY: 24.0948 cycles
cpu0_STLB TOTAL       ACCESS:    2430775  HIT:    2089451  MISS:     341324  iACCESS:     462391  iHIT:     358070  iMISS:     104321  dACCESS:    1968384  dHIT:    1731381  dMISS:     237003  itACCESS:          0  itHIT:          0  itMISS:          0  dtACCESS:          0  dtHIT:          0  dtMISS:          0
cpu0_STLB LOAD         ACCESS:    2430775  HIT:    2089451  MISS:     341324  iACCESS:     462391  iHIT:     358070  iMISS:     104321  dACCESS:    1968384  dHIT:    1731381  dMISS:     237003  itACCESS:          0  itHIT:          0  itMISS:          0  dtACCESS:          0  dtHIT:          0  dtMISS:          0
cpu0_STLB RFO          ACCESS:          0  HIT:          0  MISS:          0  iACCESS:          0  iHIT:          0  iMISS:          0  dACCESS:          0  dHIT:          0  dMISS:          0  itACCESS:          0  itHIT:          0  itMISS:          0  dtACCESS:          0  dtHIT:          0  dtMISS:          0
cpu0_STLB PREFETCH     ACCESS:          0  HIT:          0  MISS:          0  iACCESS:          0  iHIT:          0  iMISS:          0  dACCESS:          0  dHIT:          0  dMISS:          0  itACCESS:          0  itHIT:          0  itMISS:          0  dtACCESS:          0  dtHIT:          0  dtMISS:          0
cpu0_STLB WRITE        ACCESS:          0  HIT:          0  MISS:          0  iACCESS:          0  iHIT:          0  iMISS:          0  dACCESS:          0  dHIT:          0  dMISS:          0  itACCESS:          0  itHIT:          0  itMISS:          0  dtACCESS:          0  dtHIT:          0  dtMISS:          0
cpu0_STLB TRANSLATION  ACCESS:          0  HIT:          0  MISS:          0  iACCESS:          0  iHIT:          0  iMISS:          0  dACCESS:          0  dHIT:          0  dMISS:          0  itACCESS:          0  itHIT:          0  itMISS:          0  dtACCESS:          0  dtHIT:          0  dtMISS:          0
cpu0_STLB PREFETCH  REQUESTED:          0  ISSUED:          0  CROSSED:          0  USEFUL:          0  USELESS:          0
cpu0_STLB AVERAGE iMISS LATENCY: 49.4587 cycles
cpu0_STLB AVERAGE dMISS LATENCY: 199.151 cycles
cpu0_STLB AVERAGE itMISS LATENCY: 0 cycles
cpu0_STLB AVERAGE dtMISS LATENCY: 0 cycles
cpu0_STLB PAGE CROSSINGS (TLB HIT):         0 
cpu0_STLB PAGE CROSSINGS (TLB MISS):         0 
cpu0_STLB AVERAGE MISS LATENCY: 248.609 cycles
cpu0_L1D TOTAL       ACCESS:   44319338  HIT:   39067599  MISS:    5251739  iACCESS:          0  iHIT:          0  iMISS:          0  dACCESS:   43806210  dHIT:   39034318  dMISS:    4771892  itACCESS:     116329  itHIT:      15296  itMISS:     101033  dtACCESS:     396799  dtHIT:      17985  dtMISS:     378814
cpu0_L1D LOAD         ACCESS:   19968757  HIT:   17825361  MISS:    2143396  iACCESS:          0  iHIT:          0  iMISS:          0  dACCESS:   19968757  dHIT:   17825361  dMISS:    2143396  itACCESS:          0  itHIT:          0  itMISS:          0  dtACCESS:          0  dtHIT:          0  dtMISS:          0
cpu0_L1D RFO          ACCESS:          0  HIT:          0  MISS:          0  iACCESS:          0  iHIT:          0  iMISS:          0  dACCESS:          0  dHIT:          0  dMISS:          0  itACCESS:          0  itHIT:          0  itMISS:          0  dtACCESS:          0  dtHIT:          0  dtMISS:          0
cpu0_L1D PREFETCH     ACCESS:   13649734  HIT:   11560249  MISS:    2089485  iACCESS:          0  iHIT:          0  iMISS:          0  dACCESS:   13649734  dHIT:   11560249  dMISS:    2089485  itACCESS:          0  itHIT:          0  itMISS:          0  dtACCESS:          0  dtHIT:          0  dtMISS:          0
cpu0_L1D WRITE        ACCESS:   10187719  HIT:    9648708  MISS:     539011  iACCESS:          0  iHIT:          0  iMISS:          0  dACCESS:   10187719  dHIT:    9648708  dMISS:     539011  itACCESS:          0  itHIT:          0  itMISS:          0  dtACCESS:          0  dtHIT:          0  dtMISS:          0
cpu0_L1D TRANSLATION  ACCESS:     513128  HIT:      33281  MISS:     479847  iACCESS:          0  iHIT:          0  iMISS:          0  dACCESS:          0  dHIT:          0  dMISS:          0  itACCESS:     116329  itHIT:      15296  itMISS:     101033  dtACCESS:     396799  dtHIT:      17985  dtMISS:     378814
cpu0_L1D PREFETCH  REQUESTED:   19968757  ISSUED:   18233825  CROSSED:          0  USEFUL:     369596  USELESS:     907305
cpu0_L1D AVERAGE iMISS LATENCY: 0 cycles
cpu0_L1D AVERAGE dMISS LATENCY: 49.5053 cycles
cpu0_L1D AVERAGE itMISS LATENCY: 3.0269 cycles
cpu0_L1D AVERAGE dtMISS LATENCY: 11.9483 cycles
cpu0_L1D PAGE CROSSINGS (TLB HIT):         0 
cpu0_L1D PAGE CROSSINGS (TLB MISS):         0 
cpu0_L1D AVERAGE MISS LATENCY: 64.4804 cycles
cpu0_L2C TOTAL       ACCESS:    8491073  HIT:    4296009  MISS:    4195064  iACCESS:    3764490  iHIT:    2371923  iMISS:    1392567  dACCESS:    4282665  dHIT:    1869861  dMISS:    2412804  itACCESS:     100764  itHIT:      19157  itMISS:      81607  dtACCESS:     343154  dtHIT:      35068  dtMISS:     308086
cpu0_L2C LOAD         ACCESS:    2049537  HIT:    1054334  MISS:     995203  iACCESS:     852249  iHIT:     565359  iMISS:     286890  dACCESS:    1197288  dHIT:     488975  dMISS:     708313  itACCESS:          0  itHIT:          0  itMISS:          0  dtACCESS:          0  dtHIT:          0  dtMISS:          0
cpu0_L2C RFO          ACCESS:     208386  HIT:      81762  MISS:     126624  iACCESS:          0  iHIT:          0  iMISS:          0  dACCESS:     208386  dHIT:      81762  dMISS:     126624  itACCESS:          0  itHIT:          0  itMISS:          0  dtACCESS:          0  dtHIT:          0  dtMISS:          0
cpu0_L2C PREFETCH     ACCESS:    5439073  HIT:    2759477  MISS:    2679596  iACCESS:    2912241  iHIT:    1806564  iMISS:    1105677  dACCESS:    2526832  dHIT:     952913  dMISS:    1573919  itACCESS:          0  itHIT:          0  itMISS:          0  dtACCESS:          0  dtHIT:          0  dtMISS:          0
cpu0_L2C WRITE        ACCESS:     350159  HIT:     346211  MISS:       3948  iACCESS:          0  iHIT:          0  iMISS:          0  dACCESS:     350159  dHIT:     346211  dMISS:       3948  itACCESS:          0  itHIT:          0  itMISS:          0  dtACCESS:          0  dtHIT:          0  dtMISS:          0
cpu0_L2C TRANSLATION  ACCESS:     443918  HIT:      54225  MISS:     389693  iACCESS:          0  iHIT:          0  iMISS:          0  dACCESS:          0  dHIT:          0  dMISS:          0  itACCESS:     100764  itHIT:      19157  itMISS:      81607  dtACCESS:     343154  dtHIT:      35068  dtMISS:     308086
cpu0_L2C PREFETCH  REQUESTED:    1493285  ISSUED:    1493285  CROSSED:          0  USEFUL:     352326  USELESS:     308966
cpu0_L2C AVERAGE iMISS LATENCY: 38.6663 cycles
cpu0_L2C AVERAGE dMISS LATENCY: 77.0411 cycles
cpu0_L2C AVERAGE itMISS LATENCY: 3.55304 cycles
cpu0_L2C AVERAGE dtMISS LATENCY: 14.1434 cycles
cpu0_L2C PAGE CROSSINGS (TLB HIT):         0 
cpu0_L2C PAGE CROSSINGS (TLB MISS):         0 
cpu0_L2C AVERAGE MISS LATENCY: 133.404 cycles
LLC TOTAL       ACCESS:    4196169  HIT:    1364665  MISS:    2831504  iACCESS:    1304566  iHIT:     434504  iMISS:     870062  dACCESS:    2501910  dHIT:     891365  dMISS:    1610545  itACCESS:      81607  itHIT:       7160  itMISS:      74447  dtACCESS:     308086  dtHIT:      31636  dtMISS:     276450
LLC LOAD         ACCESS:     990000  HIT:     342206  MISS:     647794  iACCESS:     285828  iHIT:     102730  iMISS:     183098  dACCESS:     704172  dHIT:     239476  dMISS:     464696  itACCESS:          0  itHIT:          0  itMISS:          0  dtACCESS:          0  dtHIT:          0  dtMISS:          0
LLC RFO          ACCESS:     126619  HIT:      42812  MISS:      83807  iACCESS:          0  iHIT:          0  iMISS:          0  dACCESS:     126619  dHIT:      42812  dMISS:      83807  itACCESS:          0  itHIT:          0  itMISS:          0  dtACCESS:          0  dtHIT:          0  dtMISS:          0
LLC PREFETCH     ACCESS:    2478037  HIT:     739679  MISS:    1738358  iACCESS:    1018738  iHIT:     331774  iMISS:     686964  dACCESS:    1459299  dHIT:     407905  dMISS:    1051394  itACCESS:          0  itHIT:          0  itMISS:          0  dtACCESS:          0  dtHIT:          0  dtMISS:          0
LLC WRITE        ACCESS:     211820  HIT:     201172  MISS:      10648  iACCESS:          0  iHIT:          0  iMISS:          0  dACCESS:     211820  dHIT:     201172  dMISS:      10648  itACCESS:          0  itHIT:          0  itMISS:          0  dtACCESS:          0  dtHIT:          0  dtMISS:          0
LLC TRANSLATION  ACCESS:     389693  HIT:      38796  MISS:     350897  iACCESS:          0  iHIT:          0  iMISS:          0  dACCESS:          0  dHIT:          0  dMISS:          0  itACCESS:      81607  itHIT:       7160  itMISS:      74447  dtACCESS:     308086  dtHIT:      31636  dtMISS:     276450
LLC PREFETCH  REQUESTED:          0  ISSUED:          0  CROSSED:          0  USEFUL:          0  USELESS:          0
LLC AVERAGE iMISS LATENCY: 48.2199 cycles
LLC AVERAGE dMISS LATENCY: 98.7894 cycles
LLC AVERAGE itMISS LATENCY: 4.69282 cycles
LLC AVERAGE dtMISS LATENCY: 18.8031 cycles
LLC PAGE CROSSINGS (TLB HIT):         0 
LLC PAGE CROSSINGS (TLB MISS):         0 
LLC AVERAGE MISS LATENCY: 170.506 cycles

PageTableWalker TOTAL       ACCESS:     169935  
PageTableWalker AVERAGE LATENCY: 6.54599 cycles
PageTableWalker TOTAL LATENCY: 1112392 cycles

DRAM Statistics
Channel 0
 RQ ROW_BUFFER_HIT:     616338
  ROW_BUFFER_MISS:    2194325
 AVG DBUS CONGESTED CYCLE:    3.64808
 WQ ROW_BUFFER_HIT:      61775
  ROW_BUFFER_MISS:      53380  FULL:          0

