last_page:0x200000000000000
VMEM_RES_CAP:0x100000
PAGE_SIZE:4096
LOG2_PAGE_SIZE:12
LOG2_PAGE_TABLE_SIZE:9
page_table_levels:5
WARNING: physical memory size is smaller than virtual memory size
FDiP enabled with aggresivity 16

*** ChampSim Multicore Out-of-Order Simulator ***

Warmup Instructions: 50000000
Simulation Instructions: 100000000
Number of CPUs: 1
Small page size: 4096
Large page size: 2097152

CPU 0 Bimodal branch predictor
Basic BTB sets: 1024 ways: 8 indirect buffer size: 4096 RAS size: 64
Instruction page size distrubution: 0
Loading instruction page size distribution from /home/bsc/bsc018186/scratch/itp_asplos25_AE/dump/smt_srv540_ap_srv551_ap_1024i.pdst
Data page size distrubution: 0
Loading data page size distribution from /home/bsc/bsc018186/scratch/itp_asplos25_AE/dump/smt_srv540_ap_srv551_ap_1024i.pdst
cpu0_L2C IP-based stride prefetcher
cpu0_L2C is using PTP replacement policy:
	TLB_STRESS_THRESHOLD:0
	PTE_EVICTION_RATIO:0
cpu0_L1D next line prefetcher
cpu0_STLB using iTP with max lru@8
cpu0_STLB using iTP with instr@0 and data@2
Init sat counter with 3 bits (max:50).
cpu0_L1I next line prefetcher
Off-chip DRAM Size: 4 GiB Channels: 1 Width: 64-bit Data Rate: 3200 MT/s
Heartbeat CPU 0 instructions: 10000003 cycles: 2500345 heartbeat IPC: 3.99945 cumulative IPC: 3.99945 (Simulation time: 0 hr 0 min 38 sec) 
Heartbeat CPU 0 instructions: 20000001 cycles: 5000462 heartbeat IPC: 3.99982 cumulative IPC: 3.99964 (Simulation time: 0 hr 1 min 17 sec) 
Heartbeat CPU 0 instructions: 30000003 cycles: 7500561 heartbeat IPC: 3.99985 cumulative IPC: 3.99971 (Simulation time: 0 hr 1 min 57 sec) 
Heartbeat CPU 0 instructions: 40000003 cycles: 10000651 heartbeat IPC: 3.99986 cumulative IPC: 3.99974 (Simulation time: 0 hr 2 min 38 sec) 
Heartbeat CPU 0 instructions: 50000000 cycles: 12500835 heartbeat IPC: 3.99971 cumulative IPC: 3.99974 (Simulation time: 0 hr 3 min 19 sec) 
Warmup finished CPU 0 instructions: 50000000 cycles: 12500836 cumulative IPC: 3.99974 (Simulation time: 0 hr 3 min 19 sec) 

Warmup complete CPU 0 instructions: 50000000 cycles: 12500836 (Simulation time: 0 hr 3 min 19 sec) 

Heartbeat CPU 0 instructions: 60000000 cycles: 42642247 heartbeat IPC: 0.33177 cumulative IPC: 0.33177 (Simulation time: 0 hr 4 min 41 sec) 
Heartbeat CPU 0 instructions: 70000000 cycles: 73345637 heartbeat IPC: 0.325697 cumulative IPC: 0.328706 (Simulation time: 0 hr 6 min 3 sec) 
Heartbeat CPU 0 instructions: 80000002 cycles: 103704314 heartbeat IPC: 0.329396 cumulative IPC: 0.328935 (Simulation time: 0 hr 7 min 25 sec) 
Heartbeat CPU 0 instructions: 90000000 cycles: 133812886 heartbeat IPC: 0.332132 cumulative IPC: 0.329729 (Simulation time: 0 hr 8 min 47 sec) 
Heartbeat CPU 0 instructions: 100000003 cycles: 165019265 heartbeat IPC: 0.320448 cumulative IPC: 0.32783 (Simulation time: 0 hr 10 min 9 sec) 
Heartbeat CPU 0 instructions: 110000000 cycles: 194004492 heartbeat IPC: 0.345004 cumulative IPC: 0.330572 (Simulation time: 0 hr 11 min 29 sec) 
Heartbeat CPU 0 instructions: 120000002 cycles: 220129953 heartbeat IPC: 0.382769 cumulative IPC: 0.33714 (Simulation time: 0 hr 12 min 47 sec) 
Heartbeat CPU 0 instructions: 130000000 cycles: 236708795 heartbeat IPC: 0.603179 cumulative IPC: 0.356812 (Simulation time: 0 hr 13 min 53 sec) 
Heartbeat CPU 0 instructions: 140000002 cycles: 254087284 heartbeat IPC: 0.575425 cumulative IPC: 0.372538 (Simulation time: 0 hr 15 min 1 sec) 
Heartbeat CPU 0 instructions: 150000001 cycles: 284887450 heartbeat IPC: 0.324674 cumulative IPC: 0.367126 (Simulation time: 0 hr 16 min 23 sec) 
Simulation finished CPU 0 instructions: 100000001 cycles: 272386615 cumulative IPC: 0.367126 (Simulation time: 0 hr 16 min 23 sec) 

Simulation complete CPU 0 instructions: 100000001 cycles: 272386615 (Simulation time: 0 hr 16 min 23 sec) 


ChampSim completed all CPUs

Saving instructions large page distribution to /home/bsc/bsc018186/scratch/itp_asplos25_AE/dump/smt_srv540_ap_srv551_ap_1024i.pdst...
Saving data large page distribution to /home/bsc/bsc018186/scratch/itp_asplos25_AE/dump/smt_srv540_ap_srv551_ap_1024i.pdst...
=== Simulation ===
CPU 0 runs /gpfs/projects/bsc18/MN4/bsc18/romol/ChampSim/traces/qualcomm_srv/smt_srv540_ap_srv551_ap_1024i.champsimtrace.xz

Region of Interest Statistics

CPU 0 cumulative IPC: 0.367126 instructions: 100000001 cycles: 272386615
CPU 0 Branch Prediction Accuracy: 77.9969% MPKI: 42.4509 Average ROB Occupancy at Mispredict: 11.3803
Branch type MPKI
BRANCH_DIRECT_JUMP: 1.23399
BRANCH_INDIRECT: 22.8261
BRANCH_CONDITIONAL: 11.6402
BRANCH_DIRECT_CALL: 2.36679
BRANCH_INDIRECT_CALL: 1.07038
BRANCH_RETURN: 3.31346

Instructions large pages: 0
Instructions small pages: 10131
Large page distribution for instructions: 0%

Data large pages: 0
Data small pages: 8688
Large page distribution for data: 0%

cpu0_L1I TOTAL       ACCESS:   39686993  HIT:   32010745  MISS:    7676248  iACCESS:   39686993  iHIT:   32010745  iMISS:    7676248  dACCESS:          0  dHIT:          0  dMISS:          0  itACCESS:          0  itHIT:          0  itMISS:          0  dtACCESS:          0  dtHIT:          0  dtMISS:          0
cpu0_L1I LOAD         ACCESS:   11330298  HIT:    9241524  MISS:    2088774  iACCESS:   11330298  iHIT:    9241524  iMISS:    2088774  dACCESS:          0  dHIT:          0  dMISS:          0  itACCESS:          0  itHIT:          0  itMISS:          0  dtACCESS:          0  dtHIT:          0  dtMISS:          0
cpu0_L1I RFO          ACCESS:          0  HIT:          0  MISS:          0  iACCESS:          0  iHIT:          0  iMISS:          0  dACCESS:          0  dHIT:          0  dMISS:          0  itACCESS:          0  itHIT:          0  itMISS:          0  dtACCESS:          0  dtHIT:          0  dtMISS:          0
cpu0_L1I PREFETCH     ACCESS:   28356695  HIT:   22769221  MISS:    5587474  iACCESS:   28356695  iHIT:   22769221  iMISS:    5587474  dACCESS:          0  dHIT:          0  dMISS:          0  itACCESS:          0  itHIT:          0  itMISS:          0  dtACCESS:          0  dtHIT:          0  dtMISS:          0
cpu0_L1I WRITE        ACCESS:          0  HIT:          0  MISS:          0  iACCESS:          0  iHIT:          0  iMISS:          0  dACCESS:          0  dHIT:          0  dMISS:          0  itACCESS:          0  itHIT:          0  itMISS:          0  dtACCESS:          0  dtHIT:          0  dtMISS:          0
cpu0_L1I TRANSLATION  ACCESS:          0  HIT:          0  MISS:          0  iACCESS:          0  iHIT:          0  iMISS:          0  dACCESS:          0  dHIT:          0  dMISS:          0  itACCESS:          0  itHIT:          0  itMISS:          0  dtACCESS:          0  dtHIT:          0  dtMISS:          0
cpu0_L1I PREFETCH  REQUESTED:   31040433  ISSUED:   31039783  CROSSED:          0  USEFUL:    1958913  USELESS:     678872
cpu0_L1I AVERAGE iMISS LATENCY: 24.5253 cycles
cpu0_L1I AVERAGE dMISS LATENCY: 0 cycles
cpu0_L1I AVERAGE itMISS LATENCY: 0 cycles
cpu0_L1I AVERAGE dtMISS LATENCY: 0 cycles
cpu0_L1I PAGE CROSSINGS (TLB HIT):         0 
cpu0_L1I PAGE CROSSINGS (TLB MISS):         0 
cpu0_L1I AVERAGE MISS LATENCY: 24.5253 cycles
cpu0_ITLB TOTAL       ACCESS:   33395691  HIT:   31424172  MISS:    1971519  iACCESS:   33395691  iHIT:   31424172  iMISS:    1971519  dACCESS:          0  dHIT:          0  dMISS:          0  itACCESS:          0  itHIT:          0  itMISS:          0  dtACCESS:          0  dtHIT:          0  dtMISS:          0
cpu0_ITLB LOAD         ACCESS:   33395691  HIT:   31424172  MISS:    1971519  iACCESS:   33395691  iHIT:   31424172  iMISS:    1971519  dACCESS:          0  dHIT:          0  dMISS:          0  itACCESS:          0  itHIT:          0  itMISS:          0  dtACCESS:          0  dtHIT:          0  dtMISS:          0
cpu0_ITLB RFO          ACCESS:          0  HIT:          0  MISS:          0  iACCESS:          0  iHIT:          0  iMISS:          0  dACCESS:          0  dHIT:          0  dMISS:          0  itACCESS:          0  itHIT:          0  itMISS:          0  dtACCESS:          0  dtHIT:          0  dtMISS:          0
cpu0_ITLB PREFETCH     ACCESS:          0  HIT:          0  MISS:          0  iACCESS:          0  iHIT:          0  iMISS:          0  dACCESS:          0  dHIT:          0  dMISS:          0  itACCESS:          0  itHIT:          0  itMISS:          0  dtACCESS:          0  dtHIT:          0  dtMISS:          0
cpu0_ITLB WRITE        ACCESS:          0  HIT:          0  MISS:          0  iACCESS:          0  iHIT:          0  iMISS:          0  dACCESS:          0  dHIT:          0  dMISS:          0  itACCESS:          0  itHIT:          0  itMISS:          0  dtACCESS:          0  dtHIT:          0  dtMISS:          0
cpu0_ITLB TRANSLATION  ACCESS:          0  HIT:          0  MISS:          0  iACCESS:          0  iHIT:          0  iMISS:          0  dACCESS:          0  dHIT:          0  dMISS:          0  itACCESS:          0  itHIT:          0  itMISS:          0  dtACCESS:          0  dtHIT:          0  dtMISS:          0
cpu0_ITLB PREFETCH  REQUESTED:          0  ISSUED:          0  CROSSED:          0  USEFUL:     345486  USELESS:      70692
cpu0_ITLB AVERAGE iMISS LATENCY: 6.66423 cycles
cpu0_ITLB AVERAGE dMISS LATENCY: 0 cycles
cpu0_ITLB AVERAGE itMISS LATENCY: 0 cycles
cpu0_ITLB AVERAGE dtMISS LATENCY: 0 cycles
cpu0_ITLB PAGE CROSSINGS (TLB HIT):         0 
cpu0_ITLB PAGE CROSSINGS (TLB MISS):         0 
cpu0_ITLB AVERAGE MISS LATENCY: 6.66423 cycles
cpu0_DTLB TOTAL       ACCESS:   30723531  HIT:   24556739  MISS:    6166792  iACCESS:          0  iHIT:          0  iMISS:          0  dACCESS:   30723531  dHIT:   24556739  dMISS:    6166792  itACCESS:          0  itHIT:          0  itMISS:          0  dtACCESS:          0  dtHIT:          0  dtMISS:          0
cpu0_DTLB LOAD         ACCESS:   30723531  HIT:   24556739  MISS:    6166792  iACCESS:          0  iHIT:          0  iMISS:          0  dACCESS:   30723531  dHIT:   24556739  dMISS:    6166792  itACCESS:          0  itHIT:          0  itMISS:          0  dtACCESS:          0  dtHIT:          0  dtMISS:          0
cpu0_DTLB RFO          ACCESS:          0  HIT:          0  MISS:          0  iACCESS:          0  iHIT:          0  iMISS:          0  dACCESS:          0  dHIT:          0  dMISS:          0  itACCESS:          0  itHIT:          0  itMISS:          0  dtACCESS:          0  dtHIT:          0  dtMISS:          0
cpu0_DTLB PREFETCH     ACCESS:          0  HIT:          0  MISS:          0  iACCESS:          0  iHIT:          0  iMISS:          0  dACCESS:          0  dHIT:          0  dMISS:          0  itACCESS:          0  itHIT:          0  itMISS:          0  dtACCESS:          0  dtHIT:          0  dtMISS:          0
cpu0_DTLB WRITE        ACCESS:          0  HIT:          0  MISS:          0  iACCESS:          0  iHIT:          0  iMISS:          0  dACCESS:          0  dHIT:          0  dMISS:          0  itACCESS:          0  itHIT:          0  itMISS:          0  dtACCESS:          0  dtHIT:          0  dtMISS:          0
cpu0_DTLB TRANSLATION  ACCESS:          0  HIT:          0  MISS:          0  iACCESS:          0  iHIT:          0  iMISS:          0  dACCESS:          0  dHIT:          0  dMISS:          0  itACCESS:          0  itHIT:          0  itMISS:          0  dtACCESS:          0  dtHIT:          0  dtMISS:          0
cpu0_DTLB PREFETCH  REQUESTED:          0  ISSUED:          0  CROSSED:          0  USEFUL:          0  USELESS:          0
cpu0_DTLB AVERAGE iMISS LATENCY: 0 cycles
cpu0_DTLB AVERAGE dMISS LATENCY: 15.7578 cycles
cpu0_DTLB AVERAGE itMISS LATENCY: 0 cycles
cpu0_DTLB AVERAGE dtMISS LATENCY: 0 cycles
cpu0_DTLB PAGE CROSSINGS (TLB HIT):         0 
cpu0_DTLB PAGE CROSSINGS (TLB MISS):         0 
cpu0_DTLB AVERAGE MISS LATENCY: 15.7578 cycles
cpu0_STLB TOTAL       ACCESS:    3670973  HIT:    3349698  MISS:     321275  iACCESS:     416181  iHIT:     364132  iMISS:      52049  dACCESS:    3254792  dHIT:    2985566  dMISS:     269226  itACCESS:          0  itHIT:          0  itMISS:          0  dtACCESS:          0  dtHIT:          0  dtMISS:          0
cpu0_STLB LOAD         ACCESS:    3670973  HIT:    3349698  MISS:     321275  iACCESS:     416181  iHIT:     364132  iMISS:      52049  dACCESS:    3254792  dHIT:    2985566  dMISS:     269226  itACCESS:          0  itHIT:          0  itMISS:          0  dtACCESS:          0  dtHIT:          0  dtMISS:          0
cpu0_STLB RFO          ACCESS:          0  HIT:          0  MISS:          0  iACCESS:          0  iHIT:          0  iMISS:          0  dACCESS:          0  dHIT:          0  dMISS:          0  itACCESS:          0  itHIT:          0  itMISS:          0  dtACCESS:          0  dtHIT:          0  dtMISS:          0
cpu0_STLB PREFETCH     ACCESS:          0  HIT:          0  MISS:          0  iACCESS:          0  iHIT:          0  iMISS:          0  dACCESS:          0  dHIT:          0  dMISS:          0  itACCESS:          0  itHIT:          0  itMISS:          0  dtACCESS:          0  dtHIT:          0  dtMISS:          0
cpu0_STLB WRITE        ACCESS:          0  HIT:          0  MISS:          0  iACCESS:          0  iHIT:          0  iMISS:          0  dACCESS:          0  dHIT:          0  dMISS:          0  itACCESS:          0  itHIT:          0  itMISS:          0  dtACCESS:          0  dtHIT:          0  dtMISS:          0
cpu0_STLB TRANSLATION  ACCESS:          0  HIT:          0  MISS:          0  iACCESS:          0  iHIT:          0  iMISS:          0  dACCESS:          0  dHIT:          0  dMISS:          0  itACCESS:          0  itHIT:          0  itMISS:          0  dtACCESS:          0  dtHIT:          0  dtMISS:          0
cpu0_STLB PREFETCH  REQUESTED:          0  ISSUED:          0  CROSSED:          0  USEFUL:          0  USELESS:          0
cpu0_STLB AVERAGE iMISS LATENCY: 30.7012 cycles
cpu0_STLB AVERAGE dMISS LATENCY: 220.377 cycles
cpu0_STLB AVERAGE itMISS LATENCY: 0 cycles
cpu0_STLB AVERAGE dtMISS LATENCY: 0 cycles
cpu0_STLB PAGE CROSSINGS (TLB HIT):         0 
cpu0_STLB PAGE CROSSINGS (TLB MISS):         0 
cpu0_STLB AVERAGE MISS LATENCY: 251.078 cycles
cpu0_L1D TOTAL       ACCESS:   47745237  HIT:   39402067  MISS:    8343170  iACCESS:          0  iHIT:          0  iMISS:          0  dACCESS:   47262155  dHIT:   39377528  dMISS:    7884627  itACCESS:      60739  itHIT:       4525  itMISS:      56214  dtACCESS:     422343  dtHIT:      20014  dtMISS:     402329
cpu0_L1D LOAD         ACCESS:   22727216  HIT:   18290364  MISS:    4436852  iACCESS:          0  iHIT:          0  iMISS:          0  dACCESS:   22727216  dHIT:   18290364  dMISS:    4436852  itACCESS:          0  itHIT:          0  itMISS:          0  dtACCESS:          0  dtHIT:          0  dtMISS:          0
cpu0_L1D RFO          ACCESS:          0  HIT:          0  MISS:          0  iACCESS:          0  iHIT:          0  iMISS:          0  dACCESS:          0  dHIT:          0  dMISS:          0  itACCESS:          0  itHIT:          0  itMISS:          0  dtACCESS:          0  dtHIT:          0  dtMISS:          0
cpu0_L1D PREFETCH     ACCESS:   14760111  HIT:   11876622  MISS:    2883489  iACCESS:          0  iHIT:          0  iMISS:          0  dACCESS:   14760111  dHIT:   11876622  dMISS:    2883489  itACCESS:          0  itHIT:          0  itMISS:          0  dtACCESS:          0  dtHIT:          0  dtMISS:          0
cpu0_L1D WRITE        ACCESS:    9774828  HIT:    9210542  MISS:     564286  iACCESS:          0  iHIT:          0  iMISS:          0  dACCESS:    9774828  dHIT:    9210542  dMISS:     564286  itACCESS:          0  itHIT:          0  itMISS:          0  dtACCESS:          0  dtHIT:          0  dtMISS:          0
cpu0_L1D TRANSLATION  ACCESS:     483082  HIT:      24539  MISS:     458543  iACCESS:          0  iHIT:          0  iMISS:          0  dACCESS:          0  dHIT:          0  dMISS:          0  itACCESS:      60739  itHIT:       4525  itMISS:      56214  dtACCESS:     422343  dtHIT:      20014  dtMISS:     402329
cpu0_L1D PREFETCH  REQUESTED:   22727216  ISSUED:   18845427  CROSSED:          0  USEFUL:     326798  USELESS:    1177559
cpu0_L1D AVERAGE iMISS LATENCY: 0 cycles
cpu0_L1D AVERAGE dMISS LATENCY: 33.0761 cycles
cpu0_L1D AVERAGE itMISS LATENCY: 1.11666 cycles
cpu0_L1D AVERAGE dtMISS LATENCY: 7.93534 cycles
cpu0_L1D PAGE CROSSINGS (TLB HIT):         0 
cpu0_L1D PAGE CROSSINGS (TLB MISS):         0 
cpu0_L1D AVERAGE MISS LATENCY: 42.1281 cycles
cpu0_L2C TOTAL       ACCESS:    9957071  HIT:    6058155  MISS:    3898916  iACCESS:    3347541  iHIT:    2031226  iMISS:    1316315  dACCESS:    6171636  dHIT:    3967937  dMISS:    2203699  itACCESS:      56174  itHIT:       9007  itMISS:      47167  dtACCESS:     381720  dtHIT:      49985  dtMISS:     331735
cpu0_L2C LOAD         ACCESS:    3672526  HIT:    2757807  MISS:     914719  iACCESS:     743156  iHIT:     469482  iMISS:     273674  dACCESS:    2929370  dHIT:    2288325  dMISS:     641045  itACCESS:          0  itHIT:          0  itMISS:          0  dtACCESS:          0  dtHIT:          0  dtMISS:          0
cpu0_L2C RFO          ACCESS:     227588  HIT:     111451  MISS:     116137  iACCESS:          0  iHIT:          0  iMISS:          0  dACCESS:     227588  dHIT:     111451  dMISS:     116137  itACCESS:          0  itHIT:          0  itMISS:          0  dtACCESS:          0  dtHIT:          0  dtMISS:          0
cpu0_L2C PREFETCH     ACCESS:    5293114  HIT:    2806898  MISS:    2486216  iACCESS:    2604385  iHIT:    1561744  iMISS:    1042641  dACCESS:    2688729  dHIT:    1245154  dMISS:    1443575  itACCESS:          0  itHIT:          0  itMISS:          0  dtACCESS:          0  dtHIT:          0  dtMISS:          0
cpu0_L2C WRITE        ACCESS:     325949  HIT:     323007  MISS:       2942  iACCESS:          0  iHIT:          0  iMISS:          0  dACCESS:     325949  dHIT:     323007  dMISS:       2942  itACCESS:          0  itHIT:          0  itMISS:          0  dtACCESS:          0  dtHIT:          0  dtMISS:          0
cpu0_L2C TRANSLATION  ACCESS:     437894  HIT:      58992  MISS:     378902  iACCESS:          0  iHIT:          0  iMISS:          0  dACCESS:          0  dHIT:          0  dMISS:          0  itACCESS:      56174  itHIT:       9007  itMISS:      47167  dtACCESS:     381720  dtHIT:      49985  dtMISS:     331735
cpu0_L2C PREFETCH  REQUESTED:    1395664  ISSUED:    1395605  CROSSED:          0  USEFUL:     318245  USELESS:     286167
cpu0_L2C AVERAGE iMISS LATENCY: 41.2239 cycles
cpu0_L2C AVERAGE dMISS LATENCY: 79.0233 cycles
cpu0_L2C AVERAGE itMISS LATENCY: 2.24732 cycles
cpu0_L2C AVERAGE dtMISS LATENCY: 16.0086 cycles
cpu0_L2C PAGE CROSSINGS (TLB HIT):         0 
cpu0_L2C PAGE CROSSINGS (TLB MISS):         0 
cpu0_L2C AVERAGE MISS LATENCY: 138.503 cycles
LLC TOTAL       ACCESS:    3884622  HIT:    1164347  MISS:    2720275  iACCESS:    1236369  iHIT:     378199  iMISS:     858170  dACCESS:    2269351  dHIT:     740265  dMISS:    1529086  itACCESS:      47167  itHIT:       3332  itMISS:      43835  dtACCESS:     331735  dtHIT:      42551  dtMISS:     289184
LLC LOAD         ACCESS:     908148  HIT:     284983  MISS:     623165  iACCESS:     272545  iHIT:      88764  iMISS:     183781  dACCESS:     635603  dHIT:     196219  dMISS:     439384  itACCESS:          0  itHIT:          0  itMISS:          0  dtACCESS:          0  dtHIT:          0  dtMISS:          0
LLC RFO          ACCESS:     116130  HIT:      35061  MISS:      81069  iACCESS:          0  iHIT:          0  iMISS:          0  dACCESS:     116130  dHIT:      35061  dMISS:      81069  itACCESS:          0  itHIT:          0  itMISS:          0  dtACCESS:          0  dtHIT:          0  dtMISS:          0
LLC PREFETCH     ACCESS:    2299340  HIT:     625753  MISS:    1673587  iACCESS:     963824  iHIT:     289435  iMISS:     674389  dACCESS:    1335516  dHIT:     336318  dMISS:     999198  itACCESS:          0  itHIT:          0  itMISS:          0  dtACCESS:          0  dtHIT:          0  dtMISS:          0
LLC WRITE        ACCESS:     182102  HIT:     172667  MISS:       9435  iACCESS:          0  iHIT:          0  iMISS:          0  dACCESS:     182102  dHIT:     172667  dMISS:       9435  itACCESS:          0  itHIT:          0  itMISS:          0  dtACCESS:          0  dtHIT:          0  dtMISS:          0
LLC TRANSLATION  ACCESS:     378902  HIT:      45883  MISS:     333019  iACCESS:          0  iHIT:          0  iMISS:          0  dACCESS:          0  dHIT:          0  dMISS:          0  itACCESS:      47167  itHIT:       3332  itMISS:      43835  dtACCESS:     331735  dtHIT:      42551  dtMISS:     289184
LLC PREFETCH  REQUESTED:          0  ISSUED:          0  CROSSED:          0  USEFUL:          0  USELESS:          0
LLC AVERAGE iMISS LATENCY: 50.1328 cycles
LLC AVERAGE dMISS LATENCY: 99.2537 cycles
LLC AVERAGE itMISS LATENCY: 2.87707 cycles
LLC AVERAGE dtMISS LATENCY: 20.5355 cycles
LLC PAGE CROSSINGS (TLB HIT):         0 
LLC PAGE CROSSINGS (TLB MISS):         0 
LLC AVERAGE MISS LATENCY: 172.799 cycles

PageTableWalker TOTAL       ACCESS:     187468  
PageTableWalker AVERAGE LATENCY: 6.75262 cycles
PageTableWalker TOTAL LATENCY: 1265899 cycles

DRAM Statistics
Channel 0
 RQ ROW_BUFFER_HIT:     580106
  ROW_BUFFER_MISS:    2110735
 AVG DBUS CONGESTED CYCLE:    3.64961
 WQ ROW_BUFFER_HIT:      57027
  ROW_BUFFER_MISS:      47799  FULL:          0

