last_page:0x200000000000000
VMEM_RES_CAP:0x100000
PAGE_SIZE:4096
LOG2_PAGE_SIZE:12
LOG2_PAGE_TABLE_SIZE:9
page_table_levels:5
WARNING: physical memory size is smaller than virtual memory size
FDiP enabled with aggresivity 16

*** ChampSim Multicore Out-of-Order Simulator ***

Warmup Instructions: 50000000
Simulation Instructions: 100000000
Number of CPUs: 1
Small page size: 4096
Large page size: 2097152

CPU 0 Bimodal branch predictor
Basic BTB sets: 1024 ways: 8 indirect buffer size: 4096 RAS size: 64
Instruction page size distrubution: 0
Loading instruction page size distribution from /home/bsc/bsc018186/scratch/itp_asplos25_AE/dump/smt_srv537_ap_srv727_ap_1024i.pdst
Data page size distrubution: 0
Loading data page size distribution from /home/bsc/bsc018186/scratch/itp_asplos25_AE/dump/smt_srv537_ap_srv727_ap_1024i.pdst
cpu0_L2C IP-based stride prefetcher
cpu0_L2C is using PTP replacement policy:
	TLB_STRESS_THRESHOLD:0
	PTE_EVICTION_RATIO:0
cpu0_L1D next line prefetcher
cpu0_STLB using iTP with max lru@8
cpu0_STLB using iTP with instr@0 and data@2
Init sat counter with 3 bits (max:50).
cpu0_L1I next line prefetcher
Off-chip DRAM Size: 4 GiB Channels: 1 Width: 64-bit Data Rate: 3200 MT/s
Heartbeat CPU 0 instructions: 10000003 cycles: 2500447 heartbeat IPC: 3.99929 cumulative IPC: 3.99929 (Simulation time: 0 hr 0 min 37 sec) 
Heartbeat CPU 0 instructions: 20000002 cycles: 5000533 heartbeat IPC: 3.99987 cumulative IPC: 3.99958 (Simulation time: 0 hr 1 min 15 sec) 
Heartbeat CPU 0 instructions: 30000001 cycles: 7500576 heartbeat IPC: 3.99994 cumulative IPC: 3.9997 (Simulation time: 0 hr 1 min 53 sec) 
Heartbeat CPU 0 instructions: 40000001 cycles: 10000725 heartbeat IPC: 3.99977 cumulative IPC: 3.99972 (Simulation time: 0 hr 2 min 32 sec) 
Heartbeat CPU 0 instructions: 50000000 cycles: 12500889 heartbeat IPC: 3.99974 cumulative IPC: 3.99972 (Simulation time: 0 hr 3 min 11 sec) 
Warmup finished CPU 0 instructions: 50000000 cycles: 12500890 cumulative IPC: 3.99972 (Simulation time: 0 hr 3 min 11 sec) 

Warmup complete CPU 0 instructions: 50000000 cycles: 12500890 (Simulation time: 0 hr 3 min 11 sec) 

Heartbeat CPU 0 instructions: 60000004 cycles: 42254886 heartbeat IPC: 0.33609 cumulative IPC: 0.33609 (Simulation time: 0 hr 4 min 33 sec) 
Heartbeat CPU 0 instructions: 70000004 cycles: 71891641 heartbeat IPC: 0.337419 cumulative IPC: 0.336753 (Simulation time: 0 hr 5 min 54 sec) 
Heartbeat CPU 0 instructions: 80000000 cycles: 102033753 heartbeat IPC: 0.331762 cumulative IPC: 0.335073 (Simulation time: 0 hr 7 min 15 sec) 
Heartbeat CPU 0 instructions: 90000000 cycles: 131314346 heartbeat IPC: 0.341524 cumulative IPC: 0.336663 (Simulation time: 0 hr 8 min 36 sec) 
Heartbeat CPU 0 instructions: 100000003 cycles: 161253212 heartbeat IPC: 0.334015 cumulative IPC: 0.33613 (Simulation time: 0 hr 9 min 58 sec) 
Heartbeat CPU 0 instructions: 110000000 cycles: 192442079 heartbeat IPC: 0.320628 cumulative IPC: 0.333443 (Simulation time: 0 hr 11 min 21 sec) 
Heartbeat CPU 0 instructions: 120000002 cycles: 222070132 heartbeat IPC: 0.337519 cumulative IPC: 0.334019 (Simulation time: 0 hr 12 min 42 sec) 
Heartbeat CPU 0 instructions: 130000003 cycles: 251364004 heartbeat IPC: 0.341369 cumulative IPC: 0.33492 (Simulation time: 0 hr 14 min 3 sec) 
Heartbeat CPU 0 instructions: 140000000 cycles: 281828344 heartbeat IPC: 0.328253 cumulative IPC: 0.334166 (Simulation time: 0 hr 15 min 25 sec) 
Heartbeat CPU 0 instructions: 150000003 cycles: 311718761 heartbeat IPC: 0.334556 cumulative IPC: 0.334205 (Simulation time: 0 hr 16 min 47 sec) 
Simulation finished CPU 0 instructions: 100000003 cycles: 299217872 cumulative IPC: 0.334205 (Simulation time: 0 hr 16 min 47 sec) 

Simulation complete CPU 0 instructions: 100000003 cycles: 299217872 (Simulation time: 0 hr 16 min 47 sec) 


ChampSim completed all CPUs

Saving instructions large page distribution to /home/bsc/bsc018186/scratch/itp_asplos25_AE/dump/smt_srv537_ap_srv727_ap_1024i.pdst...
Saving data large page distribution to /home/bsc/bsc018186/scratch/itp_asplos25_AE/dump/smt_srv537_ap_srv727_ap_1024i.pdst...
=== Simulation ===
CPU 0 runs /gpfs/projects/bsc18/MN4/bsc18/romol/ChampSim/traces/qualcomm_srv/smt_srv537_ap_srv727_ap_1024i.champsimtrace.xz

Region of Interest Statistics

CPU 0 cumulative IPC: 0.334205 instructions: 100000003 cycles: 299217872
CPU 0 Branch Prediction Accuracy: 75.1661% MPKI: 44.8107 Average ROB Occupancy at Mispredict: 10.7884
Branch type MPKI
BRANCH_DIRECT_JUMP: 1.38284
BRANCH_INDIRECT: 23.1163
BRANCH_CONDITIONAL: 13.0864
BRANCH_DIRECT_CALL: 2.67873
BRANCH_INDIRECT_CALL: 1.01904
BRANCH_RETURN: 3.52743

Instructions large pages: 0
Instructions small pages: 10200
Large page distribution for instructions: 0%

Data large pages: 0
Data small pages: 8763
Large page distribution for data: 0%

cpu0_L1I TOTAL       ACCESS:   39257481  HIT:   30456884  MISS:    8800597  iACCESS:   39257481  iHIT:   30456884  iMISS:    8800597  dACCESS:          0  dHIT:          0  dMISS:          0  itACCESS:          0  itHIT:          0  itMISS:          0  dtACCESS:          0  dtHIT:          0  dtMISS:          0
cpu0_L1I LOAD         ACCESS:   11736654  HIT:    9343228  MISS:    2393426  iACCESS:   11736654  iHIT:    9343228  iMISS:    2393426  dACCESS:          0  dHIT:          0  dMISS:          0  itACCESS:          0  itHIT:          0  itMISS:          0  dtACCESS:          0  dtHIT:          0  dtMISS:          0
cpu0_L1I RFO          ACCESS:          0  HIT:          0  MISS:          0  iACCESS:          0  iHIT:          0  iMISS:          0  dACCESS:          0  dHIT:          0  dMISS:          0  itACCESS:          0  itHIT:          0  itMISS:          0  dtACCESS:          0  dtHIT:          0  dtMISS:          0
cpu0_L1I PREFETCH     ACCESS:   27520827  HIT:   21113656  MISS:    6407171  iACCESS:   27520827  iHIT:   21113656  iMISS:    6407171  dACCESS:          0  dHIT:          0  dMISS:          0  itACCESS:          0  itHIT:          0  itMISS:          0  dtACCESS:          0  dtHIT:          0  dtMISS:          0
cpu0_L1I WRITE        ACCESS:          0  HIT:          0  MISS:          0  iACCESS:          0  iHIT:          0  iMISS:          0  dACCESS:          0  dHIT:          0  dMISS:          0  itACCESS:          0  itHIT:          0  itMISS:          0  dtACCESS:          0  dtHIT:          0  dtMISS:          0
cpu0_L1I TRANSLATION  ACCESS:          0  HIT:          0  MISS:          0  iACCESS:          0  iHIT:          0  iMISS:          0  dACCESS:          0  dHIT:          0  dMISS:          0  itACCESS:          0  itHIT:          0  itMISS:          0  dtACCESS:          0  dtHIT:          0  dtMISS:          0
cpu0_L1I PREFETCH  REQUESTED:   30311487  ISSUED:   30311474  CROSSED:          0  USEFUL:    2223353  USELESS:     770041
cpu0_L1I AVERAGE iMISS LATENCY: 24.5229 cycles
cpu0_L1I AVERAGE dMISS LATENCY: 0 cycles
cpu0_L1I AVERAGE itMISS LATENCY: 0 cycles
cpu0_L1I AVERAGE dtMISS LATENCY: 0 cycles
cpu0_L1I PAGE CROSSINGS (TLB HIT):         0 
cpu0_L1I PAGE CROSSINGS (TLB MISS):         0 
cpu0_L1I AVERAGE MISS LATENCY: 24.5229 cycles
cpu0_ITLB TOTAL       ACCESS:   33241551  HIT:   30996051  MISS:    2245500  iACCESS:   33241551  iHIT:   30996051  iMISS:    2245500  dACCESS:          0  dHIT:          0  dMISS:          0  itACCESS:          0  itHIT:          0  itMISS:          0  dtACCESS:          0  dtHIT:          0  dtMISS:          0
cpu0_ITLB LOAD         ACCESS:   33241551  HIT:   30996051  MISS:    2245500  iACCESS:   33241551  iHIT:   30996051  iMISS:    2245500  dACCESS:          0  dHIT:          0  dMISS:          0  itACCESS:          0  itHIT:          0  itMISS:          0  dtACCESS:          0  dtHIT:          0  dtMISS:          0
cpu0_ITLB RFO          ACCESS:          0  HIT:          0  MISS:          0  iACCESS:          0  iHIT:          0  iMISS:          0  dACCESS:          0  dHIT:          0  dMISS:          0  itACCESS:          0  itHIT:          0  itMISS:          0  dtACCESS:          0  dtHIT:          0  dtMISS:          0
cpu0_ITLB PREFETCH     ACCESS:          0  HIT:          0  MISS:          0  iACCESS:          0  iHIT:          0  iMISS:          0  dACCESS:          0  dHIT:          0  dMISS:          0  itACCESS:          0  itHIT:          0  itMISS:          0  dtACCESS:          0  dtHIT:          0  dtMISS:          0
cpu0_ITLB WRITE        ACCESS:          0  HIT:          0  MISS:          0  iACCESS:          0  iHIT:          0  iMISS:          0  dACCESS:          0  dHIT:          0  dMISS:          0  itACCESS:          0  itHIT:          0  itMISS:          0  dtACCESS:          0  dtHIT:          0  dtMISS:          0
cpu0_ITLB TRANSLATION  ACCESS:          0  HIT:          0  MISS:          0  iACCESS:          0  iHIT:          0  iMISS:          0  dACCESS:          0  dHIT:          0  dMISS:          0  itACCESS:          0  itHIT:          0  itMISS:          0  dtACCESS:          0  dtHIT:          0  dtMISS:          0
cpu0_ITLB PREFETCH  REQUESTED:          0  ISSUED:          0  CROSSED:          0  USEFUL:     392033  USELESS:      80107
cpu0_ITLB AVERAGE iMISS LATENCY: 6.75356 cycles
cpu0_ITLB AVERAGE dMISS LATENCY: 0 cycles
cpu0_ITLB AVERAGE itMISS LATENCY: 0 cycles
cpu0_ITLB AVERAGE dtMISS LATENCY: 0 cycles
cpu0_ITLB PAGE CROSSINGS (TLB HIT):         0 
cpu0_ITLB PAGE CROSSINGS (TLB MISS):         0 
cpu0_ITLB AVERAGE MISS LATENCY: 6.75356 cycles
cpu0_DTLB TOTAL       ACCESS:   28854068  HIT:   25481590  MISS:    3372478  iACCESS:          0  iHIT:          0  iMISS:          0  dACCESS:   28854068  dHIT:   25481590  dMISS:    3372478  itACCESS:          0  itHIT:          0  itMISS:          0  dtACCESS:          0  dtHIT:          0  dtMISS:          0
cpu0_DTLB LOAD         ACCESS:   28854068  HIT:   25481590  MISS:    3372478  iACCESS:          0  iHIT:          0  iMISS:          0  dACCESS:   28854068  dHIT:   25481590  dMISS:    3372478  itACCESS:          0  itHIT:          0  itMISS:          0  dtACCESS:          0  dtHIT:          0  dtMISS:          0
cpu0_DTLB RFO          ACCESS:          0  HIT:          0  MISS:          0  iACCESS:          0  iHIT:          0  iMISS:          0  dACCESS:          0  dHIT:          0  dMISS:          0  itACCESS:          0  itHIT:          0  itMISS:          0  dtACCESS:          0  dtHIT:          0  dtMISS:          0
cpu0_DTLB PREFETCH     ACCESS:          0  HIT:          0  MISS:          0  iACCESS:          0  iHIT:          0  iMISS:          0  dACCESS:          0  dHIT:          0  dMISS:          0  itACCESS:          0  itHIT:          0  itMISS:          0  dtACCESS:          0  dtHIT:          0  dtMISS:          0
cpu0_DTLB WRITE        ACCESS:          0  HIT:          0  MISS:          0  iACCESS:          0  iHIT:          0  iMISS:          0  dACCESS:          0  dHIT:          0  dMISS:          0  itACCESS:          0  itHIT:          0  itMISS:          0  dtACCESS:          0  dtHIT:          0  dtMISS:          0
cpu0_DTLB TRANSLATION  ACCESS:          0  HIT:          0  MISS:          0  iACCESS:          0  iHIT:          0  iMISS:          0  dACCESS:          0  dHIT:          0  dMISS:          0  itACCESS:          0  itHIT:          0  itMISS:          0  dtACCESS:          0  dtHIT:          0  dtMISS:          0
cpu0_DTLB PREFETCH  REQUESTED:          0  ISSUED:          0  CROSSED:          0  USEFUL:          0  USELESS:          0
cpu0_DTLB AVERAGE iMISS LATENCY: 0 cycles
cpu0_DTLB AVERAGE dMISS LATENCY: 28.2317 cycles
cpu0_DTLB AVERAGE itMISS LATENCY: 0 cycles
cpu0_DTLB AVERAGE dtMISS LATENCY: 0 cycles
cpu0_DTLB PAGE CROSSINGS (TLB HIT):         0 
cpu0_DTLB PAGE CROSSINGS (TLB MISS):         0 
cpu0_DTLB AVERAGE MISS LATENCY: 28.2317 cycles
cpu0_STLB TOTAL       ACCESS:    2411281  HIT:    2046350  MISS:     364931  iACCESS:     472145  iHIT:     412123  iMISS:      60022  dACCESS:    1939136  dHIT:    1634227  dMISS:     304909  itACCESS:          0  itHIT:          0  itMISS:          0  dtACCESS:          0  dtHIT:          0  dtMISS:          0
cpu0_STLB LOAD         ACCESS:    2411281  HIT:    2046350  MISS:     364931  iACCESS:     472145  iHIT:     412123  iMISS:      60022  dACCESS:    1939136  dHIT:    1634227  dMISS:     304909  itACCESS:          0  itHIT:          0  itMISS:          0  dtACCESS:          0  dtHIT:          0  dtMISS:          0
cpu0_STLB RFO          ACCESS:          0  HIT:          0  MISS:          0  iACCESS:          0  iHIT:          0  iMISS:          0  dACCESS:          0  dHIT:          0  dMISS:          0  itACCESS:          0  itHIT:          0  itMISS:          0  dtACCESS:          0  dtHIT:          0  dtMISS:          0
cpu0_STLB PREFETCH     ACCESS:          0  HIT:          0  MISS:          0  iACCESS:          0  iHIT:          0  iMISS:          0  dACCESS:          0  dHIT:          0  dMISS:          0  itACCESS:          0  itHIT:          0  itMISS:          0  dtACCESS:          0  dtHIT:          0  dtMISS:          0
cpu0_STLB WRITE        ACCESS:          0  HIT:          0  MISS:          0  iACCESS:          0  iHIT:          0  iMISS:          0  dACCESS:          0  dHIT:          0  dMISS:          0  itACCESS:          0  itHIT:          0  itMISS:          0  dtACCESS:          0  dtHIT:          0  dtMISS:          0
cpu0_STLB TRANSLATION  ACCESS:          0  HIT:          0  MISS:          0  iACCESS:          0  iHIT:          0  iMISS:          0  dACCESS:          0  dHIT:          0  dMISS:          0  itACCESS:          0  itHIT:          0  itMISS:          0  dtACCESS:          0  dtHIT:          0  dtMISS:          0
cpu0_STLB PREFETCH  REQUESTED:          0  ISSUED:          0  CROSSED:          0  USEFUL:          0  USELESS:          0
cpu0_STLB AVERAGE iMISS LATENCY: 31.375 cycles
cpu0_STLB AVERAGE dMISS LATENCY: 218.028 cycles
cpu0_STLB AVERAGE itMISS LATENCY: 0 cycles
cpu0_STLB AVERAGE dtMISS LATENCY: 0 cycles
cpu0_STLB PAGE CROSSINGS (TLB HIT):         0 
cpu0_STLB PAGE CROSSINGS (TLB MISS):         0 
cpu0_STLB AVERAGE MISS LATENCY: 249.403 cycles
cpu0_L1D TOTAL       ACCESS:   45054907  HIT:   39227251  MISS:    5827656  iACCESS:          0  iHIT:          0  iMISS:          0  dACCESS:   44485362  dHIT:   39200039  dMISS:    5285323  itACCESS:      72570  itHIT:       5551  itMISS:      67019  dtACCESS:     496975  dtHIT:      21661  dtMISS:     475314
cpu0_L1D LOAD         ACCESS:   20306089  HIT:   17929128  MISS:    2376961  iACCESS:          0  iHIT:          0  iMISS:          0  dACCESS:   20306089  dHIT:   17929128  dMISS:    2376961  itACCESS:          0  itHIT:          0  itMISS:          0  dtACCESS:          0  dtHIT:          0  dtMISS:          0
cpu0_L1D RFO          ACCESS:          0  HIT:          0  MISS:          0  iACCESS:          0  iHIT:          0  iMISS:          0  dACCESS:          0  dHIT:          0  dMISS:          0  itACCESS:          0  itHIT:          0  itMISS:          0  dtACCESS:          0  dtHIT:          0  dtMISS:          0
cpu0_L1D PREFETCH     ACCESS:   14003558  HIT:   11668993  MISS:    2334565  iACCESS:          0  iHIT:          0  iMISS:          0  dACCESS:   14003558  dHIT:   11668993  dMISS:    2334565  itACCESS:          0  itHIT:          0  itMISS:          0  dtACCESS:          0  dtHIT:          0  dtMISS:          0
cpu0_L1D WRITE        ACCESS:   10175715  HIT:    9601918  MISS:     573797  iACCESS:          0  iHIT:          0  iMISS:          0  dACCESS:   10175715  dHIT:    9601918  dMISS:     573797  itACCESS:          0  itHIT:          0  itMISS:          0  dtACCESS:          0  dtHIT:          0  dtMISS:          0
cpu0_L1D TRANSLATION  ACCESS:     569545  HIT:      27212  MISS:     542333  iACCESS:          0  iHIT:          0  iMISS:          0  dACCESS:          0  dHIT:          0  dMISS:          0  itACCESS:      72570  itHIT:       5551  itMISS:      67019  dtACCESS:     496975  dtHIT:      21661  dtMISS:     475314
cpu0_L1D PREFETCH  REQUESTED:   20306089  ISSUED:   18398313  CROSSED:          0  USEFUL:     373480  USELESS:     915004
cpu0_L1D AVERAGE iMISS LATENCY: 0 cycles
cpu0_L1D AVERAGE dMISS LATENCY: 49.1095 cycles
cpu0_L1D AVERAGE itMISS LATENCY: 1.85622 cycles
cpu0_L1D AVERAGE dtMISS LATENCY: 12.7745 cycles
cpu0_L1D PAGE CROSSINGS (TLB HIT):         0 
cpu0_L1D PAGE CROSSINGS (TLB MISS):         0 
cpu0_L1D AVERAGE MISS LATENCY: 63.7401 cycles
cpu0_L2C TOTAL       ACCESS:    8678291  HIT:    3870109  MISS:    4808182  iACCESS:    3805220  iHIT:    2132160  iMISS:    1673060  dACCESS:    4369953  dHIT:    1661674  dMISS:    2708279  itACCESS:      64680  itHIT:       9319  itMISS:      55361  dtACCESS:     438438  dtHIT:      66956  dtMISS:     371482
cpu0_L2C LOAD         ACCESS:    2059867  HIT:     913490  MISS:    1146377  iACCESS:     849400  iHIT:     490734  iMISS:     358666  dACCESS:    1210467  dHIT:     422756  dMISS:     787711  itACCESS:          0  itHIT:          0  itMISS:          0  dtACCESS:          0  dtHIT:          0  dtMISS:          0
cpu0_L2C RFO          ACCESS:     215159  HIT:      72117  MISS:     143042  iACCESS:          0  iHIT:          0  iMISS:          0  dACCESS:     215159  dHIT:      72117  dMISS:     143042  itACCESS:          0  itHIT:          0  itMISS:          0  dtACCESS:          0  dtHIT:          0  dtMISS:          0
cpu0_L2C PREFETCH     ACCESS:    5552965  HIT:    2496242  MISS:    3056723  iACCESS:    2955820  iHIT:    1641426  iMISS:    1314394  dACCESS:    2597145  dHIT:     854816  dMISS:    1742329  itACCESS:          0  itHIT:          0  itMISS:          0  dtACCESS:          0  dtHIT:          0  dtMISS:          0
cpu0_L2C WRITE        ACCESS:     347182  HIT:     311985  MISS:      35197  iACCESS:          0  iHIT:          0  iMISS:          0  dACCESS:     347182  dHIT:     311985  dMISS:      35197  itACCESS:          0  itHIT:          0  itMISS:          0  dtACCESS:          0  dtHIT:          0  dtMISS:          0
cpu0_L2C TRANSLATION  ACCESS:     503118  HIT:      76275  MISS:     426843  iACCESS:          0  iHIT:          0  iMISS:          0  dACCESS:          0  dHIT:          0  dMISS:          0  itACCESS:      64680  itHIT:       9319  itMISS:      55361  dtACCESS:     438438  dtHIT:      66956  dtMISS:     371482
cpu0_L2C PREFETCH  REQUESTED:    1552883  ISSUED:    1552882  CROSSED:          0  USEFUL:     370114  USELESS:     355075
cpu0_L2C AVERAGE iMISS LATENCY: 38.2702 cycles
cpu0_L2C AVERAGE dMISS LATENCY: 74.4568 cycles
cpu0_L2C AVERAGE itMISS LATENCY: 2.11678 cycles
cpu0_L2C AVERAGE dtMISS LATENCY: 14.5798 cycles
cpu0_L2C PAGE CROSSINGS (TLB HIT):         0 
cpu0_L2C PAGE CROSSINGS (TLB MISS):         0 
cpu0_L2C AVERAGE MISS LATENCY: 129.424 cycles
LLC TOTAL       ACCESS:    4768950  HIT:    1668677  MISS:    3100273  iACCESS:    1578570  iHIT:     616024  iMISS:     962546  dACCESS:    2763537  dHIT:    1000836  dMISS:    1762701  itACCESS:      55361  itHIT:       4502  itMISS:      50859  dtACCESS:     371482  dtHIT:      47315  dtMISS:     324167
LLC LOAD         ACCESS:    1139164  HIT:     425485  MISS:     713679  iACCESS:     357481  iHIT:     153381  iMISS:     204100  dACCESS:     781683  dHIT:     272104  dMISS:     509579  itACCESS:          0  itHIT:          0  itMISS:          0  dtACCESS:          0  dtHIT:          0  dtMISS:          0
LLC RFO          ACCESS:     143032  HIT:      48509  MISS:      94523  iACCESS:          0  iHIT:          0  iMISS:          0  dACCESS:     143032  dHIT:      48509  dMISS:      94523  itACCESS:          0  itHIT:          0  itMISS:          0  dtACCESS:          0  dtHIT:          0  dtMISS:          0
LLC PREFETCH     ACCESS:    2834791  HIT:     926888  MISS:    1907903  iACCESS:    1221089  iHIT:     462643  iMISS:     758446  dACCESS:    1613702  dHIT:     464245  dMISS:    1149457  itACCESS:          0  itHIT:          0  itMISS:          0  dtACCESS:          0  dtHIT:          0  dtMISS:          0
LLC WRITE        ACCESS:     225120  HIT:     215978  MISS:       9142  iACCESS:          0  iHIT:          0  iMISS:          0  dACCESS:     225120  dHIT:     215978  dMISS:       9142  itACCESS:          0  itHIT:          0  itMISS:          0  dtACCESS:          0  dtHIT:          0  dtMISS:          0
LLC TRANSLATION  ACCESS:     426843  HIT:      51817  MISS:     375026  iACCESS:          0  iHIT:          0  iMISS:          0  dACCESS:          0  dHIT:          0  dMISS:          0  itACCESS:      55361  itHIT:       4502  itMISS:      50859  dtACCESS:     371482  dtHIT:      47315  dtMISS:     324167
LLC PREFETCH  REQUESTED:          0  ISSUED:          0  CROSSED:          0  USEFUL:          0  USELESS:          0
LLC AVERAGE iMISS LATENCY: 49.3562 cycles
LLC AVERAGE dMISS LATENCY: 100.239 cycles
LLC AVERAGE itMISS LATENCY: 2.92881 cycles
LLC AVERAGE dtMISS LATENCY: 20.2442 cycles
LLC PAGE CROSSINGS (TLB HIT):         0 
LLC PAGE CROSSINGS (TLB MISS):         0 
LLC AVERAGE MISS LATENCY: 172.769 cycles

PageTableWalker TOTAL       ACCESS:     178124  
PageTableWalker AVERAGE LATENCY: 6.64925 cycles
PageTableWalker TOTAL LATENCY: 1184391 cycles

DRAM Statistics
Channel 0
 RQ ROW_BUFFER_HIT:     652440
  ROW_BUFFER_MISS:    2418589
 AVG DBUS CONGESTED CYCLE:    3.65358
 WQ ROW_BUFFER_HIT:      68173
  ROW_BUFFER_MISS:      59954  FULL:          0

