last_page:0x200000000000000
VMEM_RES_CAP:0x100000
PAGE_SIZE:4096
LOG2_PAGE_SIZE:12
LOG2_PAGE_TABLE_SIZE:9
page_table_levels:5
WARNING: physical memory size is smaller than virtual memory size
FDiP enabled with aggresivity 16

*** ChampSim Multicore Out-of-Order Simulator ***

Warmup Instructions: 50000000
Simulation Instructions: 100000000
Number of CPUs: 1
Small page size: 4096
Large page size: 2097152

CPU 0 Bimodal branch predictor
Basic BTB sets: 1024 ways: 8 indirect buffer size: 4096 RAS size: 64
Instruction page size distrubution: 0
Loading instruction page size distribution from /home/bsc/bsc018186/scratch/itp_asplos25_AE/dump/smt_srv537_ap_srv346_ap_1024i.pdst
Data page size distrubution: 0
Loading data page size distribution from /home/bsc/bsc018186/scratch/itp_asplos25_AE/dump/smt_srv537_ap_srv346_ap_1024i.pdst
cpu0_L2C IP-based stride prefetcher
cpu0_L1D next line prefetcher
CHiRPing...
cpu0_L1I next line prefetcher
Off-chip DRAM Size: 4 GiB Channels: 1 Width: 64-bit Data Rate: 3200 MT/s
Heartbeat CPU 0 instructions: 10000000 cycles: 2500368 heartbeat IPC: 3.99942 cumulative IPC: 3.99942 (Simulation time: 0 hr 0 min 40 sec) 
Heartbeat CPU 0 instructions: 20000000 cycles: 5000774 heartbeat IPC: 3.99936 cumulative IPC: 3.99939 (Simulation time: 0 hr 1 min 21 sec) 
Heartbeat CPU 0 instructions: 30000001 cycles: 7500900 heartbeat IPC: 3.9998 cumulative IPC: 3.99953 (Simulation time: 0 hr 2 min 4 sec) 
Heartbeat CPU 0 instructions: 40000002 cycles: 10001221 heartbeat IPC: 3.99949 cumulative IPC: 3.99952 (Simulation time: 0 hr 2 min 46 sec) 
Heartbeat CPU 0 instructions: 50000002 cycles: 12501543 heartbeat IPC: 3.99949 cumulative IPC: 3.99951 (Simulation time: 0 hr 3 min 29 sec) 
Warmup finished CPU 0 instructions: 50000002 cycles: 12501544 cumulative IPC: 3.99951 (Simulation time: 0 hr 3 min 29 sec) 

Warmup complete CPU 0 instructions: 50000002 cycles: 12501544 (Simulation time: 0 hr 3 min 29 sec) 

Heartbeat CPU 0 instructions: 60000000 cycles: 39047005 heartbeat IPC: 0.376713 cumulative IPC: 0.376713 (Simulation time: 0 hr 4 min 52 sec) 
Heartbeat CPU 0 instructions: 70000003 cycles: 65581492 heartbeat IPC: 0.376869 cumulative IPC: 0.376791 (Simulation time: 0 hr 6 min 15 sec) 
Heartbeat CPU 0 instructions: 80000003 cycles: 91836065 heartbeat IPC: 0.380887 cumulative IPC: 0.378146 (Simulation time: 0 hr 7 min 37 sec) 
Heartbeat CPU 0 instructions: 90000000 cycles: 116722709 heartbeat IPC: 0.401822 cumulative IPC: 0.3838 (Simulation time: 0 hr 8 min 58 sec) 
Heartbeat CPU 0 instructions: 100000003 cycles: 142995037 heartbeat IPC: 0.380629 cumulative IPC: 0.383161 (Simulation time: 0 hr 10 min 20 sec) 
Heartbeat CPU 0 instructions: 110000001 cycles: 170005559 heartbeat IPC: 0.370227 cumulative IPC: 0.380943 (Simulation time: 0 hr 11 min 44 sec) 
Heartbeat CPU 0 instructions: 120000000 cycles: 195714922 heartbeat IPC: 0.388964 cumulative IPC: 0.382069 (Simulation time: 0 hr 13 min 7 sec) 
Heartbeat CPU 0 instructions: 130000001 cycles: 221164516 heartbeat IPC: 0.392934 cumulative IPC: 0.383394 (Simulation time: 0 hr 14 min 29 sec) 
Heartbeat CPU 0 instructions: 140000003 cycles: 247340510 heartbeat IPC: 0.38203 cumulative IPC: 0.383242 (Simulation time: 0 hr 15 min 52 sec) 
Heartbeat CPU 0 instructions: 150000002 cycles: 273533789 heartbeat IPC: 0.381778 cumulative IPC: 0.383095 (Simulation time: 0 hr 17 min 14 sec) 
Simulation finished CPU 0 instructions: 100000000 cycles: 261032246 cumulative IPC: 0.383095 (Simulation time: 0 hr 17 min 14 sec) 

Simulation complete CPU 0 instructions: 100000000 cycles: 261032246 (Simulation time: 0 hr 17 min 14 sec) 


ChampSim completed all CPUs

Saving instructions large page distribution to /home/bsc/bsc018186/scratch/itp_asplos25_AE/dump/smt_srv537_ap_srv346_ap_1024i.pdst...
Saving data large page distribution to /home/bsc/bsc018186/scratch/itp_asplos25_AE/dump/smt_srv537_ap_srv346_ap_1024i.pdst...
=== Simulation ===
CPU 0 runs /gpfs/projects/bsc18/MN4/bsc18/romol/ChampSim/traces/qualcomm_srv/smt_srv537_ap_srv346_ap_1024i.champsimtrace.xz

Region of Interest Statistics

CPU 0 cumulative IPC: 0.383095 instructions: 100000000 cycles: 261032246
CPU 0 Branch Prediction Accuracy: 76.0378% MPKI: 43.1546 Average ROB Occupancy at Mispredict: 10.9121
Branch type MPKI
BRANCH_DIRECT_JUMP: 1.29276
BRANCH_INDIRECT: 22.4335
BRANCH_CONDITIONAL: 12.5778
BRANCH_DIRECT_CALL: 2.48924
BRANCH_INDIRECT_CALL: 0.936221
BRANCH_RETURN: 3.42511

Instructions large pages: 0
Instructions small pages: 13507
Large page distribution for instructions: 0%

Data large pages: 0
Data small pages: 12202
Large page distribution for data: 0%

cpu0_L1I TOTAL       ACCESS:   39452785  HIT:   30223676  MISS:    9229109  iACCESS:   39452785  iHIT:   30223676  iMISS:    9229109  dACCESS:          0  dHIT:          0  dMISS:          0  itACCESS:          0  itHIT:          0  itMISS:          0  dtACCESS:          0  dtHIT:          0  dtMISS:          0
cpu0_L1I LOAD         ACCESS:   11837999  HIT:    9327762  MISS:    2510237  iACCESS:   11837999  iHIT:    9327762  iMISS:    2510237  dACCESS:          0  dHIT:          0  dMISS:          0  itACCESS:          0  itHIT:          0  itMISS:          0  dtACCESS:          0  dtHIT:          0  dtMISS:          0
cpu0_L1I RFO          ACCESS:          0  HIT:          0  MISS:          0  iACCESS:          0  iHIT:          0  iMISS:          0  dACCESS:          0  dHIT:          0  dMISS:          0  itACCESS:          0  itHIT:          0  itMISS:          0  dtACCESS:          0  dtHIT:          0  dtMISS:          0
cpu0_L1I PREFETCH     ACCESS:   27614786  HIT:   20895914  MISS:    6718872  iACCESS:   27614786  iHIT:   20895914  iMISS:    6718872  dACCESS:          0  dHIT:          0  dMISS:          0  itACCESS:          0  itHIT:          0  itMISS:          0  dtACCESS:          0  dtHIT:          0  dtMISS:          0
cpu0_L1I WRITE        ACCESS:          0  HIT:          0  MISS:          0  iACCESS:          0  iHIT:          0  iMISS:          0  dACCESS:          0  dHIT:          0  dMISS:          0  itACCESS:          0  itHIT:          0  itMISS:          0  dtACCESS:          0  dtHIT:          0  dtMISS:          0
cpu0_L1I TRANSLATION  ACCESS:          0  HIT:          0  MISS:          0  iACCESS:          0  iHIT:          0  iMISS:          0  dACCESS:          0  dHIT:          0  dMISS:          0  itACCESS:          0  itHIT:          0  itMISS:          0  dtACCESS:          0  dtHIT:          0  dtMISS:          0
cpu0_L1I PREFETCH  REQUESTED:   30285147  ISSUED:   30283636  CROSSED:          0  USEFUL:    2208565  USELESS:     753817
cpu0_L1I AVERAGE iMISS LATENCY: 22.667 cycles
cpu0_L1I AVERAGE dMISS LATENCY: 0 cycles
cpu0_L1I AVERAGE itMISS LATENCY: 0 cycles
cpu0_L1I AVERAGE dtMISS LATENCY: 0 cycles
cpu0_L1I PAGE CROSSINGS (TLB HIT):         0 
cpu0_L1I PAGE CROSSINGS (TLB MISS):         0 
cpu0_L1I AVERAGE MISS LATENCY: 22.667 cycles
cpu0_ITLB TOTAL       ACCESS:   33071900  HIT:   30874708  MISS:    2197192  iACCESS:   33071900  iHIT:   30874708  iMISS:    2197192  dACCESS:          0  dHIT:          0  dMISS:          0  itACCESS:          0  itHIT:          0  itMISS:          0  dtACCESS:          0  dtHIT:          0  dtMISS:          0
cpu0_ITLB LOAD         ACCESS:   33071900  HIT:   30874708  MISS:    2197192  iACCESS:   33071900  iHIT:   30874708  iMISS:    2197192  dACCESS:          0  dHIT:          0  dMISS:          0  itACCESS:          0  itHIT:          0  itMISS:          0  dtACCESS:          0  dtHIT:          0  dtMISS:          0
cpu0_ITLB RFO          ACCESS:          0  HIT:          0  MISS:          0  iACCESS:          0  iHIT:          0  iMISS:          0  dACCESS:          0  dHIT:          0  dMISS:          0  itACCESS:          0  itHIT:          0  itMISS:          0  dtACCESS:          0  dtHIT:          0  dtMISS:          0
cpu0_ITLB PREFETCH     ACCESS:          0  HIT:          0  MISS:          0  iACCESS:          0  iHIT:          0  iMISS:          0  dACCESS:          0  dHIT:          0  dMISS:          0  itACCESS:          0  itHIT:          0  itMISS:          0  dtACCESS:          0  dtHIT:          0  dtMISS:          0
cpu0_ITLB WRITE        ACCESS:          0  HIT:          0  MISS:          0  iACCESS:          0  iHIT:          0  iMISS:          0  dACCESS:          0  dHIT:          0  dMISS:          0  itACCESS:          0  itHIT:          0  itMISS:          0  dtACCESS:          0  dtHIT:          0  dtMISS:          0
cpu0_ITLB TRANSLATION  ACCESS:          0  HIT:          0  MISS:          0  iACCESS:          0  iHIT:          0  iMISS:          0  dACCESS:          0  dHIT:          0  dMISS:          0  itACCESS:          0  itHIT:          0  itMISS:          0  dtACCESS:          0  dtHIT:          0  dtMISS:          0
cpu0_ITLB PREFETCH  REQUESTED:          0  ISSUED:          0  CROSSED:          0  USEFUL:     384336  USELESS:      77233
cpu0_ITLB AVERAGE iMISS LATENCY: 7.12918 cycles
cpu0_ITLB AVERAGE dMISS LATENCY: 0 cycles
cpu0_ITLB AVERAGE itMISS LATENCY: 0 cycles
cpu0_ITLB AVERAGE dtMISS LATENCY: 0 cycles
cpu0_ITLB PAGE CROSSINGS (TLB HIT):         0 
cpu0_ITLB PAGE CROSSINGS (TLB MISS):         0 
cpu0_ITLB AVERAGE MISS LATENCY: 7.12918 cycles
cpu0_DTLB TOTAL       ACCESS:   28769731  HIT:   25368385  MISS:    3401346  iACCESS:          0  iHIT:          0  iMISS:          0  dACCESS:   28769731  dHIT:   25368385  dMISS:    3401346  itACCESS:          0  itHIT:          0  itMISS:          0  dtACCESS:          0  dtHIT:          0  dtMISS:          0
cpu0_DTLB LOAD         ACCESS:   28769731  HIT:   25368385  MISS:    3401346  iACCESS:          0  iHIT:          0  iMISS:          0  dACCESS:   28769731  dHIT:   25368385  dMISS:    3401346  itACCESS:          0  itHIT:          0  itMISS:          0  dtACCESS:          0  dtHIT:          0  dtMISS:          0
cpu0_DTLB RFO          ACCESS:          0  HIT:          0  MISS:          0  iACCESS:          0  iHIT:          0  iMISS:          0  dACCESS:          0  dHIT:          0  dMISS:          0  itACCESS:          0  itHIT:          0  itMISS:          0  dtACCESS:          0  dtHIT:          0  dtMISS:          0
cpu0_DTLB PREFETCH     ACCESS:          0  HIT:          0  MISS:          0  iACCESS:          0  iHIT:          0  iMISS:          0  dACCESS:          0  dHIT:          0  dMISS:          0  itACCESS:          0  itHIT:          0  itMISS:          0  dtACCESS:          0  dtHIT:          0  dtMISS:          0
cpu0_DTLB WRITE        ACCESS:          0  HIT:          0  MISS:          0  iACCESS:          0  iHIT:          0  iMISS:          0  dACCESS:          0  dHIT:          0  dMISS:          0  itACCESS:          0  itHIT:          0  itMISS:          0  dtACCESS:          0  dtHIT:          0  dtMISS:          0
cpu0_DTLB TRANSLATION  ACCESS:          0  HIT:          0  MISS:          0  iACCESS:          0  iHIT:          0  iMISS:          0  dACCESS:          0  dHIT:          0  dMISS:          0  itACCESS:          0  itHIT:          0  itMISS:          0  dtACCESS:          0  dtHIT:          0  dtMISS:          0
cpu0_DTLB PREFETCH  REQUESTED:          0  ISSUED:          0  CROSSED:          0  USEFUL:          0  USELESS:          0
cpu0_DTLB AVERAGE iMISS LATENCY: 0 cycles
cpu0_DTLB AVERAGE dMISS LATENCY: 16.655 cycles
cpu0_DTLB AVERAGE itMISS LATENCY: 0 cycles
cpu0_DTLB AVERAGE dtMISS LATENCY: 0 cycles
cpu0_DTLB PAGE CROSSINGS (TLB HIT):         0 
cpu0_DTLB PAGE CROSSINGS (TLB MISS):         0 
cpu0_DTLB AVERAGE MISS LATENCY: 16.655 cycles
cpu0_STLB TOTAL       ACCESS:    2414208  HIT:    2066160  MISS:     348048  iACCESS:     461583  iHIT:     354859  iMISS:     106724  dACCESS:    1952625  dHIT:    1711301  dMISS:     241324  itACCESS:          0  itHIT:          0  itMISS:          0  dtACCESS:          0  dtHIT:          0  dtMISS:          0
cpu0_STLB LOAD         ACCESS:    2414208  HIT:    2066160  MISS:     348048  iACCESS:     461583  iHIT:     354859  iMISS:     106724  dACCESS:    1952625  dHIT:    1711301  dMISS:     241324  itACCESS:          0  itHIT:          0  itMISS:          0  dtACCESS:          0  dtHIT:          0  dtMISS:          0
cpu0_STLB RFO          ACCESS:          0  HIT:          0  MISS:          0  iACCESS:          0  iHIT:          0  iMISS:          0  dACCESS:          0  dHIT:          0  dMISS:          0  itACCESS:          0  itHIT:          0  itMISS:          0  dtACCESS:          0  dtHIT:          0  dtMISS:          0
cpu0_STLB PREFETCH     ACCESS:          0  HIT:          0  MISS:          0  iACCESS:          0  iHIT:          0  iMISS:          0  dACCESS:          0  dHIT:          0  dMISS:          0  itACCESS:          0  itHIT:          0  itMISS:          0  dtACCESS:          0  dtHIT:          0  dtMISS:          0
cpu0_STLB WRITE        ACCESS:          0  HIT:          0  MISS:          0  iACCESS:          0  iHIT:          0  iMISS:          0  dACCESS:          0  dHIT:          0  dMISS:          0  itACCESS:          0  itHIT:          0  itMISS:          0  dtACCESS:          0  dtHIT:          0  dtMISS:          0
cpu0_STLB TRANSLATION  ACCESS:          0  HIT:          0  MISS:          0  iACCESS:          0  iHIT:          0  iMISS:          0  dACCESS:          0  dHIT:          0  dMISS:          0  itACCESS:          0  itHIT:          0  itMISS:          0  dtACCESS:          0  dtHIT:          0  dtMISS:          0
cpu0_STLB PREFETCH  REQUESTED:          0  ISSUED:          0  CROSSED:          0  USEFUL:          0  USELESS:          0
cpu0_STLB AVERAGE iMISS LATENCY: 34.4308 cycles
cpu0_STLB AVERAGE dMISS LATENCY: 117.75 cycles
cpu0_STLB AVERAGE itMISS LATENCY: 0 cycles
cpu0_STLB AVERAGE dtMISS LATENCY: 0 cycles
cpu0_STLB PAGE CROSSINGS (TLB HIT):         0 
cpu0_STLB PAGE CROSSINGS (TLB MISS):         0 
cpu0_STLB AVERAGE MISS LATENCY: 152.18 cycles
cpu0_L1D TOTAL       ACCESS:   44366028  HIT:   39116266  MISS:    5249762  iACCESS:          0  iHIT:          0  iMISS:          0  dACCESS:   43850078  dHIT:   39082260  dMISS:    4767818  itACCESS:     118757  itHIT:      15510  itMISS:     103247  dtACCESS:     397193  dtHIT:      18496  dtMISS:     378697
cpu0_L1D LOAD         ACCESS:   20000787  HIT:   17873721  MISS:    2127066  iACCESS:          0  iHIT:          0  iMISS:          0  dACCESS:   20000787  dHIT:   17873721  dMISS:    2127066  itACCESS:          0  itHIT:          0  itMISS:          0  dtACCESS:          0  dtHIT:          0  dtMISS:          0
cpu0_L1D RFO          ACCESS:          0  HIT:          0  MISS:          0  iACCESS:          0  iHIT:          0  iMISS:          0  dACCESS:          0  dHIT:          0  dMISS:          0  itACCESS:          0  itHIT:          0  itMISS:          0  dtACCESS:          0  dtHIT:          0  dtMISS:          0
cpu0_L1D PREFETCH     ACCESS:   13685734  HIT:   11587502  MISS:    2098232  iACCESS:          0  iHIT:          0  iMISS:          0  dACCESS:   13685734  dHIT:   11587502  dMISS:    2098232  itACCESS:          0  itHIT:          0  itMISS:          0  dtACCESS:          0  dtHIT:          0  dtMISS:          0
cpu0_L1D WRITE        ACCESS:   10163557  HIT:    9621037  MISS:     542520  iACCESS:          0  iHIT:          0  iMISS:          0  dACCESS:   10163557  dHIT:    9621037  dMISS:     542520  itACCESS:          0  itHIT:          0  itMISS:          0  dtACCESS:          0  dtHIT:          0  dtMISS:          0
cpu0_L1D TRANSLATION  ACCESS:     515950  HIT:      34006  MISS:     481944  iACCESS:          0  iHIT:          0  iMISS:          0  dACCESS:          0  dHIT:          0  dMISS:          0  itACCESS:     118757  itHIT:      15510  itMISS:     103247  dtACCESS:     397193  dtHIT:      18496  dtMISS:     378697
cpu0_L1D PREFETCH  REQUESTED:   20000787  ISSUED:   18273616  CROSSED:          0  USEFUL:     370791  USELESS:     905098
cpu0_L1D AVERAGE iMISS LATENCY: 0 cycles
cpu0_L1D AVERAGE dMISS LATENCY: 51.0945 cycles
cpu0_L1D AVERAGE itMISS LATENCY: 2.09002 cycles
cpu0_L1D AVERAGE dtMISS LATENCY: 6.81289 cycles
cpu0_L1D PAGE CROSSINGS (TLB HIT):         0 
cpu0_L1D PAGE CROSSINGS (TLB MISS):         0 
cpu0_L1D AVERAGE MISS LATENCY: 59.9974 cycles
cpu0_L2C TOTAL       ACCESS:    8505190  HIT:    1530825  MISS:    6974365  iACCESS:    3767128  iHIT:     809329  iMISS:    2957799  dACCESS:    4286051  dHIT:     531461  dMISS:    3754590  itACCESS:     103100  itHIT:      38575  itMISS:      64525  dtACCESS:     348911  dtHIT:     151460  dtMISS:     197451
cpu0_L2C LOAD         ACCESS:    2032051  HIT:     215012  MISS:    1817039  iACCESS:     842671  iHIT:     121700  iMISS:     720971  dACCESS:    1189380  dHIT:      93312  dMISS:    1096068  itACCESS:          0  itHIT:          0  itMISS:          0  dtACCESS:          0  dtHIT:          0  dtMISS:          0
cpu0_L2C RFO          ACCESS:     208371  HIT:      30509  MISS:     177862  iACCESS:          0  iHIT:          0  iMISS:          0  dACCESS:     208371  dHIT:      30509  dMISS:     177862  itACCESS:          0  itHIT:          0  itMISS:          0  dtACCESS:          0  dtHIT:          0  dtMISS:          0
cpu0_L2C PREFETCH     ACCESS:    5467724  HIT:     991649  MISS:    4476075  iACCESS:    2924457  iHIT:     687629  iMISS:    2236828  dACCESS:    2543267  dHIT:     304020  dMISS:    2239247  itACCESS:          0  itHIT:          0  itMISS:          0  dtACCESS:          0  dtHIT:          0  dtMISS:          0
cpu0_L2C WRITE        ACCESS:     345033  HIT:     103620  MISS:     241413  iACCESS:          0  iHIT:          0  iMISS:          0  dACCESS:     345033  dHIT:     103620  dMISS:     241413  itACCESS:          0  itHIT:          0  itMISS:          0  dtACCESS:          0  dtHIT:          0  dtMISS:          0
cpu0_L2C TRANSLATION  ACCESS:     452011  HIT:     190035  MISS:     261976  iACCESS:          0  iHIT:          0  iMISS:          0  dACCESS:          0  dHIT:          0  dMISS:          0  itACCESS:     103100  itHIT:      38575  itMISS:      64525  dtACCESS:     348911  dtHIT:     151460  dtMISS:     197451
cpu0_L2C PREFETCH  REQUESTED:    1513145  ISSUED:    1513144  CROSSED:          0  USEFUL:     420367  USELESS:     479519
cpu0_L2C AVERAGE iMISS LATENCY: 25.2716 cycles
cpu0_L2C AVERAGE dMISS LATENCY: 47.3594 cycles
cpu0_L2C AVERAGE itMISS LATENCY: 1.43057 cycles
cpu0_L2C AVERAGE dtMISS LATENCY: 4.64745 cycles
cpu0_L2C PAGE CROSSINGS (TLB HIT):         0 
cpu0_L2C PAGE CROSSINGS (TLB MISS):         0 
cpu0_L2C AVERAGE MISS LATENCY: 78.7089 cycles
LLC TOTAL       ACCESS:    6788714  HIT:    4287614  MISS:    2501100  iACCESS:    2865355  iHIT:    2090960  iMISS:     774395  dACCESS:    3661383  dHIT:    2133892  dMISS:    1527491  itACCESS:      64525  itHIT:      15830  itMISS:      48695  dtACCESS:     197451  dtHIT:      46932  dtMISS:     150519
LLC LOAD         ACCESS:    1811530  HIT:    1212553  MISS:     598977  iACCESS:     719637  iHIT:     558633  iMISS:     161004  dACCESS:    1091893  dHIT:     653920  dMISS:     437973  itACCESS:          0  itHIT:          0  itMISS:          0  dtACCESS:          0  dtHIT:          0  dtMISS:          0
LLC RFO          ACCESS:     177853  HIT:      94275  MISS:      83578  iACCESS:          0  iHIT:          0  iMISS:          0  dACCESS:     177853  dHIT:      94275  dMISS:      83578  itACCESS:          0  itHIT:          0  itMISS:          0  dtACCESS:          0  dtHIT:          0  dtMISS:          0
LLC PREFETCH     ACCESS:    4266522  HIT:    2654612  MISS:    1611910  iACCESS:    2145718  iHIT:    1532327  iMISS:     613391  dACCESS:    2120804  dHIT:    1122285  dMISS:     998519  itACCESS:          0  itHIT:          0  itMISS:          0  dtACCESS:          0  dtHIT:          0  dtMISS:          0
LLC WRITE        ACCESS:     270833  HIT:     263412  MISS:       7421  iACCESS:          0  iHIT:          0  iMISS:          0  dACCESS:     270833  dHIT:     263412  dMISS:       7421  itACCESS:          0  itHIT:          0  itMISS:          0  dtACCESS:          0  dtHIT:          0  dtMISS:          0
LLC TRANSLATION  ACCESS:     261976  HIT:      62762  MISS:     199214  iACCESS:          0  iHIT:          0  iMISS:          0  dACCESS:          0  dHIT:          0  dMISS:          0  itACCESS:      64525  itHIT:      15830  itMISS:      48695  dtACCESS:     197451  dtHIT:      46932  dtMISS:     150519
LLC PREFETCH  REQUESTED:          0  ISSUED:          0  CROSSED:          0  USEFUL:          0  USELESS:          0
LLC AVERAGE iMISS LATENCY: 48.244 cycles
LLC AVERAGE dMISS LATENCY: 106.273 cycles
LLC AVERAGE itMISS LATENCY: 3.48127 cycles
LLC AVERAGE dtMISS LATENCY: 11.4048 cycles
LLC PAGE CROSSINGS (TLB HIT):         0 
LLC PAGE CROSSINGS (TLB MISS):         0 
LLC AVERAGE MISS LATENCY: 169.403 cycles

PageTableWalker TOTAL       ACCESS:     171554  
PageTableWalker AVERAGE LATENCY: 5.84665 cycles
PageTableWalker TOTAL LATENCY: 1003016 cycles

DRAM Statistics
Channel 0
 RQ ROW_BUFFER_HIT:     579337
  ROW_BUFFER_MISS:    1904410
 AVG DBUS CONGESTED CYCLE:    3.65003
 WQ ROW_BUFFER_HIT:      62801
  ROW_BUFFER_MISS:      58741  FULL:          0

