last_page:0x200000000000000
VMEM_RES_CAP:0x100000
PAGE_SIZE:4096
LOG2_PAGE_SIZE:12
LOG2_PAGE_TABLE_SIZE:9
page_table_levels:5
WARNING: physical memory size is smaller than virtual memory size
FDiP enabled with aggresivity 16

*** ChampSim Multicore Out-of-Order Simulator ***

Warmup Instructions: 50000000
Simulation Instructions: 100000000
Number of CPUs: 1
Small page size: 4096
Large page size: 2097152

CPU 0 Bimodal branch predictor
Basic BTB sets: 1024 ways: 8 indirect buffer size: 4096 RAS size: 64
Instruction page size distrubution: 0
Loading instruction page size distribution from /home/bsc/bsc018186/scratch/itp_asplos25_AE/dump/smt_srv207_ap_srv128_ap_1024i.pdst
Data page size distrubution: 0
Loading data page size distribution from /home/bsc/bsc018186/scratch/itp_asplos25_AE/dump/smt_srv207_ap_srv128_ap_1024i.pdst
cpu0_L2C IP-based stride prefetcher
cpu0_L1D next line prefetcher
cpu0_STLB using iTP with max lru@8
cpu0_STLB using iTP with instr@0 and data@2
Init sat counter with 3 bits (max:50).
cpu0_L1I next line prefetcher
Off-chip DRAM Size: 4 GiB Channels: 1 Width: 64-bit Data Rate: 3200 MT/s
Heartbeat CPU 0 instructions: 10000000 cycles: 2500605 heartbeat IPC: 3.99904 cumulative IPC: 3.99904 (Simulation time: 0 hr 0 min 36 sec) 
Heartbeat CPU 0 instructions: 20000003 cycles: 5088780 heartbeat IPC: 3.86373 cumulative IPC: 3.93022 (Simulation time: 0 hr 1 min 14 sec) 
Heartbeat CPU 0 instructions: 30000002 cycles: 7651861 heartbeat IPC: 3.90156 cumulative IPC: 3.92062 (Simulation time: 0 hr 1 min 53 sec) 
Heartbeat CPU 0 instructions: 40000003 cycles: 10203839 heartbeat IPC: 3.91853 cumulative IPC: 3.9201 (Simulation time: 0 hr 2 min 32 sec) 
Heartbeat CPU 0 instructions: 50000003 cycles: 12703978 heartbeat IPC: 3.99978 cumulative IPC: 3.93578 (Simulation time: 0 hr 3 min 11 sec) 
Warmup finished CPU 0 instructions: 50000003 cycles: 12703979 cumulative IPC: 3.93578 (Simulation time: 0 hr 3 min 11 sec) 

Warmup complete CPU 0 instructions: 50000003 cycles: 12703979 (Simulation time: 0 hr 3 min 11 sec) 

Heartbeat CPU 0 instructions: 60000000 cycles: 43727066 heartbeat IPC: 0.322341 cumulative IPC: 0.322341 (Simulation time: 0 hr 4 min 34 sec) 
Heartbeat CPU 0 instructions: 70000000 cycles: 74559752 heartbeat IPC: 0.324332 cumulative IPC: 0.323333 (Simulation time: 0 hr 5 min 56 sec) 
Heartbeat CPU 0 instructions: 80000000 cycles: 106679908 heartbeat IPC: 0.311331 cumulative IPC: 0.319231 (Simulation time: 0 hr 7 min 19 sec) 
Heartbeat CPU 0 instructions: 90000000 cycles: 137165036 heartbeat IPC: 0.328029 cumulative IPC: 0.321386 (Simulation time: 0 hr 8 min 41 sec) 
Heartbeat CPU 0 instructions: 100000004 cycles: 168328232 heartbeat IPC: 0.320892 cumulative IPC: 0.321287 (Simulation time: 0 hr 10 min 3 sec) 
Heartbeat CPU 0 instructions: 110000000 cycles: 199131404 heartbeat IPC: 0.324642 cumulative IPC: 0.321842 (Simulation time: 0 hr 11 min 25 sec) 
Heartbeat CPU 0 instructions: 120000000 cycles: 230148646 heartbeat IPC: 0.322402 cumulative IPC: 0.321921 (Simulation time: 0 hr 12 min 47 sec) 
Heartbeat CPU 0 instructions: 130000000 cycles: 259762050 heartbeat IPC: 0.337685 cumulative IPC: 0.323811 (Simulation time: 0 hr 14 min 7 sec) 
Heartbeat CPU 0 instructions: 140000002 cycles: 291862370 heartbeat IPC: 0.311524 cumulative IPC: 0.322398 (Simulation time: 0 hr 15 min 31 sec) 
Heartbeat CPU 0 instructions: 150000000 cycles: 322862985 heartbeat IPC: 0.322575 cumulative IPC: 0.322416 (Simulation time: 0 hr 16 min 53 sec) 
Simulation finished CPU 0 instructions: 100000002 cycles: 310159008 cumulative IPC: 0.322416 (Simulation time: 0 hr 16 min 53 sec) 

Simulation complete CPU 0 instructions: 100000002 cycles: 310159008 (Simulation time: 0 hr 16 min 53 sec) 


ChampSim completed all CPUs

Saving instructions large page distribution to /home/bsc/bsc018186/scratch/itp_asplos25_AE/dump/smt_srv207_ap_srv128_ap_1024i.pdst...
Saving data large page distribution to /home/bsc/bsc018186/scratch/itp_asplos25_AE/dump/smt_srv207_ap_srv128_ap_1024i.pdst...
=== Simulation ===
CPU 0 runs /gpfs/projects/bsc18/MN4/bsc18/romol/ChampSim/traces/qualcomm_srv/smt_srv207_ap_srv128_ap_1024i.champsimtrace.xz

Region of Interest Statistics

CPU 0 cumulative IPC: 0.322416 instructions: 100000002 cycles: 310159008
CPU 0 Branch Prediction Accuracy: 74.6379% MPKI: 45.7035 Average ROB Occupancy at Mispredict: 10.9914
Branch type MPKI
BRANCH_DIRECT_JUMP: 1.4268
BRANCH_INDIRECT: 24.0043
BRANCH_CONDITIONAL: 12.9435
BRANCH_DIRECT_CALL: 2.70895
BRANCH_INDIRECT_CALL: 1.0328
BRANCH_RETURN: 3.58727

Instructions large pages: 0
Instructions small pages: 11526
Large page distribution for instructions: 0%

Data large pages: 0
Data small pages: 9998
Large page distribution for data: 0%

cpu0_L1I TOTAL       ACCESS:   39136374  HIT:   30384902  MISS:    8751472  iACCESS:   39136374  iHIT:   30384902  iMISS:    8751472  dACCESS:          0  dHIT:          0  dMISS:          0  itACCESS:          0  itHIT:          0  itMISS:          0  dtACCESS:          0  dtHIT:          0  dtMISS:          0
cpu0_L1I LOAD         ACCESS:   11591245  HIT:    9204655  MISS:    2386590  iACCESS:   11591245  iHIT:    9204655  iMISS:    2386590  dACCESS:          0  dHIT:          0  dMISS:          0  itACCESS:          0  itHIT:          0  itMISS:          0  dtACCESS:          0  dtHIT:          0  dtMISS:          0
cpu0_L1I RFO          ACCESS:          0  HIT:          0  MISS:          0  iACCESS:          0  iHIT:          0  iMISS:          0  dACCESS:          0  dHIT:          0  dMISS:          0  itACCESS:          0  itHIT:          0  itMISS:          0  dtACCESS:          0  dtHIT:          0  dtMISS:          0
cpu0_L1I PREFETCH     ACCESS:   27545129  HIT:   21180247  MISS:    6364882  iACCESS:   27545129  iHIT:   21180247  iMISS:    6364882  dACCESS:          0  dHIT:          0  dMISS:          0  itACCESS:          0  itHIT:          0  itMISS:          0  dtACCESS:          0  dtHIT:          0  dtMISS:          0
cpu0_L1I WRITE        ACCESS:          0  HIT:          0  MISS:          0  iACCESS:          0  iHIT:          0  iMISS:          0  dACCESS:          0  dHIT:          0  dMISS:          0  itACCESS:          0  itHIT:          0  itMISS:          0  dtACCESS:          0  dtHIT:          0  dtMISS:          0
cpu0_L1I TRANSLATION  ACCESS:          0  HIT:          0  MISS:          0  iACCESS:          0  iHIT:          0  iMISS:          0  dACCESS:          0  dHIT:          0  dMISS:          0  itACCESS:          0  itHIT:          0  itMISS:          0  dtACCESS:          0  dtHIT:          0  dtMISS:          0
cpu0_L1I PREFETCH  REQUESTED:   30275859  ISSUED:   30275696  CROSSED:          0  USEFUL:    2209918  USELESS:     796433
cpu0_L1I AVERAGE iMISS LATENCY: 25.3288 cycles
cpu0_L1I AVERAGE dMISS LATENCY: 0 cycles
cpu0_L1I AVERAGE itMISS LATENCY: 0 cycles
cpu0_L1I AVERAGE dtMISS LATENCY: 0 cycles
cpu0_L1I PAGE CROSSINGS (TLB HIT):         0 
cpu0_L1I PAGE CROSSINGS (TLB MISS):         0 
cpu0_L1I AVERAGE MISS LATENCY: 25.3288 cycles
cpu0_ITLB TOTAL       ACCESS:   33228725  HIT:   30952303  MISS:    2276422  iACCESS:   33228725  iHIT:   30952303  iMISS:    2276422  dACCESS:          0  dHIT:          0  dMISS:          0  itACCESS:          0  itHIT:          0  itMISS:          0  dtACCESS:          0  dtHIT:          0  dtMISS:          0
cpu0_ITLB LOAD         ACCESS:   33228725  HIT:   30952303  MISS:    2276422  iACCESS:   33228725  iHIT:   30952303  iMISS:    2276422  dACCESS:          0  dHIT:          0  dMISS:          0  itACCESS:          0  itHIT:          0  itMISS:          0  dtACCESS:          0  dtHIT:          0  dtMISS:          0
cpu0_ITLB RFO          ACCESS:          0  HIT:          0  MISS:          0  iACCESS:          0  iHIT:          0  iMISS:          0  dACCESS:          0  dHIT:          0  dMISS:          0  itACCESS:          0  itHIT:          0  itMISS:          0  dtACCESS:          0  dtHIT:          0  dtMISS:          0
cpu0_ITLB PREFETCH     ACCESS:          0  HIT:          0  MISS:          0  iACCESS:          0  iHIT:          0  iMISS:          0  dACCESS:          0  dHIT:          0  dMISS:          0  itACCESS:          0  itHIT:          0  itMISS:          0  dtACCESS:          0  dtHIT:          0  dtMISS:          0
cpu0_ITLB WRITE        ACCESS:          0  HIT:          0  MISS:          0  iACCESS:          0  iHIT:          0  iMISS:          0  dACCESS:          0  dHIT:          0  dMISS:          0  itACCESS:          0  itHIT:          0  itMISS:          0  dtACCESS:          0  dtHIT:          0  dtMISS:          0
cpu0_ITLB TRANSLATION  ACCESS:          0  HIT:          0  MISS:          0  iACCESS:          0  iHIT:          0  iMISS:          0  dACCESS:          0  dHIT:          0  dMISS:          0  itACCESS:          0  itHIT:          0  itMISS:          0  dtACCESS:          0  dtHIT:          0  dtMISS:          0
cpu0_ITLB PREFETCH  REQUESTED:          0  ISSUED:          0  CROSSED:          0  USEFUL:     400136  USELESS:      82633
cpu0_ITLB AVERAGE iMISS LATENCY: 7.08176 cycles
cpu0_ITLB AVERAGE dMISS LATENCY: 0 cycles
cpu0_ITLB AVERAGE itMISS LATENCY: 0 cycles
cpu0_ITLB AVERAGE dtMISS LATENCY: 0 cycles
cpu0_ITLB PAGE CROSSINGS (TLB HIT):         0 
cpu0_ITLB PAGE CROSSINGS (TLB MISS):         0 
cpu0_ITLB AVERAGE MISS LATENCY: 7.08176 cycles
cpu0_DTLB TOTAL       ACCESS:   29205602  HIT:   25688201  MISS:    3517401  iACCESS:          0  iHIT:          0  iMISS:          0  dACCESS:   29205602  dHIT:   25688201  dMISS:    3517401  itACCESS:          0  itHIT:          0  itMISS:          0  dtACCESS:          0  dtHIT:          0  dtMISS:          0
cpu0_DTLB LOAD         ACCESS:   29205602  HIT:   25688201  MISS:    3517401  iACCESS:          0  iHIT:          0  iMISS:          0  dACCESS:   29205602  dHIT:   25688201  dMISS:    3517401  itACCESS:          0  itHIT:          0  itMISS:          0  dtACCESS:          0  dtHIT:          0  dtMISS:          0
cpu0_DTLB RFO          ACCESS:          0  HIT:          0  MISS:          0  iACCESS:          0  iHIT:          0  iMISS:          0  dACCESS:          0  dHIT:          0  dMISS:          0  itACCESS:          0  itHIT:          0  itMISS:          0  dtACCESS:          0  dtHIT:          0  dtMISS:          0
cpu0_DTLB PREFETCH     ACCESS:          0  HIT:          0  MISS:          0  iACCESS:          0  iHIT:          0  iMISS:          0  dACCESS:          0  dHIT:          0  dMISS:          0  itACCESS:          0  itHIT:          0  itMISS:          0  dtACCESS:          0  dtHIT:          0  dtMISS:          0
cpu0_DTLB WRITE        ACCESS:          0  HIT:          0  MISS:          0  iACCESS:          0  iHIT:          0  iMISS:          0  dACCESS:          0  dHIT:          0  dMISS:          0  itACCESS:          0  itHIT:          0  itMISS:          0  dtACCESS:          0  dtHIT:          0  dtMISS:          0
cpu0_DTLB TRANSLATION  ACCESS:          0  HIT:          0  MISS:          0  iACCESS:          0  iHIT:          0  iMISS:          0  dACCESS:          0  dHIT:          0  dMISS:          0  itACCESS:          0  itHIT:          0  itMISS:          0  dtACCESS:          0  dtHIT:          0  dtMISS:          0
cpu0_DTLB PREFETCH  REQUESTED:          0  ISSUED:          0  CROSSED:          0  USEFUL:          0  USELESS:          0
cpu0_DTLB AVERAGE iMISS LATENCY: 0 cycles
cpu0_DTLB AVERAGE dMISS LATENCY: 29.1243 cycles
cpu0_DTLB AVERAGE itMISS LATENCY: 0 cycles
cpu0_DTLB AVERAGE dtMISS LATENCY: 0 cycles
cpu0_DTLB PAGE CROSSINGS (TLB HIT):         0 
cpu0_DTLB PAGE CROSSINGS (TLB MISS):         0 
cpu0_DTLB AVERAGE MISS LATENCY: 29.1243 cycles
cpu0_STLB TOTAL       ACCESS:    2556461  HIT:    2172053  MISS:     384408  iACCESS:     482774  iHIT:     418128  iMISS:      64646  dACCESS:    2073687  dHIT:    1753925  dMISS:     319762  itACCESS:          0  itHIT:          0  itMISS:          0  dtACCESS:          0  dtHIT:          0  dtMISS:          0
cpu0_STLB LOAD         ACCESS:    2556461  HIT:    2172053  MISS:     384408  iACCESS:     482774  iHIT:     418128  iMISS:      64646  dACCESS:    2073687  dHIT:    1753925  dMISS:     319762  itACCESS:          0  itHIT:          0  itMISS:          0  dtACCESS:          0  dtHIT:          0  dtMISS:          0
cpu0_STLB RFO          ACCESS:          0  HIT:          0  MISS:          0  iACCESS:          0  iHIT:          0  iMISS:          0  dACCESS:          0  dHIT:          0  dMISS:          0  itACCESS:          0  itHIT:          0  itMISS:          0  dtACCESS:          0  dtHIT:          0  dtMISS:          0
cpu0_STLB PREFETCH     ACCESS:          0  HIT:          0  MISS:          0  iACCESS:          0  iHIT:          0  iMISS:          0  dACCESS:          0  dHIT:          0  dMISS:          0  itACCESS:          0  itHIT:          0  itMISS:          0  dtACCESS:          0  dtHIT:          0  dtMISS:          0
cpu0_STLB WRITE        ACCESS:          0  HIT:          0  MISS:          0  iACCESS:          0  iHIT:          0  iMISS:          0  dACCESS:          0  dHIT:          0  dMISS:          0  itACCESS:          0  itHIT:          0  itMISS:          0  dtACCESS:          0  dtHIT:          0  dtMISS:          0
cpu0_STLB TRANSLATION  ACCESS:          0  HIT:          0  MISS:          0  iACCESS:          0  iHIT:          0  iMISS:          0  dACCESS:          0  dHIT:          0  dMISS:          0  itACCESS:          0  itHIT:          0  itMISS:          0  dtACCESS:          0  dtHIT:          0  dtMISS:          0
cpu0_STLB PREFETCH  REQUESTED:          0  ISSUED:          0  CROSSED:          0  USEFUL:          0  USELESS:          0
cpu0_STLB AVERAGE iMISS LATENCY: 32.0462 cycles
cpu0_STLB AVERAGE dMISS LATENCY: 222.922 cycles
cpu0_STLB AVERAGE itMISS LATENCY: 0 cycles
cpu0_STLB AVERAGE dtMISS LATENCY: 0 cycles
cpu0_STLB PAGE CROSSINGS (TLB HIT):         0 
cpu0_STLB PAGE CROSSINGS (TLB MISS):         0 
cpu0_STLB AVERAGE MISS LATENCY: 254.968 cycles
cpu0_L1D TOTAL       ACCESS:   45642670  HIT:   39657137  MISS:    5985533  iACCESS:          0  iHIT:          0  iMISS:          0  dACCESS:   45057347  dHIT:   39627724  dMISS:    5429623  itACCESS:      75208  itHIT:       5707  itMISS:      69501  dtACCESS:     510115  dtHIT:      23706  dtMISS:     486409
cpu0_L1D LOAD         ACCESS:   20627679  HIT:   18181134  MISS:    2446545  iACCESS:          0  iHIT:          0  iMISS:          0  dACCESS:   20627679  dHIT:   18181134  dMISS:    2446545  itACCESS:          0  itHIT:          0  itMISS:          0  dtACCESS:          0  dtHIT:          0  dtMISS:          0
cpu0_L1D RFO          ACCESS:          0  HIT:          0  MISS:          0  iACCESS:          0  iHIT:          0  iMISS:          0  dACCESS:          0  dHIT:          0  dMISS:          0  itACCESS:          0  itHIT:          0  itMISS:          0  dtACCESS:          0  dtHIT:          0  dtMISS:          0
cpu0_L1D PREFETCH     ACCESS:   14291754  HIT:   11912684  MISS:    2379070  iACCESS:          0  iHIT:          0  iMISS:          0  dACCESS:   14291754  dHIT:   11912684  dMISS:    2379070  itACCESS:          0  itHIT:          0  itMISS:          0  dtACCESS:          0  dtHIT:          0  dtMISS:          0
cpu0_L1D WRITE        ACCESS:   10137914  HIT:    9533906  MISS:     604008  iACCESS:          0  iHIT:          0  iMISS:          0  dACCESS:   10137914  dHIT:    9533906  dMISS:     604008  itACCESS:          0  itHIT:          0  itMISS:          0  dtACCESS:          0  dtHIT:          0  dtMISS:          0
cpu0_L1D TRANSLATION  ACCESS:     585323  HIT:      29413  MISS:     555910  iACCESS:          0  iHIT:          0  iMISS:          0  dACCESS:          0  dHIT:          0  dMISS:          0  itACCESS:      75208  itHIT:       5707  itMISS:      69501  dtACCESS:     510115  dtHIT:      23706  dtMISS:     486409
cpu0_L1D PREFETCH  REQUESTED:   20627679  ISSUED:   18854775  CROSSED:          0  USEFUL:     377426  USELESS:     961056
cpu0_L1D AVERAGE iMISS LATENCY: 0 cycles
cpu0_L1D AVERAGE dMISS LATENCY: 50.1944 cycles
cpu0_L1D AVERAGE itMISS LATENCY: 1.94842 cycles
cpu0_L1D AVERAGE dtMISS LATENCY: 13.4442 cycles
cpu0_L1D PAGE CROSSINGS (TLB HIT):         0 
cpu0_L1D PAGE CROSSINGS (TLB MISS):         0 
cpu0_L1D AVERAGE MISS LATENCY: 65.5869 cycles
cpu0_L2C TOTAL       ACCESS:    8808833  HIT:    4228866  MISS:    4579967  iACCESS:    3831267  iHIT:    2297686  iMISS:    1533581  dACCESS:    4453840  dHIT:    1864188  dMISS:    2589652  itACCESS:      69435  itHIT:      10831  itMISS:      58604  dtACCESS:     454291  dtHIT:      56161  dtMISS:     398130
cpu0_L2C LOAD         ACCESS:    2116448  HIT:    1021585  MISS:    1094863  iACCESS:     859419  iHIT:     540869  iMISS:     318550  dACCESS:    1257029  dHIT:     480716  dMISS:     776313  itACCESS:          0  itHIT:          0  itMISS:          0  dtACCESS:          0  dtHIT:          0  dtMISS:          0
cpu0_L2C RFO          ACCESS:     226308  HIT:      90071  MISS:     136237  iACCESS:          0  iHIT:          0  iMISS:          0  dACCESS:     226308  dHIT:      90071  dMISS:     136237  itACCESS:          0  itHIT:          0  itMISS:          0  dtACCESS:          0  dtHIT:          0  dtMISS:          0
cpu0_L2C PREFETCH     ACCESS:    5591690  HIT:    2703646  MISS:    2888044  iACCESS:    2971848  iHIT:    1756817  iMISS:    1215031  dACCESS:    2619842  dHIT:     946829  dMISS:    1673013  itACCESS:          0  itHIT:          0  itMISS:          0  dtACCESS:          0  dtHIT:          0  dtMISS:          0
cpu0_L2C WRITE        ACCESS:     350661  HIT:     346572  MISS:       4089  iACCESS:          0  iHIT:          0  iMISS:          0  dACCESS:     350661  dHIT:     346572  dMISS:       4089  itACCESS:          0  itHIT:          0  itMISS:          0  dtACCESS:          0  dtHIT:          0  dtMISS:          0
cpu0_L2C TRANSLATION  ACCESS:     523726  HIT:      66992  MISS:     456734  iACCESS:          0  iHIT:          0  iMISS:          0  dACCESS:          0  dHIT:          0  dMISS:          0  itACCESS:      69435  itHIT:      10831  itMISS:      58604  dtACCESS:     454291  dtHIT:      56161  dtMISS:     398130
cpu0_L2C PREFETCH  REQUESTED:    1520041  ISSUED:    1520039  CROSSED:          0  USEFUL:     349703  USELESS:     329402
cpu0_L2C AVERAGE iMISS LATENCY: 41.5284 cycles
cpu0_L2C AVERAGE dMISS LATENCY: 81.1103 cycles
cpu0_L2C AVERAGE itMISS LATENCY: 2.39662 cycles
cpu0_L2C AVERAGE dtMISS LATENCY: 16.5846 cycles
cpu0_L2C PAGE CROSSINGS (TLB HIT):         0 
cpu0_L2C PAGE CROSSINGS (TLB MISS):         0 
cpu0_L2C AVERAGE MISS LATENCY: 141.62 cycles
LLC TOTAL       ACCESS:    4576111  HIT:    1324270  MISS:    3251841  iACCESS:    1446728  iHIT:     437166  iMISS:    1009562  dACCESS:    2672649  dHIT:     836783  dMISS:    1835866  itACCESS:      58604  itHIT:       3673  itMISS:      54931  dtACCESS:     398130  dtHIT:      46648  dtMISS:     351482
LLC LOAD         ACCESS:    1087152  HIT:     328201  MISS:     758951  iACCESS:     317355  iHIT:     102516  iMISS:     214839  dACCESS:     769797  dHIT:     225685  dMISS:     544112  itACCESS:          0  itHIT:          0  itMISS:          0  dtACCESS:          0  dtHIT:          0  dtMISS:          0
LLC RFO          ACCESS:     136235  HIT:      39737  MISS:      96498  iACCESS:          0  iHIT:          0  iMISS:          0  dACCESS:     136235  dHIT:      39737  dMISS:      96498  itACCESS:          0  itHIT:          0  itMISS:          0  dtACCESS:          0  dtHIT:          0  dtMISS:          0
LLC PREFETCH     ACCESS:    2681916  HIT:     702764  MISS:    1979152  iACCESS:    1129373  iHIT:     334650  iMISS:     794723  dACCESS:    1552543  dHIT:     368114  dMISS:    1184429  itACCESS:          0  itHIT:          0  itMISS:          0  dtACCESS:          0  dtHIT:          0  dtMISS:          0
LLC WRITE        ACCESS:     214074  HIT:     203247  MISS:      10827  iACCESS:          0  iHIT:          0  iMISS:          0  dACCESS:     214074  dHIT:     203247  dMISS:      10827  itACCESS:          0  itHIT:          0  itMISS:          0  dtACCESS:          0  dtHIT:          0  dtMISS:          0
LLC TRANSLATION  ACCESS:     456734  HIT:      50321  MISS:     406413  iACCESS:          0  iHIT:          0  iMISS:          0  dACCESS:          0  dHIT:          0  dMISS:          0  itACCESS:      58604  itHIT:       3673  itMISS:      54931  dtACCESS:     398130  dtHIT:      46648  dtMISS:     351482
LLC PREFETCH  REQUESTED:          0  ISSUED:          0  CROSSED:          0  USEFUL:          0  USELESS:          0
LLC AVERAGE iMISS LATENCY: 49.7241 cycles
LLC AVERAGE dMISS LATENCY: 100.228 cycles
LLC AVERAGE itMISS LATENCY: 3.01786 cycles
LLC AVERAGE dtMISS LATENCY: 20.9383 cycles
LLC PAGE CROSSINGS (TLB HIT):         0 
LLC PAGE CROSSINGS (TLB MISS):         0 
LLC AVERAGE MISS LATENCY: 173.908 cycles

PageTableWalker TOTAL       ACCESS:     139393  
PageTableWalker AVERAGE LATENCY: 6.7127 cycles
PageTableWalker TOTAL LATENCY: 935703 cycles

DRAM Statistics
Channel 0
 RQ ROW_BUFFER_HIT:     682193
  ROW_BUFFER_MISS:    2539536
 AVG DBUS CONGESTED CYCLE:    3.65273
 WQ ROW_BUFFER_HIT:      69428
  ROW_BUFFER_MISS:      58556  FULL:          0

