last_page:0x200000000000000
VMEM_RES_CAP:0x100000
PAGE_SIZE:4096
LOG2_PAGE_SIZE:12
LOG2_PAGE_TABLE_SIZE:9
page_table_levels:5
WARNING: physical memory size is smaller than virtual memory size
FDiP enabled with aggresivity 16

*** ChampSim Multicore Out-of-Order Simulator ***

Warmup Instructions: 50000000
Simulation Instructions: 100000000
Number of CPUs: 1
Small page size: 4096
Large page size: 2097152

CPU 0 Bimodal branch predictor
Basic BTB sets: 1024 ways: 8 indirect buffer size: 4096 RAS size: 64
Instruction page size distrubution: 0
Loading instruction page size distribution from /home/bsc/bsc018186/scratch/itp_asplos25_AE/dump/smt_srv207_ap_srv194_ap_1024i.pdst
Data page size distrubution: 0
Loading data page size distribution from /home/bsc/bsc018186/scratch/itp_asplos25_AE/dump/smt_srv207_ap_srv194_ap_1024i.pdst
cpu0_L2C IP-based stride prefetcher
cpu0_L2C is using PTP replacement policy:
	TLB_STRESS_THRESHOLD:0
	PTE_EVICTION_RATIO:0
cpu0_L1D next line prefetcher
cpu0_STLB using iTP with max lru@8
cpu0_STLB using iTP with instr@0 and data@2
Init sat counter with 3 bits (max:50).
cpu0_L1I next line prefetcher
Off-chip DRAM Size: 4 GiB Channels: 1 Width: 64-bit Data Rate: 3200 MT/s
Heartbeat CPU 0 instructions: 10000003 cycles: 2500371 heartbeat IPC: 3.99941 cumulative IPC: 3.99941 (Simulation time: 0 hr 0 min 36 sec) 
Heartbeat CPU 0 instructions: 20000002 cycles: 5000770 heartbeat IPC: 3.99937 cumulative IPC: 3.99939 (Simulation time: 0 hr 1 min 15 sec) 
Heartbeat CPU 0 instructions: 30000003 cycles: 7501021 heartbeat IPC: 3.9996 cumulative IPC: 3.99946 (Simulation time: 0 hr 1 min 53 sec) 
Heartbeat CPU 0 instructions: 40000000 cycles: 10001658 heartbeat IPC: 3.99898 cumulative IPC: 3.99934 (Simulation time: 0 hr 2 min 32 sec) 
Heartbeat CPU 0 instructions: 50000003 cycles: 12577663 heartbeat IPC: 3.88199 cumulative IPC: 3.97531 (Simulation time: 0 hr 3 min 11 sec) 
Warmup finished CPU 0 instructions: 50000003 cycles: 12577664 cumulative IPC: 3.97531 (Simulation time: 0 hr 3 min 11 sec) 

Warmup complete CPU 0 instructions: 50000003 cycles: 12577664 (Simulation time: 0 hr 3 min 11 sec) 

Heartbeat CPU 0 instructions: 60000003 cycles: 29154989 heartbeat IPC: 0.603234 cumulative IPC: 0.603234 (Simulation time: 0 hr 4 min 16 sec) 
Heartbeat CPU 0 instructions: 70000002 cycles: 50411891 heartbeat IPC: 0.470436 cumulative IPC: 0.528622 (Simulation time: 0 hr 5 min 27 sec) 
Heartbeat CPU 0 instructions: 80000002 cycles: 82737613 heartbeat IPC: 0.309352 cumulative IPC: 0.427595 (Simulation time: 0 hr 6 min 51 sec) 
Heartbeat CPU 0 instructions: 90000000 cycles: 114965051 heartbeat IPC: 0.310295 cumulative IPC: 0.390674 (Simulation time: 0 hr 8 min 15 sec) 
Heartbeat CPU 0 instructions: 100000004 cycles: 146146112 heartbeat IPC: 0.320708 cumulative IPC: 0.37434 (Simulation time: 0 hr 9 min 38 sec) 
Heartbeat CPU 0 instructions: 110000000 cycles: 176606944 heartbeat IPC: 0.328291 cumulative IPC: 0.365789 (Simulation time: 0 hr 11 min 0 sec) 
Heartbeat CPU 0 instructions: 120000003 cycles: 208383551 heartbeat IPC: 0.314698 cumulative IPC: 0.357497 (Simulation time: 0 hr 12 min 24 sec) 
Heartbeat CPU 0 instructions: 130000000 cycles: 240400972 heartbeat IPC: 0.31233 cumulative IPC: 0.35115 (Simulation time: 0 hr 13 min 48 sec) 
Heartbeat CPU 0 instructions: 140000002 cycles: 273996865 heartbeat IPC: 0.297656 cumulative IPC: 0.344275 (Simulation time: 0 hr 15 min 14 sec) 
Heartbeat CPU 0 instructions: 150000000 cycles: 305900431 heartbeat IPC: 0.313445 cumulative IPC: 0.340922 (Simulation time: 0 hr 16 min 39 sec) 
Simulation finished CPU 0 instructions: 100000002 cycles: 293322769 cumulative IPC: 0.340922 (Simulation time: 0 hr 16 min 39 sec) 

Simulation complete CPU 0 instructions: 100000002 cycles: 293322769 (Simulation time: 0 hr 16 min 39 sec) 


ChampSim completed all CPUs

Saving instructions large page distribution to /home/bsc/bsc018186/scratch/itp_asplos25_AE/dump/smt_srv207_ap_srv194_ap_1024i.pdst...
Saving data large page distribution to /home/bsc/bsc018186/scratch/itp_asplos25_AE/dump/smt_srv207_ap_srv194_ap_1024i.pdst...
=== Simulation ===
CPU 0 runs /gpfs/projects/bsc18/MN4/bsc18/romol/ChampSim/traces/qualcomm_srv/smt_srv207_ap_srv194_ap_1024i.champsimtrace.xz

Region of Interest Statistics

CPU 0 cumulative IPC: 0.340922 instructions: 100000002 cycles: 293322769
CPU 0 Branch Prediction Accuracy: 76.7046% MPKI: 44.3035 Average ROB Occupancy at Mispredict: 11.1074
Branch type MPKI
BRANCH_DIRECT_JUMP: 1.35564
BRANCH_INDIRECT: 23.884
BRANCH_CONDITIONAL: 11.9396
BRANCH_DIRECT_CALL: 2.55225
BRANCH_INDIRECT_CALL: 1.1185
BRANCH_RETURN: 3.45359

Instructions large pages: 0
Instructions small pages: 12690
Large page distribution for instructions: 0%

Data large pages: 0
Data small pages: 10928
Large page distribution for data: 0%

cpu0_L1I TOTAL       ACCESS:   39494868  HIT:   31182818  MISS:    8312050  iACCESS:   39494868  iHIT:   31182818  iMISS:    8312050  dACCESS:          0  dHIT:          0  dMISS:          0  itACCESS:          0  itHIT:          0  itMISS:          0  dtACCESS:          0  dtHIT:          0  dtMISS:          0
cpu0_L1I LOAD         ACCESS:   11226847  HIT:    8944093  MISS:    2282754  iACCESS:   11226847  iHIT:    8944093  iMISS:    2282754  dACCESS:          0  dHIT:          0  dMISS:          0  itACCESS:          0  itHIT:          0  itMISS:          0  dtACCESS:          0  dtHIT:          0  dtMISS:          0
cpu0_L1I RFO          ACCESS:          0  HIT:          0  MISS:          0  iACCESS:          0  iHIT:          0  iMISS:          0  dACCESS:          0  dHIT:          0  dMISS:          0  itACCESS:          0  itHIT:          0  itMISS:          0  dtACCESS:          0  dtHIT:          0  dtMISS:          0
cpu0_L1I PREFETCH     ACCESS:   28268021  HIT:   22238725  MISS:    6029296  iACCESS:   28268021  iHIT:   22238725  iMISS:    6029296  dACCESS:          0  dHIT:          0  dMISS:          0  itACCESS:          0  itHIT:          0  itMISS:          0  dtACCESS:          0  dtHIT:          0  dtMISS:          0
cpu0_L1I WRITE        ACCESS:          0  HIT:          0  MISS:          0  iACCESS:          0  iHIT:          0  iMISS:          0  dACCESS:          0  dHIT:          0  dMISS:          0  itACCESS:          0  itHIT:          0  itMISS:          0  dtACCESS:          0  dtHIT:          0  dtMISS:          0
cpu0_L1I TRANSLATION  ACCESS:          0  HIT:          0  MISS:          0  iACCESS:          0  iHIT:          0  iMISS:          0  dACCESS:          0  dHIT:          0  dMISS:          0  itACCESS:          0  itHIT:          0  itMISS:          0  dtACCESS:          0  dtHIT:          0  dtMISS:          0
cpu0_L1I PREFETCH  REQUESTED:   30806153  ISSUED:   30806129  CROSSED:          0  USEFUL:    2073443  USELESS:     773415
cpu0_L1I AVERAGE iMISS LATENCY: 24.6867 cycles
cpu0_L1I AVERAGE dMISS LATENCY: 0 cycles
cpu0_L1I AVERAGE itMISS LATENCY: 0 cycles
cpu0_L1I AVERAGE dtMISS LATENCY: 0 cycles
cpu0_L1I PAGE CROSSINGS (TLB HIT):         0 
cpu0_L1I PAGE CROSSINGS (TLB MISS):         0 
cpu0_L1I AVERAGE MISS LATENCY: 24.6867 cycles
cpu0_ITLB TOTAL       ACCESS:   33480755  HIT:   31292303  MISS:    2188452  iACCESS:   33480755  iHIT:   31292303  iMISS:    2188452  dACCESS:          0  dHIT:          0  dMISS:          0  itACCESS:          0  itHIT:          0  itMISS:          0  dtACCESS:          0  dtHIT:          0  dtMISS:          0
cpu0_ITLB LOAD         ACCESS:   33480755  HIT:   31292303  MISS:    2188452  iACCESS:   33480755  iHIT:   31292303  iMISS:    2188452  dACCESS:          0  dHIT:          0  dMISS:          0  itACCESS:          0  itHIT:          0  itMISS:          0  dtACCESS:          0  dtHIT:          0  dtMISS:          0
cpu0_ITLB RFO          ACCESS:          0  HIT:          0  MISS:          0  iACCESS:          0  iHIT:          0  iMISS:          0  dACCESS:          0  dHIT:          0  dMISS:          0  itACCESS:          0  itHIT:          0  itMISS:          0  dtACCESS:          0  dtHIT:          0  dtMISS:          0
cpu0_ITLB PREFETCH     ACCESS:          0  HIT:          0  MISS:          0  iACCESS:          0  iHIT:          0  iMISS:          0  dACCESS:          0  dHIT:          0  dMISS:          0  itACCESS:          0  itHIT:          0  itMISS:          0  dtACCESS:          0  dtHIT:          0  dtMISS:          0
cpu0_ITLB WRITE        ACCESS:          0  HIT:          0  MISS:          0  iACCESS:          0  iHIT:          0  iMISS:          0  dACCESS:          0  dHIT:          0  dMISS:          0  itACCESS:          0  itHIT:          0  itMISS:          0  dtACCESS:          0  dtHIT:          0  dtMISS:          0
cpu0_ITLB TRANSLATION  ACCESS:          0  HIT:          0  MISS:          0  iACCESS:          0  iHIT:          0  iMISS:          0  dACCESS:          0  dHIT:          0  dMISS:          0  itACCESS:          0  itHIT:          0  itMISS:          0  dtACCESS:          0  dtHIT:          0  dtMISS:          0
cpu0_ITLB PREFETCH  REQUESTED:          0  ISSUED:          0  CROSSED:          0  USEFUL:     384462  USELESS:      84224
cpu0_ITLB AVERAGE iMISS LATENCY: 6.895 cycles
cpu0_ITLB AVERAGE dMISS LATENCY: 0 cycles
cpu0_ITLB AVERAGE itMISS LATENCY: 0 cycles
cpu0_ITLB AVERAGE dtMISS LATENCY: 0 cycles
cpu0_ITLB PAGE CROSSINGS (TLB HIT):         0 
cpu0_ITLB PAGE CROSSINGS (TLB MISS):         0 
cpu0_ITLB AVERAGE MISS LATENCY: 6.895 cycles
cpu0_DTLB TOTAL       ACCESS:   30657865  HIT:   25462664  MISS:    5195201  iACCESS:          0  iHIT:          0  iMISS:          0  dACCESS:   30657865  dHIT:   25462664  dMISS:    5195201  itACCESS:          0  itHIT:          0  itMISS:          0  dtACCESS:          0  dtHIT:          0  dtMISS:          0
cpu0_DTLB LOAD         ACCESS:   30657865  HIT:   25462664  MISS:    5195201  iACCESS:          0  iHIT:          0  iMISS:          0  dACCESS:   30657865  dHIT:   25462664  dMISS:    5195201  itACCESS:          0  itHIT:          0  itMISS:          0  dtACCESS:          0  dtHIT:          0  dtMISS:          0
cpu0_DTLB RFO          ACCESS:          0  HIT:          0  MISS:          0  iACCESS:          0  iHIT:          0  iMISS:          0  dACCESS:          0  dHIT:          0  dMISS:          0  itACCESS:          0  itHIT:          0  itMISS:          0  dtACCESS:          0  dtHIT:          0  dtMISS:          0
cpu0_DTLB PREFETCH     ACCESS:          0  HIT:          0  MISS:          0  iACCESS:          0  iHIT:          0  iMISS:          0  dACCESS:          0  dHIT:          0  dMISS:          0  itACCESS:          0  itHIT:          0  itMISS:          0  dtACCESS:          0  dtHIT:          0  dtMISS:          0
cpu0_DTLB WRITE        ACCESS:          0  HIT:          0  MISS:          0  iACCESS:          0  iHIT:          0  iMISS:          0  dACCESS:          0  dHIT:          0  dMISS:          0  itACCESS:          0  itHIT:          0  itMISS:          0  dtACCESS:          0  dtHIT:          0  dtMISS:          0
cpu0_DTLB TRANSLATION  ACCESS:          0  HIT:          0  MISS:          0  iACCESS:          0  iHIT:          0  iMISS:          0  dACCESS:          0  dHIT:          0  dMISS:          0  itACCESS:          0  itHIT:          0  itMISS:          0  dtACCESS:          0  dtHIT:          0  dtMISS:          0
cpu0_DTLB PREFETCH  REQUESTED:          0  ISSUED:          0  CROSSED:          0  USEFUL:          0  USELESS:          0
cpu0_DTLB AVERAGE iMISS LATENCY: 0 cycles
cpu0_DTLB AVERAGE dMISS LATENCY: 19.0518 cycles
cpu0_DTLB AVERAGE itMISS LATENCY: 0 cycles
cpu0_DTLB AVERAGE dtMISS LATENCY: 0 cycles
cpu0_DTLB PAGE CROSSINGS (TLB HIT):         0 
cpu0_DTLB PAGE CROSSINGS (TLB MISS):         0 
cpu0_DTLB AVERAGE MISS LATENCY: 19.0518 cycles
cpu0_STLB TOTAL       ACCESS:    3301890  HIT:    2946547  MISS:     355343  iACCESS:     468683  iHIT:     408540  iMISS:      60143  dACCESS:    2833207  dHIT:    2538007  dMISS:     295200  itACCESS:          0  itHIT:          0  itMISS:          0  dtACCESS:          0  dtHIT:          0  dtMISS:          0
cpu0_STLB LOAD         ACCESS:    3301890  HIT:    2946547  MISS:     355343  iACCESS:     468683  iHIT:     408540  iMISS:      60143  dACCESS:    2833207  dHIT:    2538007  dMISS:     295200  itACCESS:          0  itHIT:          0  itMISS:          0  dtACCESS:          0  dtHIT:          0  dtMISS:          0
cpu0_STLB RFO          ACCESS:          0  HIT:          0  MISS:          0  iACCESS:          0  iHIT:          0  iMISS:          0  dACCESS:          0  dHIT:          0  dMISS:          0  itACCESS:          0  itHIT:          0  itMISS:          0  dtACCESS:          0  dtHIT:          0  dtMISS:          0
cpu0_STLB PREFETCH     ACCESS:          0  HIT:          0  MISS:          0  iACCESS:          0  iHIT:          0  iMISS:          0  dACCESS:          0  dHIT:          0  dMISS:          0  itACCESS:          0  itHIT:          0  itMISS:          0  dtACCESS:          0  dtHIT:          0  dtMISS:          0
cpu0_STLB WRITE        ACCESS:          0  HIT:          0  MISS:          0  iACCESS:          0  iHIT:          0  iMISS:          0  dACCESS:          0  dHIT:          0  dMISS:          0  itACCESS:          0  itHIT:          0  itMISS:          0  dtACCESS:          0  dtHIT:          0  dtMISS:          0
cpu0_STLB TRANSLATION  ACCESS:          0  HIT:          0  MISS:          0  iACCESS:          0  iHIT:          0  iMISS:          0  dACCESS:          0  dHIT:          0  dMISS:          0  itACCESS:          0  itHIT:          0  itMISS:          0  dtACCESS:          0  dtHIT:          0  dtMISS:          0
cpu0_STLB PREFETCH  REQUESTED:          0  ISSUED:          0  CROSSED:          0  USEFUL:          0  USELESS:          0
cpu0_STLB AVERAGE iMISS LATENCY: 32.0824 cycles
cpu0_STLB AVERAGE dMISS LATENCY: 213.923 cycles
cpu0_STLB AVERAGE itMISS LATENCY: 0 cycles
cpu0_STLB AVERAGE dtMISS LATENCY: 0 cycles
cpu0_STLB PAGE CROSSINGS (TLB HIT):         0 
cpu0_STLB PAGE CROSSINGS (TLB MISS):         0 
cpu0_STLB AVERAGE MISS LATENCY: 246.005 cycles
cpu0_L1D TOTAL       ACCESS:   47843915  HIT:   40152510  MISS:    7691405  iACCESS:          0  iHIT:          0  iMISS:          0  dACCESS:   47300351  dHIT:   40125895  dMISS:    7174456  itACCESS:      71311  itHIT:       5276  itMISS:      66035  dtACCESS:     472253  dtHIT:      21339  dtMISS:     450914
cpu0_L1D LOAD         ACCESS:   22337229  HIT:   18519299  MISS:    3817930  iACCESS:          0  iHIT:          0  iMISS:          0  dACCESS:   22337229  dHIT:   18519299  dMISS:    3817930  itACCESS:          0  itHIT:          0  itMISS:          0  dtACCESS:          0  dtHIT:          0  dtMISS:          0
cpu0_L1D RFO          ACCESS:          0  HIT:          0  MISS:          0  iACCESS:          0  iHIT:          0  iMISS:          0  dACCESS:          0  dHIT:          0  dMISS:          0  itACCESS:          0  itHIT:          0  itMISS:          0  dtACCESS:          0  dtHIT:          0  dtMISS:          0
cpu0_L1D PREFETCH     ACCESS:   14930943  HIT:   12216115  MISS:    2714828  iACCESS:          0  iHIT:          0  iMISS:          0  dACCESS:   14930943  dHIT:   12216115  dMISS:    2714828  itACCESS:          0  itHIT:          0  itMISS:          0  dtACCESS:          0  dtHIT:          0  dtMISS:          0
cpu0_L1D WRITE        ACCESS:   10032179  HIT:    9390481  MISS:     641698  iACCESS:          0  iHIT:          0  iMISS:          0  dACCESS:   10032179  dHIT:    9390481  dMISS:     641698  itACCESS:          0  itHIT:          0  itMISS:          0  dtACCESS:          0  dtHIT:          0  dtMISS:          0
cpu0_L1D TRANSLATION  ACCESS:     543564  HIT:      26615  MISS:     516949  iACCESS:          0  iHIT:          0  iMISS:          0  dACCESS:          0  dHIT:          0  dMISS:          0  itACCESS:      71311  itHIT:       5276  itMISS:      66035  dtACCESS:     472253  dtHIT:      21339  dtMISS:     450914
cpu0_L1D PREFETCH  REQUESTED:   22337229  ISSUED:   19226604  CROSSED:          0  USEFUL:     350306  USELESS:    1060275
cpu0_L1D AVERAGE iMISS LATENCY: 0 cycles
cpu0_L1D AVERAGE dMISS LATENCY: 39.4048 cycles
cpu0_L1D AVERAGE itMISS LATENCY: 1.40291 cycles
cpu0_L1D AVERAGE dtMISS LATENCY: 9.25714 cycles
cpu0_L1D PAGE CROSSINGS (TLB HIT):         0 
cpu0_L1D PAGE CROSSINGS (TLB MISS):         0 
cpu0_L1D AVERAGE MISS LATENCY: 50.0648 cycles
cpu0_L2C TOTAL       ACCESS:    9669653  HIT:    4995874  MISS:    4673779  iACCESS:    3643217  iHIT:    2051531  iMISS:    1591686  dACCESS:    5544575  dHIT:    2873165  dMISS:    2671410  itACCESS:      65469  itHIT:       9553  itMISS:      55916  dtACCESS:     416392  dtHIT:      61625  dtMISS:     354767
cpu0_L2C LOAD         ACCESS:    3205420  HIT:    1990968  MISS:    1214452  iACCESS:     825986  iHIT:     478807  iMISS:     347179  dACCESS:    2379434  dHIT:    1512161  dMISS:     867273  itACCESS:          0  itHIT:          0  itMISS:          0  dtACCESS:          0  dtHIT:          0  dtMISS:          0
cpu0_L2C RFO          ACCESS:     248592  HIT:      98318  MISS:     150274  iACCESS:          0  iHIT:          0  iMISS:          0  dACCESS:     248592  dHIT:      98318  dMISS:     150274  itACCESS:          0  itHIT:          0  itMISS:          0  dtACCESS:          0  dtHIT:          0  dtMISS:          0
cpu0_L2C PREFETCH     ACCESS:    5393853  HIT:    2536242  MISS:    2857611  iACCESS:    2817231  iHIT:    1572724  iMISS:    1244507  dACCESS:    2576622  dHIT:     963518  dMISS:    1613104  itACCESS:          0  itHIT:          0  itMISS:          0  dtACCESS:          0  dtHIT:          0  dtMISS:          0
cpu0_L2C WRITE        ACCESS:     339927  HIT:     299168  MISS:      40759  iACCESS:          0  iHIT:          0  iMISS:          0  dACCESS:     339927  dHIT:     299168  dMISS:      40759  itACCESS:          0  itHIT:          0  itMISS:          0  dtACCESS:          0  dtHIT:          0  dtMISS:          0
cpu0_L2C TRANSLATION  ACCESS:     481861  HIT:      71178  MISS:     410683  iACCESS:          0  iHIT:          0  iMISS:          0  dACCESS:          0  dHIT:          0  dMISS:          0  itACCESS:      65469  itHIT:       9553  itMISS:      55916  dtACCESS:     416392  dtHIT:      61625  dtMISS:     354767
cpu0_L2C PREFETCH  REQUESTED:    1376853  ISSUED:    1376840  CROSSED:          0  USEFUL:     310701  USELESS:     317585
cpu0_L2C AVERAGE iMISS LATENCY: 37.5012 cycles
cpu0_L2C AVERAGE dMISS LATENCY: 74.2643 cycles
cpu0_L2C AVERAGE itMISS LATENCY: 2.17023 cycles
cpu0_L2C AVERAGE dtMISS LATENCY: 14.3512 cycles
cpu0_L2C PAGE CROSSINGS (TLB HIT):         0 
cpu0_L2C PAGE CROSSINGS (TLB MISS):         0 
cpu0_L2C AVERAGE MISS LATENCY: 128.287 cycles
LLC TOTAL       ACCESS:    4657635  HIT:    1717705  MISS:    2939930  iACCESS:    1517931  iHIT:     613953  iMISS:     903978  dACCESS:    2729021  dHIT:    1052420  dMISS:    1676601  itACCESS:      55916  itHIT:       5252  itMISS:      50664  dtACCESS:     354767  dtHIT:      46080  dtMISS:     308687
LLC LOAD         ACCESS:    1206498  HIT:     505576  MISS:     700922  iACCESS:     346123  iHIT:     154915  iMISS:     191208  dACCESS:     860375  dHIT:     350661  dMISS:     509714  itACCESS:          0  itHIT:          0  itMISS:          0  dtACCESS:          0  dtHIT:          0  dtMISS:          0
LLC RFO          ACCESS:     150252  HIT:      56236  MISS:      94016  iACCESS:          0  iHIT:          0  iMISS:          0  dACCESS:     150252  dHIT:      56236  dMISS:      94016  itACCESS:          0  itHIT:          0  itMISS:          0  dtACCESS:          0  dtHIT:          0  dtMISS:          0
LLC PREFETCH     ACCESS:    2680967  HIT:     902723  MISS:    1778244  iACCESS:    1171808  iHIT:     459038  iMISS:     712770  dACCESS:    1509159  dHIT:     443685  dMISS:    1065474  itACCESS:          0  itHIT:          0  itMISS:          0  dtACCESS:          0  dtHIT:          0  dtMISS:          0
LLC WRITE        ACCESS:     209235  HIT:     201838  MISS:       7397  iACCESS:          0  iHIT:          0  iMISS:          0  dACCESS:     209235  dHIT:     201838  dMISS:       7397  itACCESS:          0  itHIT:          0  itMISS:          0  dtACCESS:          0  dtHIT:          0  dtMISS:          0
LLC TRANSLATION  ACCESS:     410683  HIT:      51332  MISS:     359351  iACCESS:          0  iHIT:          0  iMISS:          0  dACCESS:          0  dHIT:          0  dMISS:          0  itACCESS:      55916  itHIT:       5252  itMISS:      50664  dtACCESS:     354767  dtHIT:      46080  dtMISS:     308687
LLC PREFETCH  REQUESTED:          0  ISSUED:          0  CROSSED:          0  USEFUL:          0  USELESS:          0
LLC AVERAGE iMISS LATENCY: 49.4866 cycles
LLC AVERAGE dMISS LATENCY: 102.071 cycles
LLC AVERAGE itMISS LATENCY: 3.07323 cycles
LLC AVERAGE dtMISS LATENCY: 20.4308 cycles
LLC PAGE CROSSINGS (TLB HIT):         0 
LLC PAGE CROSSINGS (TLB MISS):         0 
LLC AVERAGE MISS LATENCY: 175.061 cycles

PageTableWalker TOTAL       ACCESS:     171062  
PageTableWalker AVERAGE LATENCY: 6.63075 cycles
PageTableWalker TOTAL LATENCY: 1134268 cycles

DRAM Statistics
Channel 0
 RQ ROW_BUFFER_HIT:     599347
  ROW_BUFFER_MISS:    2315969
 AVG DBUS CONGESTED CYCLE:    3.65209
 WQ ROW_BUFFER_HIT:      64841
  ROW_BUFFER_MISS:      57278  FULL:          0

