last_page:0x200000000000000
VMEM_RES_CAP:0x100000
PAGE_SIZE:4096
LOG2_PAGE_SIZE:12
LOG2_PAGE_TABLE_SIZE:9
page_table_levels:5
WARNING: physical memory size is smaller than virtual memory size
FDiP enabled with aggresivity 16

*** ChampSim Multicore Out-of-Order Simulator ***

Warmup Instructions: 50000000
Simulation Instructions: 100000000
Number of CPUs: 1
Small page size: 4096
Large page size: 2097152

CPU 0 Bimodal branch predictor
Basic BTB sets: 1024 ways: 8 indirect buffer size: 4096 RAS size: 64
Instruction page size distrubution: 0
Loading instruction page size distribution from /home/bsc/bsc018186/scratch/itp_asplos25_AE/dump/smt_srv85_ap_srv73_ap_1024i.pdst
Data page size distrubution: 0
Loading data page size distribution from /home/bsc/bsc018186/scratch/itp_asplos25_AE/dump/smt_srv85_ap_srv73_ap_1024i.pdst
cpu0_L2C IP-based stride prefetcher
cpu0_L1D next line prefetcher
cpu0_L1I next line prefetcher
Off-chip DRAM Size: 4 GiB Channels: 1 Width: 64-bit Data Rate: 3200 MT/s
Heartbeat CPU 0 instructions: 10000001 cycles: 2500601 heartbeat IPC: 3.99904 cumulative IPC: 3.99904 (Simulation time: 0 hr 0 min 44 sec) 
Heartbeat CPU 0 instructions: 20000003 cycles: 5001198 heartbeat IPC: 3.99905 cumulative IPC: 3.99905 (Simulation time: 0 hr 1 min 31 sec) 
Heartbeat CPU 0 instructions: 30000003 cycles: 7501576 heartbeat IPC: 3.9994 cumulative IPC: 3.99917 (Simulation time: 0 hr 2 min 18 sec) 
Heartbeat CPU 0 instructions: 40000001 cycles: 10001995 heartbeat IPC: 3.99933 cumulative IPC: 3.99921 (Simulation time: 0 hr 3 min 4 sec) 
Heartbeat CPU 0 instructions: 50000001 cycles: 12503554 heartbeat IPC: 3.99751 cumulative IPC: 3.99887 (Simulation time: 0 hr 3 min 50 sec) 
Warmup finished CPU 0 instructions: 50000001 cycles: 12503555 cumulative IPC: 3.99887 (Simulation time: 0 hr 3 min 50 sec) 

Warmup complete CPU 0 instructions: 50000001 cycles: 12503555 (Simulation time: 0 hr 3 min 50 sec) 

Heartbeat CPU 0 instructions: 60000001 cycles: 36538452 heartbeat IPC: 0.416062 cumulative IPC: 0.416062 (Simulation time: 0 hr 5 min 17 sec) 
Heartbeat CPU 0 instructions: 70000000 cycles: 58787755 heartbeat IPC: 0.449453 cumulative IPC: 0.432113 (Simulation time: 0 hr 6 min 40 sec) 
Heartbeat CPU 0 instructions: 80000002 cycles: 82218200 heartbeat IPC: 0.426796 cumulative IPC: 0.430326 (Simulation time: 0 hr 8 min 2 sec) 
Heartbeat CPU 0 instructions: 90000002 cycles: 113340468 heartbeat IPC: 0.321314 cumulative IPC: 0.396681 (Simulation time: 0 hr 9 min 40 sec) 
Heartbeat CPU 0 instructions: 100000000 cycles: 145330358 heartbeat IPC: 0.312599 cumulative IPC: 0.376431 (Simulation time: 0 hr 11 min 15 sec) 
Heartbeat CPU 0 instructions: 110000001 cycles: 177013940 heartbeat IPC: 0.315621 cumulative IPC: 0.364719 (Simulation time: 0 hr 12 min 44 sec) 
Heartbeat CPU 0 instructions: 120000001 cycles: 207094630 heartbeat IPC: 0.33244 cumulative IPC: 0.359729 (Simulation time: 0 hr 14 min 11 sec) 
Heartbeat CPU 0 instructions: 130000000 cycles: 224618332 heartbeat IPC: 0.570656 cumulative IPC: 0.377155 (Simulation time: 0 hr 15 min 22 sec) 
Heartbeat CPU 0 instructions: 140000004 cycles: 245521479 heartbeat IPC: 0.478398 cumulative IPC: 0.386237 (Simulation time: 0 hr 16 min 36 sec) 
Heartbeat CPU 0 instructions: 150000000 cycles: 276781994 heartbeat IPC: 0.319893 cumulative IPC: 0.378389 (Simulation time: 0 hr 18 min 6 sec) 
Simulation finished CPU 0 instructions: 100000004 cycles: 264278441 cumulative IPC: 0.378389 (Simulation time: 0 hr 18 min 6 sec) 

Simulation complete CPU 0 instructions: 100000004 cycles: 264278441 (Simulation time: 0 hr 18 min 6 sec) 


ChampSim completed all CPUs

Saving instructions large page distribution to /home/bsc/bsc018186/scratch/itp_asplos25_AE/dump/smt_srv85_ap_srv73_ap_1024i.pdst...
Saving data large page distribution to /home/bsc/bsc018186/scratch/itp_asplos25_AE/dump/smt_srv85_ap_srv73_ap_1024i.pdst...
=== Simulation ===
CPU 0 runs /gpfs/projects/bsc18/MN4/bsc18/romol/ChampSim/traces/qualcomm_srv/smt_srv85_ap_srv73_ap_1024i.champsimtrace.xz

Region of Interest Statistics

CPU 0 cumulative IPC: 0.378389 instructions: 100000004 cycles: 264278441
CPU 0 Branch Prediction Accuracy: 77.8344% MPKI: 42.992 Average ROB Occupancy at Mispredict: 10.9698
Branch type MPKI
BRANCH_DIRECT_JUMP: 1.10547
BRANCH_INDIRECT: 23.0236
BRANCH_CONDITIONAL: 12.2427
BRANCH_DIRECT_CALL: 2.0156
BRANCH_INDIRECT_CALL: 1.67551
BRANCH_RETURN: 2.92911

Instructions large pages: 0
Instructions small pages: 11330
Large page distribution for instructions: 0%

Data large pages: 0
Data small pages: 9490
Large page distribution for data: 0%

cpu0_L1I TOTAL       ACCESS:   38194822  HIT:   31079496  MISS:    7115326  iACCESS:   38194822  iHIT:   31079496  iMISS:    7115326  dACCESS:          0  dHIT:          0  dMISS:          0  itACCESS:          0  itHIT:          0  itMISS:          0  dtACCESS:          0  dtHIT:          0  dtMISS:          0
cpu0_L1I LOAD         ACCESS:   10588408  HIT:    8636567  MISS:    1951841  iACCESS:   10588408  iHIT:    8636567  iMISS:    1951841  dACCESS:          0  dHIT:          0  dMISS:          0  itACCESS:          0  itHIT:          0  itMISS:          0  dtACCESS:          0  dtHIT:          0  dtMISS:          0
cpu0_L1I RFO          ACCESS:          0  HIT:          0  MISS:          0  iACCESS:          0  iHIT:          0  iMISS:          0  dACCESS:          0  dHIT:          0  dMISS:          0  itACCESS:          0  itHIT:          0  itMISS:          0  dtACCESS:          0  dtHIT:          0  dtMISS:          0
cpu0_L1I PREFETCH     ACCESS:   27606414  HIT:   22442929  MISS:    5163485  iACCESS:   27606414  iHIT:   22442929  iMISS:    5163485  dACCESS:          0  dHIT:          0  dMISS:          0  itACCESS:          0  itHIT:          0  itMISS:          0  dtACCESS:          0  dtHIT:          0  dtMISS:          0
cpu0_L1I WRITE        ACCESS:          0  HIT:          0  MISS:          0  iACCESS:          0  iHIT:          0  iMISS:          0  dACCESS:          0  dHIT:          0  dMISS:          0  itACCESS:          0  itHIT:          0  itMISS:          0  dtACCESS:          0  dtHIT:          0  dtMISS:          0
cpu0_L1I TRANSLATION  ACCESS:          0  HIT:          0  MISS:          0  iACCESS:          0  iHIT:          0  iMISS:          0  dACCESS:          0  dHIT:          0  dMISS:          0  itACCESS:          0  itHIT:          0  itMISS:          0  dtACCESS:          0  dtHIT:          0  dtMISS:          0
cpu0_L1I PREFETCH  REQUESTED:   30036805  ISSUED:   30036798  CROSSED:          0  USEFUL:    1800029  USELESS:     650227
cpu0_L1I AVERAGE iMISS LATENCY: 24.272 cycles
cpu0_L1I AVERAGE dMISS LATENCY: 0 cycles
cpu0_L1I AVERAGE itMISS LATENCY: 0 cycles
cpu0_L1I AVERAGE dtMISS LATENCY: 0 cycles
cpu0_L1I PAGE CROSSINGS (TLB HIT):         0 
cpu0_L1I PAGE CROSSINGS (TLB MISS):         0 
cpu0_L1I AVERAGE MISS LATENCY: 24.272 cycles
cpu0_ITLB TOTAL       ACCESS:   32333916  HIT:   30472588  MISS:    1861328  iACCESS:   32333916  iHIT:   30472588  iMISS:    1861328  dACCESS:          0  dHIT:          0  dMISS:          0  itACCESS:          0  itHIT:          0  itMISS:          0  dtACCESS:          0  dtHIT:          0  dtMISS:          0
cpu0_ITLB LOAD         ACCESS:   32333916  HIT:   30472588  MISS:    1861328  iACCESS:   32333916  iHIT:   30472588  iMISS:    1861328  dACCESS:          0  dHIT:          0  dMISS:          0  itACCESS:          0  itHIT:          0  itMISS:          0  dtACCESS:          0  dtHIT:          0  dtMISS:          0
cpu0_ITLB RFO          ACCESS:          0  HIT:          0  MISS:          0  iACCESS:          0  iHIT:          0  iMISS:          0  dACCESS:          0  dHIT:          0  dMISS:          0  itACCESS:          0  itHIT:          0  itMISS:          0  dtACCESS:          0  dtHIT:          0  dtMISS:          0
cpu0_ITLB PREFETCH     ACCESS:          0  HIT:          0  MISS:          0  iACCESS:          0  iHIT:          0  iMISS:          0  dACCESS:          0  dHIT:          0  dMISS:          0  itACCESS:          0  itHIT:          0  itMISS:          0  dtACCESS:          0  dtHIT:          0  dtMISS:          0
cpu0_ITLB WRITE        ACCESS:          0  HIT:          0  MISS:          0  iACCESS:          0  iHIT:          0  iMISS:          0  dACCESS:          0  dHIT:          0  dMISS:          0  itACCESS:          0  itHIT:          0  itMISS:          0  dtACCESS:          0  dtHIT:          0  dtMISS:          0
cpu0_ITLB TRANSLATION  ACCESS:          0  HIT:          0  MISS:          0  iACCESS:          0  iHIT:          0  iMISS:          0  dACCESS:          0  dHIT:          0  dMISS:          0  itACCESS:          0  itHIT:          0  itMISS:          0  dtACCESS:          0  dtHIT:          0  dtMISS:          0
cpu0_ITLB PREFETCH  REQUESTED:          0  ISSUED:          0  CROSSED:          0  USEFUL:     326995  USELESS:      68991
cpu0_ITLB AVERAGE iMISS LATENCY: 10.2431 cycles
cpu0_ITLB AVERAGE dMISS LATENCY: 0 cycles
cpu0_ITLB AVERAGE itMISS LATENCY: 0 cycles
cpu0_ITLB AVERAGE dtMISS LATENCY: 0 cycles
cpu0_ITLB PAGE CROSSINGS (TLB HIT):         0 
cpu0_ITLB PAGE CROSSINGS (TLB MISS):         0 
cpu0_ITLB AVERAGE MISS LATENCY: 10.2431 cycles
cpu0_DTLB TOTAL       ACCESS:   31271261  HIT:   25845307  MISS:    5425954  iACCESS:          0  iHIT:          0  iMISS:          0  dACCESS:   31271261  dHIT:   25845307  dMISS:    5425954  itACCESS:          0  itHIT:          0  itMISS:          0  dtACCESS:          0  dtHIT:          0  dtMISS:          0
cpu0_DTLB LOAD         ACCESS:   31271261  HIT:   25845307  MISS:    5425954  iACCESS:          0  iHIT:          0  iMISS:          0  dACCESS:   31271261  dHIT:   25845307  dMISS:    5425954  itACCESS:          0  itHIT:          0  itMISS:          0  dtACCESS:          0  dtHIT:          0  dtMISS:          0
cpu0_DTLB RFO          ACCESS:          0  HIT:          0  MISS:          0  iACCESS:          0  iHIT:          0  iMISS:          0  dACCESS:          0  dHIT:          0  dMISS:          0  itACCESS:          0  itHIT:          0  itMISS:          0  dtACCESS:          0  dtHIT:          0  dtMISS:          0
cpu0_DTLB PREFETCH     ACCESS:          0  HIT:          0  MISS:          0  iACCESS:          0  iHIT:          0  iMISS:          0  dACCESS:          0  dHIT:          0  dMISS:          0  itACCESS:          0  itHIT:          0  itMISS:          0  dtACCESS:          0  dtHIT:          0  dtMISS:          0
cpu0_DTLB WRITE        ACCESS:          0  HIT:          0  MISS:          0  iACCESS:          0  iHIT:          0  iMISS:          0  dACCESS:          0  dHIT:          0  dMISS:          0  itACCESS:          0  itHIT:          0  itMISS:          0  dtACCESS:          0  dtHIT:          0  dtMISS:          0
cpu0_DTLB TRANSLATION  ACCESS:          0  HIT:          0  MISS:          0  iACCESS:          0  iHIT:          0  iMISS:          0  dACCESS:          0  dHIT:          0  dMISS:          0  itACCESS:          0  itHIT:          0  itMISS:          0  dtACCESS:          0  dtHIT:          0  dtMISS:          0
cpu0_DTLB PREFETCH  REQUESTED:          0  ISSUED:          0  CROSSED:          0  USEFUL:          0  USELESS:          0
cpu0_DTLB AVERAGE iMISS LATENCY: 0 cycles
cpu0_DTLB AVERAGE dMISS LATENCY: 14.6738 cycles
cpu0_DTLB AVERAGE itMISS LATENCY: 0 cycles
cpu0_DTLB AVERAGE dtMISS LATENCY: 0 cycles
cpu0_DTLB PAGE CROSSINGS (TLB HIT):         0 
cpu0_DTLB PAGE CROSSINGS (TLB MISS):         0 
cpu0_DTLB AVERAGE MISS LATENCY: 14.6738 cycles
cpu0_STLB TOTAL       ACCESS:    3280900  HIT:    2985830  MISS:     295070  iACCESS:     395985  iHIT:     304838  iMISS:      91147  dACCESS:    2884915  dHIT:    2680992  dMISS:     203923  itACCESS:          0  itHIT:          0  itMISS:          0  dtACCESS:          0  dtHIT:          0  dtMISS:          0
cpu0_STLB LOAD         ACCESS:    3280900  HIT:    2985830  MISS:     295070  iACCESS:     395985  iHIT:     304838  iMISS:      91147  dACCESS:    2884915  dHIT:    2680992  dMISS:     203923  itACCESS:          0  itHIT:          0  itMISS:          0  dtACCESS:          0  dtHIT:          0  dtMISS:          0
cpu0_STLB RFO          ACCESS:          0  HIT:          0  MISS:          0  iACCESS:          0  iHIT:          0  iMISS:          0  dACCESS:          0  dHIT:          0  dMISS:          0  itACCESS:          0  itHIT:          0  itMISS:          0  dtACCESS:          0  dtHIT:          0  dtMISS:          0
cpu0_STLB PREFETCH     ACCESS:          0  HIT:          0  MISS:          0  iACCESS:          0  iHIT:          0  iMISS:          0  dACCESS:          0  dHIT:          0  dMISS:          0  itACCESS:          0  itHIT:          0  itMISS:          0  dtACCESS:          0  dtHIT:          0  dtMISS:          0
cpu0_STLB WRITE        ACCESS:          0  HIT:          0  MISS:          0  iACCESS:          0  iHIT:          0  iMISS:          0  dACCESS:          0  dHIT:          0  dMISS:          0  itACCESS:          0  itHIT:          0  itMISS:          0  dtACCESS:          0  dtHIT:          0  dtMISS:          0
cpu0_STLB TRANSLATION  ACCESS:          0  HIT:          0  MISS:          0  iACCESS:          0  iHIT:          0  iMISS:          0  dACCESS:          0  dHIT:          0  dMISS:          0  itACCESS:          0  itHIT:          0  itMISS:          0  dtACCESS:          0  dtHIT:          0  dtMISS:          0
cpu0_STLB PREFETCH  REQUESTED:          0  ISSUED:          0  CROSSED:          0  USEFUL:          0  USELESS:          0
cpu0_STLB AVERAGE iMISS LATENCY: 53.8938 cycles
cpu0_STLB AVERAGE dMISS LATENCY: 190.836 cycles
cpu0_STLB AVERAGE itMISS LATENCY: 0 cycles
cpu0_STLB AVERAGE dtMISS LATENCY: 0 cycles
cpu0_STLB PAGE CROSSINGS (TLB HIT):         0 
cpu0_STLB PAGE CROSSINGS (TLB MISS):         0 
cpu0_STLB AVERAGE MISS LATENCY: 244.73 cycles
cpu0_L1D TOTAL       ACCESS:   48893183  HIT:   40788125  MISS:    8105058  iACCESS:          0  iHIT:          0  iMISS:          0  dACCESS:   48415425  dHIT:   40764735  dMISS:    7650690  itACCESS:     110749  itHIT:       9883  itMISS:     100866  dtACCESS:     367009  dtHIT:      13507  dtMISS:     353502
cpu0_L1D LOAD         ACCESS:   23357864  HIT:   19278544  MISS:    4079320  iACCESS:          0  iHIT:          0  iMISS:          0  dACCESS:   23357864  dHIT:   19278544  dMISS:    4079320  itACCESS:          0  itHIT:          0  itMISS:          0  dtACCESS:          0  dtHIT:          0  dtMISS:          0
cpu0_L1D RFO          ACCESS:          0  HIT:          0  MISS:          0  iACCESS:          0  iHIT:          0  iMISS:          0  dACCESS:          0  dHIT:          0  dMISS:          0  itACCESS:          0  itHIT:          0  itMISS:          0  dtACCESS:          0  dtHIT:          0  dtMISS:          0
cpu0_L1D PREFETCH     ACCESS:   15225114  HIT:   12437321  MISS:    2787793  iACCESS:          0  iHIT:          0  iMISS:          0  dACCESS:   15225114  dHIT:   12437321  dMISS:    2787793  itACCESS:          0  itHIT:          0  itMISS:          0  dtACCESS:          0  dtHIT:          0  dtMISS:          0
cpu0_L1D WRITE        ACCESS:    9832447  HIT:    9048870  MISS:     783577  iACCESS:          0  iHIT:          0  iMISS:          0  dACCESS:    9832447  dHIT:    9048870  dMISS:     783577  itACCESS:          0  itHIT:          0  itMISS:          0  dtACCESS:          0  dtHIT:          0  dtMISS:          0
cpu0_L1D TRANSLATION  ACCESS:     477758  HIT:      23390  MISS:     454368  iACCESS:          0  iHIT:          0  iMISS:          0  dACCESS:          0  dHIT:          0  dMISS:          0  itACCESS:     110749  itHIT:       9883  itMISS:     100866  dtACCESS:     367009  dtHIT:      13507  dtMISS:     353502
cpu0_L1D PREFETCH  REQUESTED:   23357864  ISSUED:   19753889  CROSSED:          0  USEFUL:     341533  USELESS:    1123418
cpu0_L1D AVERAGE iMISS LATENCY: 0 cycles
cpu0_L1D AVERAGE dMISS LATENCY: 33.4586 cycles
cpu0_L1D AVERAGE itMISS LATENCY: 1.84512 cycles
cpu0_L1D AVERAGE dtMISS LATENCY: 6.47706 cycles
cpu0_L1D PAGE CROSSINGS (TLB HIT):         0 
cpu0_L1D PAGE CROSSINGS (TLB MISS):         0 
cpu0_L1D AVERAGE MISS LATENCY: 41.7808 cycles
cpu0_L2C TOTAL       ACCESS:    9238336  HIT:    5602435  MISS:    3635901  iACCESS:    3124267  iHIT:    1935085  iMISS:    1189182  dACCESS:    5734349  dHIT:    3620550  dMISS:    2113799  itACCESS:      92334  itHIT:      15745  itMISS:      76589  dtACCESS:     287386  dtHIT:      31055  dtMISS:     256331
cpu0_L2C LOAD         ACCESS:    3360594  HIT:    2466962  MISS:     893632  iACCESS:     702481  iHIT:     454525  iMISS:     247956  dACCESS:    2658113  dHIT:    2012437  dMISS:     645676  itACCESS:          0  itHIT:          0  itMISS:          0  dtACCESS:          0  dtHIT:          0  dtMISS:          0
cpu0_L2C RFO          ACCESS:     235444  HIT:     106779  MISS:     128665  iACCESS:          0  iHIT:          0  iMISS:          0  dACCESS:     235444  dHIT:     106779  dMISS:     128665  itACCESS:          0  itHIT:          0  itMISS:          0  dtACCESS:          0  dtHIT:          0  dtMISS:          0
cpu0_L2C PREFETCH     ACCESS:    4927623  HIT:    2649190  MISS:    2278433  iACCESS:    2421786  iHIT:    1480560  iMISS:     941226  dACCESS:    2505837  dHIT:    1168630  dMISS:    1337207  itACCESS:          0  itHIT:          0  itMISS:          0  dtACCESS:          0  dtHIT:          0  dtMISS:          0
cpu0_L2C WRITE        ACCESS:     334955  HIT:     332704  MISS:       2251  iACCESS:          0  iHIT:          0  iMISS:          0  dACCESS:     334955  dHIT:     332704  dMISS:       2251  itACCESS:          0  itHIT:          0  itMISS:          0  dtACCESS:          0  dtHIT:          0  dtMISS:          0
cpu0_L2C TRANSLATION  ACCESS:     379720  HIT:      46800  MISS:     332920  iACCESS:          0  iHIT:          0  iMISS:          0  dACCESS:          0  dHIT:          0  dMISS:          0  itACCESS:      92334  itHIT:      15745  itMISS:      76589  dtACCESS:     287386  dtHIT:      31055  dtMISS:     256331
cpu0_L2C PREFETCH  REQUESTED:    1227174  ISSUED:    1227086  CROSSED:          0  USEFUL:     273235  USELESS:     254591
cpu0_L2C AVERAGE iMISS LATENCY: 40.3828 cycles
cpu0_L2C AVERAGE dMISS LATENCY: 82.1365 cycles
cpu0_L2C AVERAGE itMISS LATENCY: 3.86273 cycles
cpu0_L2C AVERAGE dtMISS LATENCY: 13.6522 cycles
cpu0_L2C PAGE CROSSINGS (TLB HIT):         0 
cpu0_L2C PAGE CROSSINGS (TLB MISS):         0 
cpu0_L2C AVERAGE MISS LATENCY: 140.035 cycles
LLC TOTAL       ACCESS:    3659387  HIT:    1118066  MISS:    2541321  iACCESS:    1121714  iHIT:     341526  iMISS:     780188  dACCESS:    2204753  dHIT:     743037  dMISS:    1461716  itACCESS:      76589  itHIT:       6321  itMISS:      70268  dtACCESS:     256331  dtHIT:      27182  dtMISS:     229149
LLC LOAD         ACCESS:     887247  HIT:     285707  MISS:     601540  iACCESS:     247051  iHIT:      81858  iMISS:     165193  dACCESS:     640196  dHIT:     203849  dMISS:     436347  itACCESS:          0  itHIT:          0  itMISS:          0  dtACCESS:          0  dtHIT:          0  dtMISS:          0
LLC RFO          ACCESS:     128646  HIT:      34908  MISS:      93738  iACCESS:          0  iHIT:          0  iMISS:          0  dACCESS:     128646  dHIT:      34908  dMISS:      93738  itACCESS:          0  itHIT:          0  itMISS:          0  dtACCESS:          0  dtHIT:          0  dtMISS:          0
LLC PREFETCH     ACCESS:    2120682  HIT:     582236  MISS:    1538446  iACCESS:     874663  iHIT:     259668  iMISS:     614995  dACCESS:    1246019  dHIT:     322568  dMISS:     923451  itACCESS:          0  itHIT:          0  itMISS:          0  dtACCESS:          0  dtHIT:          0  dtMISS:          0
LLC WRITE        ACCESS:     189892  HIT:     181712  MISS:       8180  iACCESS:          0  iHIT:          0  iMISS:          0  dACCESS:     189892  dHIT:     181712  dMISS:       8180  itACCESS:          0  itHIT:          0  itMISS:          0  dtACCESS:          0  dtHIT:          0  dtMISS:          0
LLC TRANSLATION  ACCESS:     332920  HIT:      33503  MISS:     299417  iACCESS:          0  iHIT:          0  iMISS:          0  dACCESS:          0  dHIT:          0  dMISS:          0  itACCESS:      76589  itHIT:       6321  itMISS:      70268  dtACCESS:     256331  dtHIT:      27182  dtMISS:     229149
LLC PREFETCH  REQUESTED:          0  ISSUED:          0  CROSSED:          0  USEFUL:          0  USELESS:          0
LLC AVERAGE iMISS LATENCY: 49.0771 cycles
LLC AVERAGE dMISS LATENCY: 102.785 cycles
LLC AVERAGE itMISS LATENCY: 4.9289 cycles
LLC AVERAGE dtMISS LATENCY: 17.5386 cycles
LLC PAGE CROSSINGS (TLB HIT):         0 
LLC PAGE CROSSINGS (TLB MISS):         0 
LLC AVERAGE MISS LATENCY: 174.33 cycles

PageTableWalker TOTAL       ACCESS:     193371  
PageTableWalker AVERAGE LATENCY: 6.58599 cycles
PageTableWalker TOTAL LATENCY: 1273539 cycles

DRAM Statistics
Channel 0
 RQ ROW_BUFFER_HIT:     516705
  ROW_BUFFER_MISS:    2001984
 AVG DBUS CONGESTED CYCLE:    3.65325
 WQ ROW_BUFFER_HIT:      57437
  ROW_BUFFER_MISS:      54813  FULL:          0

