last_page:0x200000000000000
VMEM_RES_CAP:0x100000
PAGE_SIZE:4096
LOG2_PAGE_SIZE:12
LOG2_PAGE_TABLE_SIZE:9
page_table_levels:5
WARNING: physical memory size is smaller than virtual memory size
FDiP enabled with aggresivity 16

*** ChampSim Multicore Out-of-Order Simulator ***

Warmup Instructions: 50000000
Simulation Instructions: 100000000
Number of CPUs: 1
Small page size: 4096
Large page size: 2097152

CPU 0 Bimodal branch predictor
Basic BTB sets: 1024 ways: 8 indirect buffer size: 4096 RAS size: 64
Instruction page size distrubution: 0
Loading instruction page size distribution from /home/bsc/bsc018186/scratch/itp_asplos25_AE/dump/smt_srv12_ap_srv526_ap_1024i.pdst
Data page size distrubution: 0
Loading data page size distribution from /home/bsc/bsc018186/scratch/itp_asplos25_AE/dump/smt_srv12_ap_srv526_ap_1024i.pdst
cpu0_L2C IP-based stride prefetcher
cpu0_L1D next line prefetcher
cpu0_STLB using iTP with max lru@8
cpu0_STLB using iTP with instr@0 and data@2
Init sat counter with 3 bits (max:50).
cpu0_L1I next line prefetcher
Off-chip DRAM Size: 4 GiB Channels: 1 Width: 64-bit Data Rate: 3200 MT/s
Heartbeat CPU 0 instructions: 10000000 cycles: 2500278 heartbeat IPC: 3.99956 cumulative IPC: 3.99956 (Simulation time: 0 hr 0 min 35 sec) 
Heartbeat CPU 0 instructions: 20000003 cycles: 5000504 heartbeat IPC: 3.99964 cumulative IPC: 3.9996 (Simulation time: 0 hr 1 min 13 sec) 
Heartbeat CPU 0 instructions: 30000000 cycles: 7609010 heartbeat IPC: 3.83362 cumulative IPC: 3.9427 (Simulation time: 0 hr 1 min 52 sec) 
Heartbeat CPU 0 instructions: 40000002 cycles: 10149047 heartbeat IPC: 3.93696 cumulative IPC: 3.94126 (Simulation time: 0 hr 2 min 32 sec) 
Heartbeat CPU 0 instructions: 50000001 cycles: 12673256 heartbeat IPC: 3.96164 cumulative IPC: 3.94532 (Simulation time: 0 hr 3 min 11 sec) 
Warmup finished CPU 0 instructions: 50000001 cycles: 12673257 cumulative IPC: 3.94532 (Simulation time: 0 hr 3 min 11 sec) 

Warmup complete CPU 0 instructions: 50000001 cycles: 12673257 (Simulation time: 0 hr 3 min 11 sec) 

Heartbeat CPU 0 instructions: 60000003 cycles: 43132827 heartbeat IPC: 0.328305 cumulative IPC: 0.328305 (Simulation time: 0 hr 4 min 32 sec) 
Heartbeat CPU 0 instructions: 70000004 cycles: 74467172 heartbeat IPC: 0.319139 cumulative IPC: 0.323657 (Simulation time: 0 hr 5 min 54 sec) 
Heartbeat CPU 0 instructions: 80000001 cycles: 105606995 heartbeat IPC: 0.321133 cumulative IPC: 0.322811 (Simulation time: 0 hr 7 min 17 sec) 
Heartbeat CPU 0 instructions: 90000001 cycles: 131598936 heartbeat IPC: 0.384735 cumulative IPC: 0.336345 (Simulation time: 0 hr 8 min 31 sec) 
Heartbeat CPU 0 instructions: 100000000 cycles: 161551515 heartbeat IPC: 0.333862 cumulative IPC: 0.335845 (Simulation time: 0 hr 9 min 52 sec) 
Heartbeat CPU 0 instructions: 110000000 cycles: 192406021 heartbeat IPC: 0.324102 cumulative IPC: 0.333829 (Simulation time: 0 hr 11 min 14 sec) 
Heartbeat CPU 0 instructions: 120000000 cycles: 221613536 heartbeat IPC: 0.342378 cumulative IPC: 0.335024 (Simulation time: 0 hr 12 min 34 sec) 
Heartbeat CPU 0 instructions: 130000002 cycles: 251901992 heartbeat IPC: 0.330159 cumulative IPC: 0.334408 (Simulation time: 0 hr 13 min 56 sec) 
Heartbeat CPU 0 instructions: 140000000 cycles: 282796376 heartbeat IPC: 0.323684 cumulative IPC: 0.333182 (Simulation time: 0 hr 15 min 18 sec) 
Heartbeat CPU 0 instructions: 150000002 cycles: 313915292 heartbeat IPC: 0.321349 cumulative IPC: 0.331959 (Simulation time: 0 hr 16 min 40 sec) 
Simulation finished CPU 0 instructions: 100000001 cycles: 301242036 cumulative IPC: 0.331959 (Simulation time: 0 hr 16 min 40 sec) 

Simulation complete CPU 0 instructions: 100000001 cycles: 301242036 (Simulation time: 0 hr 16 min 40 sec) 


ChampSim completed all CPUs

Saving instructions large page distribution to /home/bsc/bsc018186/scratch/itp_asplos25_AE/dump/smt_srv12_ap_srv526_ap_1024i.pdst...
Saving data large page distribution to /home/bsc/bsc018186/scratch/itp_asplos25_AE/dump/smt_srv12_ap_srv526_ap_1024i.pdst...
=== Simulation ===
CPU 0 runs /gpfs/projects/bsc18/MN4/bsc18/romol/ChampSim/traces/qualcomm_srv/smt_srv12_ap_srv526_ap_1024i.champsimtrace.xz

Region of Interest Statistics

CPU 0 cumulative IPC: 0.331959 instructions: 100000001 cycles: 301242036
CPU 0 Branch Prediction Accuracy: 75.201% MPKI: 44.9013 Average ROB Occupancy at Mispredict: 10.8746
Branch type MPKI
BRANCH_DIRECT_JUMP: 1.48248
BRANCH_INDIRECT: 23.0104
BRANCH_CONDITIONAL: 13.0108
BRANCH_DIRECT_CALL: 2.72019
BRANCH_INDIRECT_CALL: 1.11178
BRANCH_RETURN: 3.56577

Instructions large pages: 0
Instructions small pages: 15077
Large page distribution for instructions: 0%

Data large pages: 0
Data small pages: 13250
Large page distribution for data: 0%

cpu0_L1I TOTAL       ACCESS:   39097383  HIT:   30321360  MISS:    8776023  iACCESS:   39097383  iHIT:   30321360  iMISS:    8776023  dACCESS:          0  dHIT:          0  dMISS:          0  itACCESS:          0  itHIT:          0  itMISS:          0  dtACCESS:          0  dtHIT:          0  dtMISS:          0
cpu0_L1I LOAD         ACCESS:   11625931  HIT:    9225317  MISS:    2400614  iACCESS:   11625931  iHIT:    9225317  iMISS:    2400614  dACCESS:          0  dHIT:          0  dMISS:          0  itACCESS:          0  itHIT:          0  itMISS:          0  dtACCESS:          0  dtHIT:          0  dtMISS:          0
cpu0_L1I RFO          ACCESS:          0  HIT:          0  MISS:          0  iACCESS:          0  iHIT:          0  iMISS:          0  dACCESS:          0  dHIT:          0  dMISS:          0  itACCESS:          0  itHIT:          0  itMISS:          0  dtACCESS:          0  dtHIT:          0  dtMISS:          0
cpu0_L1I PREFETCH     ACCESS:   27471452  HIT:   21096043  MISS:    6375409  iACCESS:   27471452  iHIT:   21096043  iMISS:    6375409  dACCESS:          0  dHIT:          0  dMISS:          0  itACCESS:          0  itHIT:          0  itMISS:          0  dtACCESS:          0  dtHIT:          0  dtMISS:          0
cpu0_L1I WRITE        ACCESS:          0  HIT:          0  MISS:          0  iACCESS:          0  iHIT:          0  iMISS:          0  dACCESS:          0  dHIT:          0  dMISS:          0  itACCESS:          0  itHIT:          0  itMISS:          0  dtACCESS:          0  dtHIT:          0  dtMISS:          0
cpu0_L1I TRANSLATION  ACCESS:          0  HIT:          0  MISS:          0  iACCESS:          0  iHIT:          0  iMISS:          0  dACCESS:          0  dHIT:          0  dMISS:          0  itACCESS:          0  itHIT:          0  itMISS:          0  dtACCESS:          0  dtHIT:          0  dtMISS:          0
cpu0_L1I PREFETCH  REQUESTED:   30238275  ISSUED:   30238203  CROSSED:          0  USEFUL:    2215506  USELESS:     780734
cpu0_L1I AVERAGE iMISS LATENCY: 24.4907 cycles
cpu0_L1I AVERAGE dMISS LATENCY: 0 cycles
cpu0_L1I AVERAGE itMISS LATENCY: 0 cycles
cpu0_L1I AVERAGE dtMISS LATENCY: 0 cycles
cpu0_L1I PAGE CROSSINGS (TLB HIT):         0 
cpu0_L1I PAGE CROSSINGS (TLB MISS):         0 
cpu0_L1I AVERAGE MISS LATENCY: 24.4907 cycles
cpu0_ITLB TOTAL       ACCESS:   33169205  HIT:   30882905  MISS:    2286300  iACCESS:   33169205  iHIT:   30882905  iMISS:    2286300  dACCESS:          0  dHIT:          0  dMISS:          0  itACCESS:          0  itHIT:          0  itMISS:          0  dtACCESS:          0  dtHIT:          0  dtMISS:          0
cpu0_ITLB LOAD         ACCESS:   33169205  HIT:   30882905  MISS:    2286300  iACCESS:   33169205  iHIT:   30882905  iMISS:    2286300  dACCESS:          0  dHIT:          0  dMISS:          0  itACCESS:          0  itHIT:          0  itMISS:          0  dtACCESS:          0  dtHIT:          0  dtMISS:          0
cpu0_ITLB RFO          ACCESS:          0  HIT:          0  MISS:          0  iACCESS:          0  iHIT:          0  iMISS:          0  dACCESS:          0  dHIT:          0  dMISS:          0  itACCESS:          0  itHIT:          0  itMISS:          0  dtACCESS:          0  dtHIT:          0  dtMISS:          0
cpu0_ITLB PREFETCH     ACCESS:          0  HIT:          0  MISS:          0  iACCESS:          0  iHIT:          0  iMISS:          0  dACCESS:          0  dHIT:          0  dMISS:          0  itACCESS:          0  itHIT:          0  itMISS:          0  dtACCESS:          0  dtHIT:          0  dtMISS:          0
cpu0_ITLB WRITE        ACCESS:          0  HIT:          0  MISS:          0  iACCESS:          0  iHIT:          0  iMISS:          0  dACCESS:          0  dHIT:          0  dMISS:          0  itACCESS:          0  itHIT:          0  itMISS:          0  dtACCESS:          0  dtHIT:          0  dtMISS:          0
cpu0_ITLB TRANSLATION  ACCESS:          0  HIT:          0  MISS:          0  iACCESS:          0  iHIT:          0  iMISS:          0  dACCESS:          0  dHIT:          0  dMISS:          0  itACCESS:          0  itHIT:          0  itMISS:          0  dtACCESS:          0  dtHIT:          0  dtMISS:          0
cpu0_ITLB PREFETCH  REQUESTED:          0  ISSUED:          0  CROSSED:          0  USEFUL:     401697  USELESS:      85308
cpu0_ITLB AVERAGE iMISS LATENCY: 7.09146 cycles
cpu0_ITLB AVERAGE dMISS LATENCY: 0 cycles
cpu0_ITLB AVERAGE itMISS LATENCY: 0 cycles
cpu0_ITLB AVERAGE dtMISS LATENCY: 0 cycles
cpu0_ITLB PAGE CROSSINGS (TLB HIT):         0 
cpu0_ITLB PAGE CROSSINGS (TLB MISS):         0 
cpu0_ITLB AVERAGE MISS LATENCY: 7.09146 cycles
cpu0_DTLB TOTAL       ACCESS:   29009854  HIT:   25452601  MISS:    3557253  iACCESS:          0  iHIT:          0  iMISS:          0  dACCESS:   29009854  dHIT:   25452601  dMISS:    3557253  itACCESS:          0  itHIT:          0  itMISS:          0  dtACCESS:          0  dtHIT:          0  dtMISS:          0
cpu0_DTLB LOAD         ACCESS:   29009854  HIT:   25452601  MISS:    3557253  iACCESS:          0  iHIT:          0  iMISS:          0  dACCESS:   29009854  dHIT:   25452601  dMISS:    3557253  itACCESS:          0  itHIT:          0  itMISS:          0  dtACCESS:          0  dtHIT:          0  dtMISS:          0
cpu0_DTLB RFO          ACCESS:          0  HIT:          0  MISS:          0  iACCESS:          0  iHIT:          0  iMISS:          0  dACCESS:          0  dHIT:          0  dMISS:          0  itACCESS:          0  itHIT:          0  itMISS:          0  dtACCESS:          0  dtHIT:          0  dtMISS:          0
cpu0_DTLB PREFETCH     ACCESS:          0  HIT:          0  MISS:          0  iACCESS:          0  iHIT:          0  iMISS:          0  dACCESS:          0  dHIT:          0  dMISS:          0  itACCESS:          0  itHIT:          0  itMISS:          0  dtACCESS:          0  dtHIT:          0  dtMISS:          0
cpu0_DTLB WRITE        ACCESS:          0  HIT:          0  MISS:          0  iACCESS:          0  iHIT:          0  iMISS:          0  dACCESS:          0  dHIT:          0  dMISS:          0  itACCESS:          0  itHIT:          0  itMISS:          0  dtACCESS:          0  dtHIT:          0  dtMISS:          0
cpu0_DTLB TRANSLATION  ACCESS:          0  HIT:          0  MISS:          0  iACCESS:          0  iHIT:          0  iMISS:          0  dACCESS:          0  dHIT:          0  dMISS:          0  itACCESS:          0  itHIT:          0  itMISS:          0  dtACCESS:          0  dtHIT:          0  dtMISS:          0
cpu0_DTLB PREFETCH  REQUESTED:          0  ISSUED:          0  CROSSED:          0  USEFUL:          0  USELESS:          0
cpu0_DTLB AVERAGE iMISS LATENCY: 0 cycles
cpu0_DTLB AVERAGE dMISS LATENCY: 28.273 cycles
cpu0_DTLB AVERAGE itMISS LATENCY: 0 cycles
cpu0_DTLB AVERAGE dtMISS LATENCY: 0 cycles
cpu0_DTLB PAGE CROSSINGS (TLB HIT):         0 
cpu0_DTLB PAGE CROSSINGS (TLB MISS):         0 
cpu0_DTLB AVERAGE MISS LATENCY: 28.273 cycles
cpu0_STLB TOTAL       ACCESS:    2555192  HIT:    2178660  MISS:     376532  iACCESS:     487013  iHIT:     422704  iMISS:      64309  dACCESS:    2068179  dHIT:    1755956  dMISS:     312223  itACCESS:          0  itHIT:          0  itMISS:          0  dtACCESS:          0  dtHIT:          0  dtMISS:          0
cpu0_STLB LOAD         ACCESS:    2555192  HIT:    2178660  MISS:     376532  iACCESS:     487013  iHIT:     422704  iMISS:      64309  dACCESS:    2068179  dHIT:    1755956  dMISS:     312223  itACCESS:          0  itHIT:          0  itMISS:          0  dtACCESS:          0  dtHIT:          0  dtMISS:          0
cpu0_STLB RFO          ACCESS:          0  HIT:          0  MISS:          0  iACCESS:          0  iHIT:          0  iMISS:          0  dACCESS:          0  dHIT:          0  dMISS:          0  itACCESS:          0  itHIT:          0  itMISS:          0  dtACCESS:          0  dtHIT:          0  dtMISS:          0
cpu0_STLB PREFETCH     ACCESS:          0  HIT:          0  MISS:          0  iACCESS:          0  iHIT:          0  iMISS:          0  dACCESS:          0  dHIT:          0  dMISS:          0  itACCESS:          0  itHIT:          0  itMISS:          0  dtACCESS:          0  dtHIT:          0  dtMISS:          0
cpu0_STLB WRITE        ACCESS:          0  HIT:          0  MISS:          0  iACCESS:          0  iHIT:          0  iMISS:          0  dACCESS:          0  dHIT:          0  dMISS:          0  itACCESS:          0  itHIT:          0  itMISS:          0  dtACCESS:          0  dtHIT:          0  dtMISS:          0
cpu0_STLB TRANSLATION  ACCESS:          0  HIT:          0  MISS:          0  iACCESS:          0  iHIT:          0  iMISS:          0  dACCESS:          0  dHIT:          0  dMISS:          0  itACCESS:          0  itHIT:          0  itMISS:          0  dtACCESS:          0  dtHIT:          0  dtMISS:          0
cpu0_STLB PREFETCH  REQUESTED:          0  ISSUED:          0  CROSSED:          0  USEFUL:          0  USELESS:          0
cpu0_STLB AVERAGE iMISS LATENCY: 32.8725 cycles
cpu0_STLB AVERAGE dMISS LATENCY: 222.748 cycles
cpu0_STLB AVERAGE itMISS LATENCY: 0 cycles
cpu0_STLB AVERAGE dtMISS LATENCY: 0 cycles
cpu0_STLB PAGE CROSSINGS (TLB HIT):         0 
cpu0_STLB PAGE CROSSINGS (TLB MISS):         0 
cpu0_STLB AVERAGE MISS LATENCY: 255.621 cycles
cpu0_L1D TOTAL       ACCESS:   44787579  HIT:   39354959  MISS:    5432620  iACCESS:          0  iHIT:          0  iMISS:          0  dACCESS:   44203910  dHIT:   39323438  dMISS:    4880472  itACCESS:      76139  itHIT:       6099  itMISS:      70040  dtACCESS:     507530  dtHIT:      25422  dtMISS:     482108
cpu0_L1D LOAD         ACCESS:   20168153  HIT:   17998945  MISS:    2169208  iACCESS:          0  iHIT:          0  iMISS:          0  dACCESS:   20168153  dHIT:   17998945  dMISS:    2169208  itACCESS:          0  itHIT:          0  itMISS:          0  dtACCESS:          0  dtHIT:          0  dtMISS:          0
cpu0_L1D RFO          ACCESS:          0  HIT:          0  MISS:          0  iACCESS:          0  iHIT:          0  iMISS:          0  dACCESS:          0  dHIT:          0  dMISS:          0  itACCESS:          0  itHIT:          0  itMISS:          0  dtACCESS:          0  dtHIT:          0  dtMISS:          0
cpu0_L1D PREFETCH     ACCESS:   13782324  HIT:   11660278  MISS:    2122046  iACCESS:          0  iHIT:          0  iMISS:          0  dACCESS:   13782324  dHIT:   11660278  dMISS:    2122046  itACCESS:          0  itHIT:          0  itMISS:          0  dtACCESS:          0  dtHIT:          0  dtMISS:          0
cpu0_L1D WRITE        ACCESS:   10253433  HIT:    9664215  MISS:     589218  iACCESS:          0  iHIT:          0  iMISS:          0  dACCESS:   10253433  dHIT:    9664215  dMISS:     589218  itACCESS:          0  itHIT:          0  itMISS:          0  dtACCESS:          0  dtHIT:          0  dtMISS:          0
cpu0_L1D TRANSLATION  ACCESS:     583669  HIT:      31521  MISS:     552148  iACCESS:          0  iHIT:          0  iMISS:          0  dACCESS:          0  dHIT:          0  dMISS:          0  itACCESS:      76139  itHIT:       6099  itMISS:      70040  dtACCESS:     507530  dtHIT:      25422  dtMISS:     482108
cpu0_L1D PREFETCH  REQUESTED:   20168153  ISSUED:   18521155  CROSSED:          0  USEFUL:     354544  USELESS:     938370
cpu0_L1D AVERAGE iMISS LATENCY: 0 cycles
cpu0_L1D AVERAGE dMISS LATENCY: 51.8246 cycles
cpu0_L1D AVERAGE itMISS LATENCY: 2.14014 cycles
cpu0_L1D AVERAGE dtMISS LATENCY: 14.2753 cycles
cpu0_L1D PAGE CROSSINGS (TLB HIT):         0 
cpu0_L1D PAGE CROSSINGS (TLB MISS):         0 
cpu0_L1D AVERAGE MISS LATENCY: 68.2401 cycles
cpu0_L2C TOTAL       ACCESS:    8640857  HIT:    4127903  MISS:    4512954  iACCESS:    3819380  iHIT:    2264793  iMISS:    1554587  dACCESS:    4304554  dHIT:    1796200  dMISS:    2508354  itACCESS:      69350  itHIT:      10073  itMISS:      59277  dtACCESS:     447573  dtHIT:      56837  dtMISS:     390736
cpu0_L2C LOAD         ACCESS:    2064977  HIT:    1001341  MISS:    1063636  iACCESS:     859130  iHIT:     534221  iMISS:     324909  dACCESS:    1205847  dHIT:     467120  dMISS:     738727  itACCESS:          0  itHIT:          0  itMISS:          0  dtACCESS:          0  dtHIT:          0  dtMISS:          0
cpu0_L2C RFO          ACCESS:     219732  HIT:      79819  MISS:     139913  iACCESS:          0  iHIT:          0  iMISS:          0  dACCESS:     219732  dHIT:      79819  dMISS:     139913  itACCESS:          0  itHIT:          0  itMISS:          0  dtACCESS:          0  dtHIT:          0  dtMISS:          0
cpu0_L2C PREFETCH     ACCESS:    5497470  HIT:    2642395  MISS:    2855075  iACCESS:    2960250  iHIT:    1730572  iMISS:    1229678  dACCESS:    2537220  dHIT:     911823  dMISS:    1625397  itACCESS:          0  itHIT:          0  itMISS:          0  dtACCESS:          0  dtHIT:          0  dtMISS:          0
cpu0_L2C WRITE        ACCESS:     341755  HIT:     337438  MISS:       4317  iACCESS:          0  iHIT:          0  iMISS:          0  dACCESS:     341755  dHIT:     337438  dMISS:       4317  itACCESS:          0  itHIT:          0  itMISS:          0  dtACCESS:          0  dtHIT:          0  dtMISS:          0
cpu0_L2C TRANSLATION  ACCESS:     516923  HIT:      66910  MISS:     450013  iACCESS:          0  iHIT:          0  iMISS:          0  dACCESS:          0  dHIT:          0  dMISS:          0  itACCESS:      69350  itHIT:      10073  itMISS:      59277  dtACCESS:     447573  dtHIT:      56837  dtMISS:     390736
cpu0_L2C PREFETCH  REQUESTED:    1474148  ISSUED:    1474148  CROSSED:          0  USEFUL:     350692  USELESS:     328624
cpu0_L2C AVERAGE iMISS LATENCY: 40.5498 cycles
cpu0_L2C AVERAGE dMISS LATENCY: 77.3524 cycles
cpu0_L2C AVERAGE itMISS LATENCY: 2.42442 cycles
cpu0_L2C AVERAGE dtMISS LATENCY: 16.1993 cycles
cpu0_L2C PAGE CROSSINGS (TLB HIT):         0 
cpu0_L2C PAGE CROSSINGS (TLB MISS):         0 
cpu0_L2C AVERAGE MISS LATENCY: 136.526 cycles
LLC TOTAL       ACCESS:    4512918  HIT:    1414322  MISS:    3098596  iACCESS:    1464773  iHIT:     489528  iMISS:     975245  dACCESS:    2598132  dHIT:     869257  dMISS:    1728875  itACCESS:      59277  itHIT:       4529  itMISS:      54748  dtACCESS:     390736  dtHIT:      51008  dtMISS:     339728
LLC LOAD         ACCESS:    1058782  HIT:     348228  MISS:     710554  iACCESS:     323637  iHIT:     115620  iMISS:     208017  dACCESS:     735145  dHIT:     232608  dMISS:     502537  itACCESS:          0  itHIT:          0  itMISS:          0  dtACCESS:          0  dtHIT:          0  dtMISS:          0
LLC RFO          ACCESS:     139899  HIT:      41408  MISS:      98491  iACCESS:          0  iHIT:          0  iMISS:          0  dACCESS:     139899  dHIT:      41408  dMISS:      98491  itACCESS:          0  itHIT:          0  itMISS:          0  dtACCESS:          0  dtHIT:          0  dtMISS:          0
LLC PREFETCH     ACCESS:    2653989  HIT:     769547  MISS:    1884442  iACCESS:    1141136  iHIT:     373908  iMISS:     767228  dACCESS:    1512853  dHIT:     395639  dMISS:    1117214  itACCESS:          0  itHIT:          0  itMISS:          0  dtACCESS:          0  dtHIT:          0  dtMISS:          0
LLC WRITE        ACCESS:     210235  HIT:     199602  MISS:      10633  iACCESS:          0  iHIT:          0  iMISS:          0  dACCESS:     210235  dHIT:     199602  dMISS:      10633  itACCESS:          0  itHIT:          0  itMISS:          0  dtACCESS:          0  dtHIT:          0  dtMISS:          0
LLC TRANSLATION  ACCESS:     450013  HIT:      55537  MISS:     394476  iACCESS:          0  iHIT:          0  iMISS:          0  dACCESS:          0  dHIT:          0  dMISS:          0  itACCESS:      59277  itHIT:       4529  itMISS:      54748  dtACCESS:     390736  dtHIT:      51008  dtMISS:     339728
LLC PREFETCH  REQUESTED:          0  ISSUED:          0  CROSSED:          0  USEFUL:          0  USELESS:          0
LLC AVERAGE iMISS LATENCY: 49.7585 cycles
LLC AVERAGE dMISS LATENCY: 98.1067 cycles
LLC AVERAGE itMISS LATENCY: 3.15178 cycles
LLC AVERAGE dtMISS LATENCY: 21.1026 cycles
LLC PAGE CROSSINGS (TLB HIT):         0 
LLC PAGE CROSSINGS (TLB MISS):         0 
LLC AVERAGE MISS LATENCY: 172.12 cycles

PageTableWalker TOTAL       ACCESS:     131356  
PageTableWalker AVERAGE LATENCY: 6.77807 cycles
PageTableWalker TOTAL LATENCY: 890340 cycles

DRAM Statistics
Channel 0
 RQ ROW_BUFFER_HIT:     673318
  ROW_BUFFER_MISS:    2404231
 AVG DBUS CONGESTED CYCLE:    3.64711
 WQ ROW_BUFFER_HIT:      66207
  ROW_BUFFER_MISS:      55495  FULL:          0

