last_page:0x200000000000000
VMEM_RES_CAP:0x100000
PAGE_SIZE:4096
LOG2_PAGE_SIZE:12
LOG2_PAGE_TABLE_SIZE:9
page_table_levels:5
WARNING: physical memory size is smaller than virtual memory size
FDiP enabled with aggresivity 16

*** ChampSim Multicore Out-of-Order Simulator ***

Warmup Instructions: 50000000
Simulation Instructions: 100000000
Number of CPUs: 1
Small page size: 4096
Large page size: 2097152

CPU 0 Bimodal branch predictor
Basic BTB sets: 1024 ways: 8 indirect buffer size: 4096 RAS size: 64
Instruction page size distrubution: 0
Loading instruction page size distribution from /home/bsc/bsc018186/scratch/itp_asplos25_AE/dump/smt_srv207_ap_srv73_ap_1024i.pdst
Data page size distrubution: 0
Loading data page size distribution from /home/bsc/bsc018186/scratch/itp_asplos25_AE/dump/smt_srv207_ap_srv73_ap_1024i.pdst
cpu0_L2C IP-based stride prefetcher
cpu0_L1D next line prefetcher
cpu0_STLB using iTP with max lru@8
cpu0_STLB using iTP with instr@0 and data@2
Init sat counter with 3 bits (max:50).
cpu0_L1I next line prefetcher
Off-chip DRAM Size: 4 GiB Channels: 1 Width: 64-bit Data Rate: 3200 MT/s
Heartbeat CPU 0 instructions: 10000002 cycles: 2500718 heartbeat IPC: 3.99886 cumulative IPC: 3.99886 (Simulation time: 0 hr 0 min 36 sec) 
Heartbeat CPU 0 instructions: 20000001 cycles: 5001270 heartbeat IPC: 3.99912 cumulative IPC: 3.99899 (Simulation time: 0 hr 1 min 14 sec) 
Heartbeat CPU 0 instructions: 30000002 cycles: 7501598 heartbeat IPC: 3.99948 cumulative IPC: 3.99915 (Simulation time: 0 hr 1 min 53 sec) 
Heartbeat CPU 0 instructions: 40000002 cycles: 10001963 heartbeat IPC: 3.99942 cumulative IPC: 3.99922 (Simulation time: 0 hr 2 min 32 sec) 
Heartbeat CPU 0 instructions: 50000001 cycles: 12503390 heartbeat IPC: 3.99772 cumulative IPC: 3.99892 (Simulation time: 0 hr 3 min 11 sec) 
Warmup finished CPU 0 instructions: 50000001 cycles: 12503391 cumulative IPC: 3.99892 (Simulation time: 0 hr 3 min 11 sec) 

Warmup complete CPU 0 instructions: 50000001 cycles: 12503391 (Simulation time: 0 hr 3 min 11 sec) 

Heartbeat CPU 0 instructions: 60000004 cycles: 36309391 heartbeat IPC: 0.420063 cumulative IPC: 0.420063 (Simulation time: 0 hr 4 min 24 sec) 
Heartbeat CPU 0 instructions: 70000000 cycles: 57900795 heartbeat IPC: 0.463148 cumulative IPC: 0.440554 (Simulation time: 0 hr 5 min 34 sec) 
Heartbeat CPU 0 instructions: 80000002 cycles: 81444380 heartbeat IPC: 0.424745 cumulative IPC: 0.435155 (Simulation time: 0 hr 6 min 46 sec) 
Heartbeat CPU 0 instructions: 90000003 cycles: 110933257 heartbeat IPC: 0.339111 cumulative IPC: 0.406381 (Simulation time: 0 hr 8 min 14 sec) 
Heartbeat CPU 0 instructions: 100000003 cycles: 140503012 heartbeat IPC: 0.338184 cumulative IPC: 0.390627 (Simulation time: 0 hr 9 min 35 sec) 
Heartbeat CPU 0 instructions: 110000002 cycles: 169877932 heartbeat IPC: 0.340427 cumulative IPC: 0.381257 (Simulation time: 0 hr 10 min 57 sec) 
Heartbeat CPU 0 instructions: 120000001 cycles: 198098445 heartbeat IPC: 0.354353 cumulative IPC: 0.377166 (Simulation time: 0 hr 12 min 18 sec) 
Heartbeat CPU 0 instructions: 130000000 cycles: 215165837 heartbeat IPC: 0.585913 cumulative IPC: 0.394746 (Simulation time: 0 hr 13 min 27 sec) 
Heartbeat CPU 0 instructions: 140000001 cycles: 236888656 heartbeat IPC: 0.460346 cumulative IPC: 0.401096 (Simulation time: 0 hr 14 min 42 sec) 
Heartbeat CPU 0 instructions: 150000000 cycles: 265361373 heartbeat IPC: 0.351214 cumulative IPC: 0.395479 (Simulation time: 0 hr 16 min 2 sec) 
Simulation finished CPU 0 instructions: 100000004 cycles: 252857984 cumulative IPC: 0.395479 (Simulation time: 0 hr 16 min 2 sec) 

Simulation complete CPU 0 instructions: 100000004 cycles: 252857984 (Simulation time: 0 hr 16 min 2 sec) 


ChampSim completed all CPUs

Saving instructions large page distribution to /home/bsc/bsc018186/scratch/itp_asplos25_AE/dump/smt_srv207_ap_srv73_ap_1024i.pdst...
Saving data large page distribution to /home/bsc/bsc018186/scratch/itp_asplos25_AE/dump/smt_srv207_ap_srv73_ap_1024i.pdst...
=== Simulation ===
CPU 0 runs /gpfs/projects/bsc18/MN4/bsc18/romol/ChampSim/traces/qualcomm_srv/smt_srv207_ap_srv73_ap_1024i.champsimtrace.xz

Region of Interest Statistics

CPU 0 cumulative IPC: 0.395479 instructions: 100000004 cycles: 252857984
CPU 0 Branch Prediction Accuracy: 77.5974% MPKI: 43.4229 Average ROB Occupancy at Mispredict: 11.2804
Branch type MPKI
BRANCH_DIRECT_JUMP: 1.11372
BRANCH_INDIRECT: 23.5843
BRANCH_CONDITIONAL: 12.0181
BRANCH_DIRECT_CALL: 2.04424
BRANCH_INDIRECT_CALL: 1.68306
BRANCH_RETURN: 2.97949

Instructions large pages: 0
Instructions small pages: 12734
Large page distribution for instructions: 0%

Data large pages: 0
Data small pages: 10893
Large page distribution for data: 0%

cpu0_L1I TOTAL       ACCESS:   38212203  HIT:   30728384  MISS:    7483819  iACCESS:   38212203  iHIT:   30728384  iMISS:    7483819  dACCESS:          0  dHIT:          0  dMISS:          0  itACCESS:          0  itHIT:          0  itMISS:          0  dtACCESS:          0  dtHIT:          0  dtMISS:          0
cpu0_L1I LOAD         ACCESS:   10452108  HIT:    8396457  MISS:    2055651  iACCESS:   10452108  iHIT:    8396457  iMISS:    2055651  dACCESS:          0  dHIT:          0  dMISS:          0  itACCESS:          0  itHIT:          0  itMISS:          0  dtACCESS:          0  dtHIT:          0  dtMISS:          0
cpu0_L1I RFO          ACCESS:          0  HIT:          0  MISS:          0  iACCESS:          0  iHIT:          0  iMISS:          0  dACCESS:          0  dHIT:          0  dMISS:          0  itACCESS:          0  itHIT:          0  itMISS:          0  dtACCESS:          0  dtHIT:          0  dtMISS:          0
cpu0_L1I PREFETCH     ACCESS:   27760095  HIT:   22331927  MISS:    5428168  iACCESS:   27760095  iHIT:   22331927  iMISS:    5428168  dACCESS:          0  dHIT:          0  dMISS:          0  itACCESS:          0  itHIT:          0  itMISS:          0  dtACCESS:          0  dtHIT:          0  dtMISS:          0
cpu0_L1I WRITE        ACCESS:          0  HIT:          0  MISS:          0  iACCESS:          0  iHIT:          0  iMISS:          0  dACCESS:          0  dHIT:          0  dMISS:          0  itACCESS:          0  itHIT:          0  itMISS:          0  dtACCESS:          0  dtHIT:          0  dtMISS:          0
cpu0_L1I TRANSLATION  ACCESS:          0  HIT:          0  MISS:          0  iACCESS:          0  iHIT:          0  iMISS:          0  dACCESS:          0  dHIT:          0  dMISS:          0  itACCESS:          0  itHIT:          0  itMISS:          0  dtACCESS:          0  dtHIT:          0  dtMISS:          0
cpu0_L1I PREFETCH  REQUESTED:   29955085  ISSUED:   29954186  CROSSED:          0  USEFUL:    1783869  USELESS:     665218
cpu0_L1I AVERAGE iMISS LATENCY: 24.543 cycles
cpu0_L1I AVERAGE dMISS LATENCY: 0 cycles
cpu0_L1I AVERAGE itMISS LATENCY: 0 cycles
cpu0_L1I AVERAGE dtMISS LATENCY: 0 cycles
cpu0_L1I PAGE CROSSINGS (TLB HIT):         0 
cpu0_L1I PAGE CROSSINGS (TLB MISS):         0 
cpu0_L1I AVERAGE MISS LATENCY: 24.543 cycles
cpu0_ITLB TOTAL       ACCESS:   32238427  HIT:   30380160  MISS:    1858267  iACCESS:   32238427  iHIT:   30380160  iMISS:    1858267  dACCESS:          0  dHIT:          0  dMISS:          0  itACCESS:          0  itHIT:          0  itMISS:          0  dtACCESS:          0  dtHIT:          0  dtMISS:          0
cpu0_ITLB LOAD         ACCESS:   32238427  HIT:   30380160  MISS:    1858267  iACCESS:   32238427  iHIT:   30380160  iMISS:    1858267  dACCESS:          0  dHIT:          0  dMISS:          0  itACCESS:          0  itHIT:          0  itMISS:          0  dtACCESS:          0  dtHIT:          0  dtMISS:          0
cpu0_ITLB RFO          ACCESS:          0  HIT:          0  MISS:          0  iACCESS:          0  iHIT:          0  iMISS:          0  dACCESS:          0  dHIT:          0  dMISS:          0  itACCESS:          0  itHIT:          0  itMISS:          0  dtACCESS:          0  dtHIT:          0  dtMISS:          0
cpu0_ITLB PREFETCH     ACCESS:          0  HIT:          0  MISS:          0  iACCESS:          0  iHIT:          0  iMISS:          0  dACCESS:          0  dHIT:          0  dMISS:          0  itACCESS:          0  itHIT:          0  itMISS:          0  dtACCESS:          0  dtHIT:          0  dtMISS:          0
cpu0_ITLB WRITE        ACCESS:          0  HIT:          0  MISS:          0  iACCESS:          0  iHIT:          0  iMISS:          0  dACCESS:          0  dHIT:          0  dMISS:          0  itACCESS:          0  itHIT:          0  itMISS:          0  dtACCESS:          0  dtHIT:          0  dtMISS:          0
cpu0_ITLB TRANSLATION  ACCESS:          0  HIT:          0  MISS:          0  iACCESS:          0  iHIT:          0  iMISS:          0  dACCESS:          0  dHIT:          0  dMISS:          0  itACCESS:          0  itHIT:          0  itMISS:          0  dtACCESS:          0  dtHIT:          0  dtMISS:          0
cpu0_ITLB PREFETCH  REQUESTED:          0  ISSUED:          0  CROSSED:          0  USEFUL:     330618  USELESS:      69687
cpu0_ITLB AVERAGE iMISS LATENCY: 6.10768 cycles
cpu0_ITLB AVERAGE dMISS LATENCY: 0 cycles
cpu0_ITLB AVERAGE itMISS LATENCY: 0 cycles
cpu0_ITLB AVERAGE dtMISS LATENCY: 0 cycles
cpu0_ITLB PAGE CROSSINGS (TLB HIT):         0 
cpu0_ITLB PAGE CROSSINGS (TLB MISS):         0 
cpu0_ITLB AVERAGE MISS LATENCY: 6.10768 cycles
cpu0_DTLB TOTAL       ACCESS:   31611438  HIT:   26313988  MISS:    5297450  iACCESS:          0  iHIT:          0  iMISS:          0  dACCESS:   31611438  dHIT:   26313988  dMISS:    5297450  itACCESS:          0  itHIT:          0  itMISS:          0  dtACCESS:          0  dtHIT:          0  dtMISS:          0
cpu0_DTLB LOAD         ACCESS:   31611438  HIT:   26313988  MISS:    5297450  iACCESS:          0  iHIT:          0  iMISS:          0  dACCESS:   31611438  dHIT:   26313988  dMISS:    5297450  itACCESS:          0  itHIT:          0  itMISS:          0  dtACCESS:          0  dtHIT:          0  dtMISS:          0
cpu0_DTLB RFO          ACCESS:          0  HIT:          0  MISS:          0  iACCESS:          0  iHIT:          0  iMISS:          0  dACCESS:          0  dHIT:          0  dMISS:          0  itACCESS:          0  itHIT:          0  itMISS:          0  dtACCESS:          0  dtHIT:          0  dtMISS:          0
cpu0_DTLB PREFETCH     ACCESS:          0  HIT:          0  MISS:          0  iACCESS:          0  iHIT:          0  iMISS:          0  dACCESS:          0  dHIT:          0  dMISS:          0  itACCESS:          0  itHIT:          0  itMISS:          0  dtACCESS:          0  dtHIT:          0  dtMISS:          0
cpu0_DTLB WRITE        ACCESS:          0  HIT:          0  MISS:          0  iACCESS:          0  iHIT:          0  iMISS:          0  dACCESS:          0  dHIT:          0  dMISS:          0  itACCESS:          0  itHIT:          0  itMISS:          0  dtACCESS:          0  dtHIT:          0  dtMISS:          0
cpu0_DTLB TRANSLATION  ACCESS:          0  HIT:          0  MISS:          0  iACCESS:          0  iHIT:          0  iMISS:          0  dACCESS:          0  dHIT:          0  dMISS:          0  itACCESS:          0  itHIT:          0  itMISS:          0  dtACCESS:          0  dtHIT:          0  dtMISS:          0
cpu0_DTLB PREFETCH  REQUESTED:          0  ISSUED:          0  CROSSED:          0  USEFUL:          0  USELESS:          0
cpu0_DTLB AVERAGE iMISS LATENCY: 0 cycles
cpu0_DTLB AVERAGE dMISS LATENCY: 12.0916 cycles
cpu0_DTLB AVERAGE itMISS LATENCY: 0 cycles
cpu0_DTLB AVERAGE dtMISS LATENCY: 0 cycles
cpu0_DTLB PAGE CROSSINGS (TLB HIT):         0 
cpu0_DTLB PAGE CROSSINGS (TLB MISS):         0 
cpu0_DTLB AVERAGE MISS LATENCY: 12.0916 cycles
cpu0_STLB TOTAL       ACCESS:    3248618  HIT:    2956126  MISS:     292492  iACCESS:     400314  iHIT:     348384  iMISS:      51930  dACCESS:    2848304  dHIT:    2607742  dMISS:     240562  itACCESS:          0  itHIT:          0  itMISS:          0  dtACCESS:          0  dtHIT:          0  dtMISS:          0
cpu0_STLB LOAD         ACCESS:    3248618  HIT:    2956126  MISS:     292492  iACCESS:     400314  iHIT:     348384  iMISS:      51930  dACCESS:    2848304  dHIT:    2607742  dMISS:     240562  itACCESS:          0  itHIT:          0  itMISS:          0  dtACCESS:          0  dtHIT:          0  dtMISS:          0
cpu0_STLB RFO          ACCESS:          0  HIT:          0  MISS:          0  iACCESS:          0  iHIT:          0  iMISS:          0  dACCESS:          0  dHIT:          0  dMISS:          0  itACCESS:          0  itHIT:          0  itMISS:          0  dtACCESS:          0  dtHIT:          0  dtMISS:          0
cpu0_STLB PREFETCH     ACCESS:          0  HIT:          0  MISS:          0  iACCESS:          0  iHIT:          0  iMISS:          0  dACCESS:          0  dHIT:          0  dMISS:          0  itACCESS:          0  itHIT:          0  itMISS:          0  dtACCESS:          0  dtHIT:          0  dtMISS:          0
cpu0_STLB WRITE        ACCESS:          0  HIT:          0  MISS:          0  iACCESS:          0  iHIT:          0  iMISS:          0  dACCESS:          0  dHIT:          0  dMISS:          0  itACCESS:          0  itHIT:          0  itMISS:          0  dtACCESS:          0  dtHIT:          0  dtMISS:          0
cpu0_STLB TRANSLATION  ACCESS:          0  HIT:          0  MISS:          0  iACCESS:          0  iHIT:          0  iMISS:          0  dACCESS:          0  dHIT:          0  dMISS:          0  itACCESS:          0  itHIT:          0  itMISS:          0  dtACCESS:          0  dtHIT:          0  dtMISS:          0
cpu0_STLB PREFETCH  REQUESTED:          0  ISSUED:          0  CROSSED:          0  USEFUL:          0  USELESS:          0
cpu0_STLB AVERAGE iMISS LATENCY: 28.034 cycles
cpu0_STLB AVERAGE dMISS LATENCY: 140.21 cycles
cpu0_STLB AVERAGE itMISS LATENCY: 0 cycles
cpu0_STLB AVERAGE dtMISS LATENCY: 0 cycles
cpu0_STLB PAGE CROSSINGS (TLB HIT):         0 
cpu0_STLB PAGE CROSSINGS (TLB MISS):         0 
cpu0_STLB AVERAGE MISS LATENCY: 168.244 cycles
cpu0_L1D TOTAL       ACCESS:   50746134  HIT:   41195655  MISS:    9550479  iACCESS:          0  iHIT:          0  iMISS:          0  dACCESS:   50260359  dHIT:   41174641  dMISS:    9085718  itACCESS:      64391  itHIT:       4363  itMISS:      60028  dtACCESS:     421384  dtHIT:      16651  dtMISS:     404733
cpu0_L1D LOAD         ACCESS:   24339913  HIT:   19558754  MISS:    4781159  iACCESS:          0  iHIT:          0  iMISS:          0  dACCESS:   24339913  dHIT:   19558754  dMISS:    4781159  itACCESS:          0  itHIT:          0  itMISS:          0  dtACCESS:          0  dtHIT:          0  dtMISS:          0
cpu0_L1D RFO          ACCESS:          0  HIT:          0  MISS:          0  iACCESS:          0  iHIT:          0  iMISS:          0  dACCESS:          0  dHIT:          0  dMISS:          0  itACCESS:          0  itHIT:          0  itMISS:          0  dtACCESS:          0  dtHIT:          0  dtMISS:          0
cpu0_L1D PREFETCH     ACCESS:   16115978  HIT:   12625959  MISS:    3490019  iACCESS:          0  iHIT:          0  iMISS:          0  dACCESS:   16115978  dHIT:   12625959  dMISS:    3490019  itACCESS:          0  itHIT:          0  itMISS:          0  dtACCESS:          0  dtHIT:          0  dtMISS:          0
cpu0_L1D WRITE        ACCESS:    9804468  HIT:    8989928  MISS:     814540  iACCESS:          0  iHIT:          0  iMISS:          0  dACCESS:    9804468  dHIT:    8989928  dMISS:     814540  itACCESS:          0  itHIT:          0  itMISS:          0  dtACCESS:          0  dtHIT:          0  dtMISS:          0
cpu0_L1D TRANSLATION  ACCESS:     485775  HIT:      21014  MISS:     464761  iACCESS:          0  iHIT:          0  iMISS:          0  dACCESS:          0  dHIT:          0  dMISS:          0  itACCESS:      64391  itHIT:       4363  itMISS:      60028  dtACCESS:     421384  dtHIT:      16651  dtMISS:     404733
cpu0_L1D PREFETCH  REQUESTED:   24339913  ISSUED:   20119715  CROSSED:          0  USEFUL:     359518  USELESS:    1076582
cpu0_L1D AVERAGE iMISS LATENCY: 0 cycles
cpu0_L1D AVERAGE dMISS LATENCY: 31.7443 cycles
cpu0_L1D AVERAGE itMISS LATENCY: 0.796316 cycles
cpu0_L1D AVERAGE dtMISS LATENCY: 3.85559 cycles
cpu0_L1D PAGE CROSSINGS (TLB HIT):         0 
cpu0_L1D PAGE CROSSINGS (TLB MISS):         0 
cpu0_L1D AVERAGE MISS LATENCY: 36.3962 cycles
cpu0_L2C TOTAL       ACCESS:    9212370  HIT:    1977821  MISS:    7234549  iACCESS:    3122313  iHIT:     658817  iMISS:    2463496  dACCESS:    5697131  dHIT:    1178068  dMISS:    4519063  itACCESS:      56401  itHIT:      12768  itMISS:      43633  dtACCESS:     336525  dtHIT:     128168  dtMISS:     208357
cpu0_L2C LOAD         ACCESS:    3356611  HIT:     751581  MISS:    2605030  iACCESS:     697539  iHIT:     100385  iMISS:     597154  dACCESS:    2659072  dHIT:     651196  dMISS:    2007876  itACCESS:          0  itHIT:          0  itMISS:          0  dtACCESS:          0  dtHIT:          0  dtMISS:          0
cpu0_L2C RFO          ACCESS:     244100  HIT:      33826  MISS:     210274  iACCESS:          0  iHIT:          0  iMISS:          0  dACCESS:     244100  dHIT:      33826  dMISS:     210274  itACCESS:          0  itHIT:          0  itMISS:          0  dtACCESS:          0  dtHIT:          0  dtMISS:          0
cpu0_L2C PREFETCH     ACCESS:    4880271  HIT:     935173  MISS:    3945098  iACCESS:    2424774  iHIT:     558432  iMISS:    1866342  dACCESS:    2455497  dHIT:     376741  dMISS:    2078756  itACCESS:          0  itHIT:          0  itMISS:          0  dtACCESS:          0  dtHIT:          0  dtMISS:          0
cpu0_L2C WRITE        ACCESS:     338462  HIT:     116305  MISS:     222157  iACCESS:          0  iHIT:          0  iMISS:          0  dACCESS:     338462  dHIT:     116305  dMISS:     222157  itACCESS:          0  itHIT:          0  itMISS:          0  dtACCESS:          0  dtHIT:          0  dtMISS:          0
cpu0_L2C TRANSLATION  ACCESS:     392926  HIT:     140936  MISS:     251990  iACCESS:          0  iHIT:          0  iMISS:          0  dACCESS:          0  dHIT:          0  dMISS:          0  itACCESS:      56401  itHIT:      12768  itMISS:      43633  dtACCESS:     336525  dtHIT:     128168  dtMISS:     208357
cpu0_L2C PREFETCH  REQUESTED:    1199759  ISSUED:    1199757  CROSSED:          0  USEFUL:     307103  USELESS:     398200
cpu0_L2C AVERAGE iMISS LATENCY: 21.7412 cycles
cpu0_L2C AVERAGE dMISS LATENCY: 45.9866 cycles
cpu0_L2C AVERAGE itMISS LATENCY: 0.974809 cycles
cpu0_L2C AVERAGE dtMISS LATENCY: 4.64023 cycles
cpu0_L2C PAGE CROSSINGS (TLB HIT):         0 
cpu0_L2C PAGE CROSSINGS (TLB MISS):         0 
cpu0_L2C AVERAGE MISS LATENCY: 73.3428 cycles
LLC TOTAL       ACCESS:    7109818  HIT:    4831313  MISS:    2278505  iACCESS:    2400142  iHIT:    1712333  iMISS:     687809  dACCESS:    4457686  dHIT:    3055745  dMISS:    1401941  itACCESS:      43633  itHIT:       8861  itMISS:      34772  dtACCESS:     208357  dtHIT:      54374  dtMISS:     153983
LLC LOAD         ACCESS:    2598022  HIT:    2026966  MISS:     571056  iACCESS:     596129  iHIT:     453102  iMISS:     143027  dACCESS:    2001893  dHIT:    1573864  dMISS:     428029  itACCESS:          0  itHIT:          0  itMISS:          0  dtACCESS:          0  dtHIT:          0  dtMISS:          0
LLC RFO          ACCESS:     210247  HIT:     116535  MISS:      93712  iACCESS:          0  iHIT:          0  iMISS:          0  dACCESS:     210247  dHIT:     116535  dMISS:      93712  itACCESS:          0  itHIT:          0  itMISS:          0  dtACCESS:          0  dtHIT:          0  dtMISS:          0
LLC PREFETCH     ACCESS:    3790046  HIT:    2371368  MISS:    1418678  iACCESS:    1804013  iHIT:    1259231  iMISS:     544782  dACCESS:    1986033  dHIT:    1112137  dMISS:     873896  itACCESS:          0  itHIT:          0  itMISS:          0  dtACCESS:          0  dtHIT:          0  dtMISS:          0
LLC WRITE        ACCESS:     259513  HIT:     253209  MISS:       6304  iACCESS:          0  iHIT:          0  iMISS:          0  dACCESS:     259513  dHIT:     253209  dMISS:       6304  itACCESS:          0  itHIT:          0  itMISS:          0  dtACCESS:          0  dtHIT:          0  dtMISS:          0
LLC TRANSLATION  ACCESS:     251990  HIT:      63235  MISS:     188755  iACCESS:          0  iHIT:          0  iMISS:          0  dACCESS:          0  dHIT:          0  dMISS:          0  itACCESS:      43633  itHIT:       8861  itMISS:      34772  dtACCESS:     208357  dtHIT:      54374  dtMISS:     153983
LLC PREFETCH  REQUESTED:          0  ISSUED:          0  CROSSED:          0  USEFUL:          0  USELESS:          0
LLC AVERAGE iMISS LATENCY: 48.5792 cycles
LLC AVERAGE dMISS LATENCY: 110.975 cycles
LLC AVERAGE itMISS LATENCY: 2.71738 cycles
LLC AVERAGE dtMISS LATENCY: 12.9341 cycles
LLC PAGE CROSSINGS (TLB HIT):         0 
LLC PAGE CROSSINGS (TLB MISS):         0 
LLC AVERAGE MISS LATENCY: 175.206 cycles

PageTableWalker TOTAL       ACCESS:     184838  
PageTableWalker AVERAGE LATENCY: 6.31855 cycles
PageTableWalker TOTAL LATENCY: 1167908 cycles

DRAM Statistics
Channel 0
 RQ ROW_BUFFER_HIT:     475709
  ROW_BUFFER_MISS:    1782235
 AVG DBUS CONGESTED CYCLE:    3.65972
 WQ ROW_BUFFER_HIT:      57146
  ROW_BUFFER_MISS:      59786  FULL:          0

