last_page:0x200000000000000
VMEM_RES_CAP:0x100000
PAGE_SIZE:4096
LOG2_PAGE_SIZE:12
LOG2_PAGE_TABLE_SIZE:9
page_table_levels:5
WARNING: physical memory size is smaller than virtual memory size
FDiP enabled with aggresivity 16

*** ChampSim Multicore Out-of-Order Simulator ***

Warmup Instructions: 50000000
Simulation Instructions: 100000000
Number of CPUs: 1
Small page size: 4096
Large page size: 2097152

CPU 0 Bimodal branch predictor
Basic BTB sets: 1024 ways: 8 indirect buffer size: 4096 RAS size: 64
Instruction page size distrubution: 0
Loading instruction page size distribution from /home/bsc/bsc018186/scratch/itp_asplos25_AE/dump/smt_srv207_ap_srv298_ap_1024i.pdst
Data page size distrubution: 0
Loading data page size distribution from /home/bsc/bsc018186/scratch/itp_asplos25_AE/dump/smt_srv207_ap_srv298_ap_1024i.pdst
cpu0_L2C IP-based stride prefetcher
cpu0_L1D next line prefetcher
cpu0_L1I next line prefetcher
Off-chip DRAM Size: 4 GiB Channels: 1 Width: 64-bit Data Rate: 3200 MT/s
Heartbeat CPU 0 instructions: 10000002 cycles: 2500449 heartbeat IPC: 3.99929 cumulative IPC: 3.99929 (Simulation time: 0 hr 0 min 39 sec) 
Heartbeat CPU 0 instructions: 20000003 cycles: 5000739 heartbeat IPC: 3.99954 cumulative IPC: 3.99941 (Simulation time: 0 hr 1 min 22 sec) 
Heartbeat CPU 0 instructions: 30000001 cycles: 7500989 heartbeat IPC: 3.9996 cumulative IPC: 3.99948 (Simulation time: 0 hr 2 min 6 sec) 
Heartbeat CPU 0 instructions: 40000002 cycles: 10001383 heartbeat IPC: 3.99938 cumulative IPC: 3.99945 (Simulation time: 0 hr 2 min 50 sec) 
Heartbeat CPU 0 instructions: 50000002 cycles: 12501743 heartbeat IPC: 3.99943 cumulative IPC: 3.99945 (Simulation time: 0 hr 3 min 33 sec) 
Warmup finished CPU 0 instructions: 50000002 cycles: 12501744 cumulative IPC: 3.99945 (Simulation time: 0 hr 3 min 33 sec) 

Warmup complete CPU 0 instructions: 50000002 cycles: 12501744 (Simulation time: 0 hr 3 min 33 sec) 

Heartbeat CPU 0 instructions: 60000003 cycles: 39497607 heartbeat IPC: 0.370428 cumulative IPC: 0.370428 (Simulation time: 0 hr 5 min 0 sec) 
Heartbeat CPU 0 instructions: 70000001 cycles: 66229869 heartbeat IPC: 0.37408 cumulative IPC: 0.372245 (Simulation time: 0 hr 6 min 25 sec) 
Heartbeat CPU 0 instructions: 80000000 cycles: 93574536 heartbeat IPC: 0.365702 cumulative IPC: 0.370038 (Simulation time: 0 hr 7 min 54 sec) 
Heartbeat CPU 0 instructions: 90000003 cycles: 121553673 heartbeat IPC: 0.35741 cumulative IPC: 0.366798 (Simulation time: 0 hr 9 min 22 sec) 
Heartbeat CPU 0 instructions: 100000003 cycles: 148453169 heartbeat IPC: 0.371755 cumulative IPC: 0.367779 (Simulation time: 0 hr 10 min 51 sec) 
Heartbeat CPU 0 instructions: 110000001 cycles: 175816057 heartbeat IPC: 0.365459 cumulative IPC: 0.36739 (Simulation time: 0 hr 12 min 20 sec) 
Heartbeat CPU 0 instructions: 120000000 cycles: 202769238 heartbeat IPC: 0.371014 cumulative IPC: 0.367904 (Simulation time: 0 hr 13 min 49 sec) 
Heartbeat CPU 0 instructions: 130000003 cycles: 230204699 heartbeat IPC: 0.364492 cumulative IPC: 0.367474 (Simulation time: 0 hr 15 min 17 sec) 
Heartbeat CPU 0 instructions: 140000002 cycles: 258670250 heartbeat IPC: 0.351302 cumulative IPC: 0.365604 (Simulation time: 0 hr 16 min 48 sec) 
Heartbeat CPU 0 instructions: 150000002 cycles: 286222608 heartbeat IPC: 0.362946 cumulative IPC: 0.365336 (Simulation time: 0 hr 18 min 11 sec) 
Simulation finished CPU 0 instructions: 100000000 cycles: 273720865 cumulative IPC: 0.365336 (Simulation time: 0 hr 18 min 11 sec) 

Simulation complete CPU 0 instructions: 100000000 cycles: 273720865 (Simulation time: 0 hr 18 min 11 sec) 


ChampSim completed all CPUs

Saving instructions large page distribution to /home/bsc/bsc018186/scratch/itp_asplos25_AE/dump/smt_srv207_ap_srv298_ap_1024i.pdst...
Saving data large page distribution to /home/bsc/bsc018186/scratch/itp_asplos25_AE/dump/smt_srv207_ap_srv298_ap_1024i.pdst...
=== Simulation ===
CPU 0 runs /gpfs/projects/bsc18/MN4/bsc18/romol/ChampSim/traces/qualcomm_srv/smt_srv207_ap_srv298_ap_1024i.champsimtrace.xz

Region of Interest Statistics

CPU 0 cumulative IPC: 0.365336 instructions: 100000000 cycles: 273720865
CPU 0 Branch Prediction Accuracy: 75.5505% MPKI: 43.964 Average ROB Occupancy at Mispredict: 11.1098
Branch type MPKI
BRANCH_DIRECT_JUMP: 1.3281
BRANCH_INDIRECT: 23.3394
BRANCH_CONDITIONAL: 12.3548
BRANCH_DIRECT_CALL: 2.50712
BRANCH_INDIRECT_CALL: 0.948321
BRANCH_RETURN: 3.48622

Instructions large pages: 0
Instructions small pages: 15016
Large page distribution for instructions: 0%

Data large pages: 0
Data small pages: 13640
Large page distribution for data: 0%

cpu0_L1I TOTAL       ACCESS:   39217518  HIT:   30039372  MISS:    9178146  iACCESS:   39217518  iHIT:   30039372  iMISS:    9178146  dACCESS:          0  dHIT:          0  dMISS:          0  itACCESS:          0  itHIT:          0  itMISS:          0  dtACCESS:          0  dtHIT:          0  dtMISS:          0
cpu0_L1I LOAD         ACCESS:   11631776  HIT:    9128358  MISS:    2503418  iACCESS:   11631776  iHIT:    9128358  iMISS:    2503418  dACCESS:          0  dHIT:          0  dMISS:          0  itACCESS:          0  itHIT:          0  itMISS:          0  dtACCESS:          0  dtHIT:          0  dtMISS:          0
cpu0_L1I RFO          ACCESS:          0  HIT:          0  MISS:          0  iACCESS:          0  iHIT:          0  iMISS:          0  dACCESS:          0  dHIT:          0  dMISS:          0  itACCESS:          0  itHIT:          0  itMISS:          0  dtACCESS:          0  dtHIT:          0  dtMISS:          0
cpu0_L1I PREFETCH     ACCESS:   27585742  HIT:   20911014  MISS:    6674728  iACCESS:   27585742  iHIT:   20911014  iMISS:    6674728  dACCESS:          0  dHIT:          0  dMISS:          0  itACCESS:          0  itHIT:          0  itMISS:          0  dtACCESS:          0  dtHIT:          0  dtMISS:          0
cpu0_L1I WRITE        ACCESS:          0  HIT:          0  MISS:          0  iACCESS:          0  iHIT:          0  iMISS:          0  dACCESS:          0  dHIT:          0  dMISS:          0  itACCESS:          0  itHIT:          0  itMISS:          0  dtACCESS:          0  dtHIT:          0  dtMISS:          0
cpu0_L1I TRANSLATION  ACCESS:          0  HIT:          0  MISS:          0  iACCESS:          0  iHIT:          0  iMISS:          0  dACCESS:          0  dHIT:          0  dMISS:          0  itACCESS:          0  itHIT:          0  itMISS:          0  dtACCESS:          0  dtHIT:          0  dtMISS:          0
cpu0_L1I PREFETCH  REQUESTED:   30137961  ISSUED:   30136563  CROSSED:          0  USEFUL:    2186535  USELESS:     775898
cpu0_L1I AVERAGE iMISS LATENCY: 23.7096 cycles
cpu0_L1I AVERAGE dMISS LATENCY: 0 cycles
cpu0_L1I AVERAGE itMISS LATENCY: 0 cycles
cpu0_L1I AVERAGE dtMISS LATENCY: 0 cycles
cpu0_L1I PAGE CROSSINGS (TLB HIT):         0 
cpu0_L1I PAGE CROSSINGS (TLB MISS):         0 
cpu0_L1I AVERAGE MISS LATENCY: 23.7096 cycles
cpu0_ITLB TOTAL       ACCESS:   32980762  HIT:   30752974  MISS:    2227788  iACCESS:   32980762  iHIT:   30752974  iMISS:    2227788  dACCESS:          0  dHIT:          0  dMISS:          0  itACCESS:          0  itHIT:          0  itMISS:          0  dtACCESS:          0  dtHIT:          0  dtMISS:          0
cpu0_ITLB LOAD         ACCESS:   32980762  HIT:   30752974  MISS:    2227788  iACCESS:   32980762  iHIT:   30752974  iMISS:    2227788  dACCESS:          0  dHIT:          0  dMISS:          0  itACCESS:          0  itHIT:          0  itMISS:          0  dtACCESS:          0  dtHIT:          0  dtMISS:          0
cpu0_ITLB RFO          ACCESS:          0  HIT:          0  MISS:          0  iACCESS:          0  iHIT:          0  iMISS:          0  dACCESS:          0  dHIT:          0  dMISS:          0  itACCESS:          0  itHIT:          0  itMISS:          0  dtACCESS:          0  dtHIT:          0  dtMISS:          0
cpu0_ITLB PREFETCH     ACCESS:          0  HIT:          0  MISS:          0  iACCESS:          0  iHIT:          0  iMISS:          0  dACCESS:          0  dHIT:          0  dMISS:          0  itACCESS:          0  itHIT:          0  itMISS:          0  dtACCESS:          0  dtHIT:          0  dtMISS:          0
cpu0_ITLB WRITE        ACCESS:          0  HIT:          0  MISS:          0  iACCESS:          0  iHIT:          0  iMISS:          0  dACCESS:          0  dHIT:          0  dMISS:          0  itACCESS:          0  itHIT:          0  itMISS:          0  dtACCESS:          0  dtHIT:          0  dtMISS:          0
cpu0_ITLB TRANSLATION  ACCESS:          0  HIT:          0  MISS:          0  iACCESS:          0  iHIT:          0  iMISS:          0  dACCESS:          0  dHIT:          0  dMISS:          0  itACCESS:          0  itHIT:          0  itMISS:          0  dtACCESS:          0  dtHIT:          0  dtMISS:          0
cpu0_ITLB PREFETCH  REQUESTED:          0  ISSUED:          0  CROSSED:          0  USEFUL:     391951  USELESS:      80175
cpu0_ITLB AVERAGE iMISS LATENCY: 7.726 cycles
cpu0_ITLB AVERAGE dMISS LATENCY: 0 cycles
cpu0_ITLB AVERAGE itMISS LATENCY: 0 cycles
cpu0_ITLB AVERAGE dtMISS LATENCY: 0 cycles
cpu0_ITLB PAGE CROSSINGS (TLB HIT):         0 
cpu0_ITLB PAGE CROSSINGS (TLB MISS):         0 
cpu0_ITLB AVERAGE MISS LATENCY: 7.726 cycles
cpu0_DTLB TOTAL       ACCESS:   29148666  HIT:   25525347  MISS:    3623319  iACCESS:          0  iHIT:          0  iMISS:          0  dACCESS:   29148666  dHIT:   25525347  dMISS:    3623319  itACCESS:          0  itHIT:          0  itMISS:          0  dtACCESS:          0  dtHIT:          0  dtMISS:          0
cpu0_DTLB LOAD         ACCESS:   29148666  HIT:   25525347  MISS:    3623319  iACCESS:          0  iHIT:          0  iMISS:          0  dACCESS:   29148666  dHIT:   25525347  dMISS:    3623319  itACCESS:          0  itHIT:          0  itMISS:          0  dtACCESS:          0  dtHIT:          0  dtMISS:          0
cpu0_DTLB RFO          ACCESS:          0  HIT:          0  MISS:          0  iACCESS:          0  iHIT:          0  iMISS:          0  dACCESS:          0  dHIT:          0  dMISS:          0  itACCESS:          0  itHIT:          0  itMISS:          0  dtACCESS:          0  dtHIT:          0  dtMISS:          0
cpu0_DTLB PREFETCH     ACCESS:          0  HIT:          0  MISS:          0  iACCESS:          0  iHIT:          0  iMISS:          0  dACCESS:          0  dHIT:          0  dMISS:          0  itACCESS:          0  itHIT:          0  itMISS:          0  dtACCESS:          0  dtHIT:          0  dtMISS:          0
cpu0_DTLB WRITE        ACCESS:          0  HIT:          0  MISS:          0  iACCESS:          0  iHIT:          0  iMISS:          0  dACCESS:          0  dHIT:          0  dMISS:          0  itACCESS:          0  itHIT:          0  itMISS:          0  dtACCESS:          0  dtHIT:          0  dtMISS:          0
cpu0_DTLB TRANSLATION  ACCESS:          0  HIT:          0  MISS:          0  iACCESS:          0  iHIT:          0  iMISS:          0  dACCESS:          0  dHIT:          0  dMISS:          0  itACCESS:          0  itHIT:          0  itMISS:          0  dtACCESS:          0  dtHIT:          0  dtMISS:          0
cpu0_DTLB PREFETCH  REQUESTED:          0  ISSUED:          0  CROSSED:          0  USEFUL:          0  USELESS:          0
cpu0_DTLB AVERAGE iMISS LATENCY: 0 cycles
cpu0_DTLB AVERAGE dMISS LATENCY: 16.8989 cycles
cpu0_DTLB AVERAGE itMISS LATENCY: 0 cycles
cpu0_DTLB AVERAGE dtMISS LATENCY: 0 cycles
cpu0_DTLB PAGE CROSSINGS (TLB HIT):         0 
cpu0_DTLB PAGE CROSSINGS (TLB MISS):         0 
cpu0_DTLB AVERAGE MISS LATENCY: 16.8989 cycles
cpu0_STLB TOTAL       ACCESS:    2581502  HIT:    2213840  MISS:     367662  iACCESS:     472135  iHIT:     363126  iMISS:     109009  dACCESS:    2109367  dHIT:    1850714  dMISS:     258653  itACCESS:          0  itHIT:          0  itMISS:          0  dtACCESS:          0  dtHIT:          0  dtMISS:          0
cpu0_STLB LOAD         ACCESS:    2581502  HIT:    2213840  MISS:     367662  iACCESS:     472135  iHIT:     363126  iMISS:     109009  dACCESS:    2109367  dHIT:    1850714  dMISS:     258653  itACCESS:          0  itHIT:          0  itMISS:          0  dtACCESS:          0  dtHIT:          0  dtMISS:          0
cpu0_STLB RFO          ACCESS:          0  HIT:          0  MISS:          0  iACCESS:          0  iHIT:          0  iMISS:          0  dACCESS:          0  dHIT:          0  dMISS:          0  itACCESS:          0  itHIT:          0  itMISS:          0  dtACCESS:          0  dtHIT:          0  dtMISS:          0
cpu0_STLB PREFETCH     ACCESS:          0  HIT:          0  MISS:          0  iACCESS:          0  iHIT:          0  iMISS:          0  dACCESS:          0  dHIT:          0  dMISS:          0  itACCESS:          0  itHIT:          0  itMISS:          0  dtACCESS:          0  dtHIT:          0  dtMISS:          0
cpu0_STLB WRITE        ACCESS:          0  HIT:          0  MISS:          0  iACCESS:          0  iHIT:          0  iMISS:          0  dACCESS:          0  dHIT:          0  dMISS:          0  itACCESS:          0  itHIT:          0  itMISS:          0  dtACCESS:          0  dtHIT:          0  dtMISS:          0
cpu0_STLB TRANSLATION  ACCESS:          0  HIT:          0  MISS:          0  iACCESS:          0  iHIT:          0  iMISS:          0  dACCESS:          0  dHIT:          0  dMISS:          0  itACCESS:          0  itHIT:          0  itMISS:          0  dtACCESS:          0  dtHIT:          0  dtMISS:          0
cpu0_STLB PREFETCH  REQUESTED:          0  ISSUED:          0  CROSSED:          0  USEFUL:          0  USELESS:          0
cpu0_STLB AVERAGE iMISS LATENCY: 36.5745 cycles
cpu0_STLB AVERAGE dMISS LATENCY: 120.441 cycles
cpu0_STLB AVERAGE itMISS LATENCY: 0 cycles
cpu0_STLB AVERAGE dtMISS LATENCY: 0 cycles
cpu0_STLB PAGE CROSSINGS (TLB HIT):         0 
cpu0_STLB PAGE CROSSINGS (TLB MISS):         0 
cpu0_STLB AVERAGE MISS LATENCY: 157.015 cycles
cpu0_L1D TOTAL       ACCESS:   45060329  HIT:   39526448  MISS:    5533881  iACCESS:          0  iHIT:          0  iMISS:          0  dACCESS:   44526257  dHIT:   39492056  dMISS:    5034201  itACCESS:     123565  itHIT:      14231  itMISS:     109334  dtACCESS:     410507  dtHIT:      20161  dtMISS:     390346
cpu0_L1D LOAD         ACCESS:   20379020  HIT:   18114904  MISS:    2264116  iACCESS:          0  iHIT:          0  iMISS:          0  dACCESS:   20379020  dHIT:   18114904  dMISS:    2264116  itACCESS:          0  itHIT:          0  itMISS:          0  dtACCESS:          0  dtHIT:          0  dtMISS:          0
cpu0_L1D RFO          ACCESS:          0  HIT:          0  MISS:          0  iACCESS:          0  iHIT:          0  iMISS:          0  dACCESS:          0  dHIT:          0  dMISS:          0  itACCESS:          0  itHIT:          0  itMISS:          0  dtACCESS:          0  dtHIT:          0  dtMISS:          0
cpu0_L1D PREFETCH     ACCESS:   14009612  HIT:   11822676  MISS:    2186936  iACCESS:          0  iHIT:          0  iMISS:          0  dACCESS:   14009612  dHIT:   11822676  dMISS:    2186936  itACCESS:          0  itHIT:          0  itMISS:          0  dtACCESS:          0  dtHIT:          0  dtMISS:          0
cpu0_L1D WRITE        ACCESS:   10137625  HIT:    9554476  MISS:     583149  iACCESS:          0  iHIT:          0  iMISS:          0  dACCESS:   10137625  dHIT:    9554476  dMISS:     583149  itACCESS:          0  itHIT:          0  itMISS:          0  dtACCESS:          0  dtHIT:          0  dtMISS:          0
cpu0_L1D TRANSLATION  ACCESS:     534072  HIT:      34392  MISS:     499680  iACCESS:          0  iHIT:          0  iMISS:          0  dACCESS:          0  dHIT:          0  dMISS:          0  itACCESS:     123565  itHIT:      14231  itMISS:     109334  dtACCESS:     410507  dtHIT:      20161  dtMISS:     390346
cpu0_L1D PREFETCH  REQUESTED:   20379020  ISSUED:   18730564  CROSSED:          0  USEFUL:     377755  USELESS:     953163
cpu0_L1D AVERAGE iMISS LATENCY: 0 cycles
cpu0_L1D AVERAGE dMISS LATENCY: 51.7626 cycles
cpu0_L1D AVERAGE itMISS LATENCY: 2.24536 cycles
cpu0_L1D AVERAGE dtMISS LATENCY: 7.0492 cycles
cpu0_L1D PAGE CROSSINGS (TLB HIT):         0 
cpu0_L1D PAGE CROSSINGS (TLB MISS):         0 
cpu0_L1D AVERAGE MISS LATENCY: 61.0572 cycles
cpu0_L2C TOTAL       ACCESS:    8644521  HIT:    1517213  MISS:    7127308  iACCESS:    3772213  iHIT:     789356  iMISS:    2982857  dACCESS:    4395588  dHIT:     537995  dMISS:    3857593  itACCESS:     107994  itHIT:      36240  itMISS:      71754  dtACCESS:     368726  dtHIT:     153622  dtMISS:     215104
cpu0_L2C LOAD         ACCESS:    2091178  HIT:     206658  MISS:    1884520  iACCESS:     844555  iHIT:     111472  iMISS:     733083  dACCESS:    1246623  dHIT:      95186  dMISS:    1151437  itACCESS:          0  itHIT:          0  itMISS:          0  dtACCESS:          0  dtHIT:          0  dtMISS:          0
cpu0_L2C RFO          ACCESS:     219769  HIT:      29579  MISS:     190190  iACCESS:          0  iHIT:          0  iMISS:          0  dACCESS:     219769  dHIT:      29579  dMISS:     190190  itACCESS:          0  itHIT:          0  itMISS:          0  dtACCESS:          0  dtHIT:          0  dtMISS:          0
cpu0_L2C PREFETCH     ACCESS:    5503190  HIT:     987807  MISS:    4515383  iACCESS:    2927658  iHIT:     677884  iMISS:    2249774  dACCESS:    2575532  dHIT:     309923  dMISS:    2265609  itACCESS:          0  itHIT:          0  itMISS:          0  dtACCESS:          0  dtHIT:          0  dtMISS:          0
cpu0_L2C WRITE        ACCESS:     353664  HIT:     103307  MISS:     250357  iACCESS:          0  iHIT:          0  iMISS:          0  dACCESS:     353664  dHIT:     103307  dMISS:     250357  itACCESS:          0  itHIT:          0  itMISS:          0  dtACCESS:          0  dtHIT:          0  dtMISS:          0
cpu0_L2C TRANSLATION  ACCESS:     476720  HIT:     189862  MISS:     286858  iACCESS:          0  iHIT:          0  iMISS:          0  dACCESS:          0  dHIT:          0  dMISS:          0  itACCESS:     107994  itHIT:      36240  itMISS:      71754  dtACCESS:     368726  dtHIT:     153622  dtMISS:     215104
cpu0_L2C PREFETCH  REQUESTED:    1484268  ISSUED:    1484267  CROSSED:          0  USEFUL:     399425  USELESS:     487103
cpu0_L2C AVERAGE iMISS LATENCY: 25.9443 cycles
cpu0_L2C AVERAGE dMISS LATENCY: 48.9046 cycles
cpu0_L2C AVERAGE itMISS LATENCY: 1.59656 cycles
cpu0_L2C AVERAGE dtMISS LATENCY: 4.97512 cycles
cpu0_L2C PAGE CROSSINGS (TLB HIT):         0 
cpu0_L2C PAGE CROSSINGS (TLB MISS):         0 
cpu0_L2C AVERAGE MISS LATENCY: 81.4205 cycles
LLC TOTAL       ACCESS:    6955825  HIT:    4321577  MISS:    2634248  iACCESS:    2896683  iHIT:    2082709  iMISS:     813974  dACCESS:    3772284  dHIT:    2172407  dMISS:    1599877  itACCESS:      71754  itHIT:      16062  itMISS:      55692  dtACCESS:     215104  dtHIT:      50399  dtMISS:     164705
LLC LOAD         ACCESS:    1877882  HIT:    1231602  MISS:     646280  iACCESS:     731728  iHIT:     560773  iMISS:     170955  dACCESS:    1146154  dHIT:     670829  dMISS:     475325  itACCESS:          0  itHIT:          0  itMISS:          0  dtACCESS:          0  dtHIT:          0  dtMISS:          0
LLC RFO          ACCESS:     190181  HIT:     103863  MISS:      86318  iACCESS:          0  iHIT:          0  iMISS:          0  dACCESS:     190181  dHIT:     103863  dMISS:      86318  itACCESS:          0  itHIT:          0  itMISS:          0  dtACCESS:          0  dtHIT:          0  dtMISS:          0
LLC PREFETCH     ACCESS:    4318574  HIT:    2643481  MISS:    1675093  iACCESS:    2164955  iHIT:    1521936  iMISS:     643019  dACCESS:    2153619  dHIT:    1121545  dMISS:    1032074  itACCESS:          0  itHIT:          0  itMISS:          0  dtACCESS:          0  dtHIT:          0  dtMISS:          0
LLC WRITE        ACCESS:     282330  HIT:     276170  MISS:       6160  iACCESS:          0  iHIT:          0  iMISS:          0  dACCESS:     282330  dHIT:     276170  dMISS:       6160  itACCESS:          0  itHIT:          0  itMISS:          0  dtACCESS:          0  dtHIT:          0  dtMISS:          0
LLC TRANSLATION  ACCESS:     286858  HIT:      66461  MISS:     220397  iACCESS:          0  iHIT:          0  iMISS:          0  dACCESS:          0  dHIT:          0  dMISS:          0  itACCESS:      71754  itHIT:      16062  itMISS:      55692  dtACCESS:     215104  dtHIT:      50399  dtMISS:     164705
LLC PREFETCH  REQUESTED:          0  ISSUED:          0  CROSSED:          0  USEFUL:          0  USELESS:          0
LLC AVERAGE iMISS LATENCY: 48.8472 cycles
LLC AVERAGE dMISS LATENCY: 107.112 cycles
LLC AVERAGE itMISS LATENCY: 3.78288 cycles
LLC AVERAGE dtMISS LATENCY: 11.8526 cycles
LLC PAGE CROSSINGS (TLB HIT):         0 
LLC PAGE CROSSINGS (TLB MISS):         0 
LLC AVERAGE MISS LATENCY: 171.595 cycles

PageTableWalker TOTAL       ACCESS:     181290  
PageTableWalker AVERAGE LATENCY: 5.97011 cycles
PageTableWalker TOTAL LATENCY: 1082321 cycles

DRAM Statistics
Channel 0
 RQ ROW_BUFFER_HIT:     580902
  ROW_BUFFER_MISS:    2036725
 AVG DBUS CONGESTED CYCLE:    3.64892
 WQ ROW_BUFFER_HIT:      65700
  ROW_BUFFER_MISS:      62727  FULL:          0

