last_page:0x200000000000000
VMEM_RES_CAP:0x100000
PAGE_SIZE:4096
LOG2_PAGE_SIZE:12
LOG2_PAGE_TABLE_SIZE:9
page_table_levels:5
WARNING: physical memory size is smaller than virtual memory size
FDiP enabled with aggresivity 16

*** ChampSim Multicore Out-of-Order Simulator ***

Warmup Instructions: 50000000
Simulation Instructions: 100000000
Number of CPUs: 1
Small page size: 4096
Large page size: 2097152

CPU 0 Bimodal branch predictor
Basic BTB sets: 1024 ways: 8 indirect buffer size: 4096 RAS size: 64
Instruction page size distrubution: 0
Loading instruction page size distribution from /home/bsc/bsc018186/scratch/itp_asplos25_AE/dump/smt_srv537_ap_srv727_ap_1024i.pdst
Data page size distrubution: 0
Loading data page size distribution from /home/bsc/bsc018186/scratch/itp_asplos25_AE/dump/smt_srv537_ap_srv727_ap_1024i.pdst
cpu0_L2C IP-based stride prefetcher
cpu0_L1D next line prefetcher
cpu0_L1I next line prefetcher
Off-chip DRAM Size: 4 GiB Channels: 1 Width: 64-bit Data Rate: 3200 MT/s
Heartbeat CPU 0 instructions: 10000001 cycles: 2500712 heartbeat IPC: 3.99887 cumulative IPC: 3.99887 (Simulation time: 0 hr 0 min 39 sec) 
Heartbeat CPU 0 instructions: 20000000 cycles: 5000980 heartbeat IPC: 3.99958 cumulative IPC: 3.99922 (Simulation time: 0 hr 1 min 21 sec) 
Heartbeat CPU 0 instructions: 30000000 cycles: 7501191 heartbeat IPC: 3.99967 cumulative IPC: 3.99937 (Simulation time: 0 hr 2 min 4 sec) 
Heartbeat CPU 0 instructions: 40000002 cycles: 10001544 heartbeat IPC: 3.99944 cumulative IPC: 3.99939 (Simulation time: 0 hr 2 min 47 sec) 
Heartbeat CPU 0 instructions: 50000002 cycles: 12501883 heartbeat IPC: 3.99946 cumulative IPC: 3.9994 (Simulation time: 0 hr 3 min 30 sec) 
Warmup finished CPU 0 instructions: 50000002 cycles: 12501884 cumulative IPC: 3.9994 (Simulation time: 0 hr 3 min 30 sec) 

Warmup complete CPU 0 instructions: 50000002 cycles: 12501884 (Simulation time: 0 hr 3 min 30 sec) 

Heartbeat CPU 0 instructions: 60000004 cycles: 40485526 heartbeat IPC: 0.357352 cumulative IPC: 0.357352 (Simulation time: 0 hr 4 min 55 sec) 
Heartbeat CPU 0 instructions: 70000001 cycles: 68107564 heartbeat IPC: 0.36203 cumulative IPC: 0.359676 (Simulation time: 0 hr 6 min 22 sec) 
Heartbeat CPU 0 instructions: 80000000 cycles: 96074231 heartbeat IPC: 0.357569 cumulative IPC: 0.358971 (Simulation time: 0 hr 7 min 48 sec) 
Heartbeat CPU 0 instructions: 90000000 cycles: 123186306 heartbeat IPC: 0.36884 cumulative IPC: 0.361388 (Simulation time: 0 hr 9 min 13 sec) 
Heartbeat CPU 0 instructions: 100000003 cycles: 151119627 heartbeat IPC: 0.357996 cumulative IPC: 0.360705 (Simulation time: 0 hr 10 min 39 sec) 
Heartbeat CPU 0 instructions: 110000000 cycles: 179901739 heartbeat IPC: 0.347438 cumulative IPC: 0.358424 (Simulation time: 0 hr 12 min 7 sec) 
Heartbeat CPU 0 instructions: 120000002 cycles: 207154852 heartbeat IPC: 0.366931 cumulative IPC: 0.359615 (Simulation time: 0 hr 13 min 32 sec) 
Heartbeat CPU 0 instructions: 130000004 cycles: 234230101 heartbeat IPC: 0.369342 cumulative IPC: 0.360803 (Simulation time: 0 hr 14 min 58 sec) 
Heartbeat CPU 0 instructions: 140000000 cycles: 262179985 heartbeat IPC: 0.357784 cumulative IPC: 0.360465 (Simulation time: 0 hr 16 min 24 sec) 
Heartbeat CPU 0 instructions: 150000003 cycles: 289772221 heartbeat IPC: 0.362421 cumulative IPC: 0.360659 (Simulation time: 0 hr 17 min 51 sec) 
Simulation finished CPU 0 instructions: 100000001 cycles: 277270338 cumulative IPC: 0.360659 (Simulation time: 0 hr 17 min 51 sec) 

Simulation complete CPU 0 instructions: 100000001 cycles: 277270338 (Simulation time: 0 hr 17 min 51 sec) 


ChampSim completed all CPUs

Saving instructions large page distribution to /home/bsc/bsc018186/scratch/itp_asplos25_AE/dump/smt_srv537_ap_srv727_ap_1024i.pdst...
Saving data large page distribution to /home/bsc/bsc018186/scratch/itp_asplos25_AE/dump/smt_srv537_ap_srv727_ap_1024i.pdst...
=== Simulation ===
CPU 0 runs /gpfs/projects/bsc18/MN4/bsc18/romol/ChampSim/traces/qualcomm_srv/smt_srv537_ap_srv727_ap_1024i.champsimtrace.xz

Region of Interest Statistics

CPU 0 cumulative IPC: 0.360659 instructions: 100000001 cycles: 277270338
CPU 0 Branch Prediction Accuracy: 75.1661% MPKI: 44.8107 Average ROB Occupancy at Mispredict: 10.3407
Branch type MPKI
BRANCH_DIRECT_JUMP: 1.38284
BRANCH_INDIRECT: 23.1163
BRANCH_CONDITIONAL: 13.0864
BRANCH_DIRECT_CALL: 2.67873
BRANCH_INDIRECT_CALL: 1.01904
BRANCH_RETURN: 3.52743

Instructions large pages: 0
Instructions small pages: 10200
Large page distribution for instructions: 0%

Data large pages: 0
Data small pages: 8763
Large page distribution for data: 0%

cpu0_L1I TOTAL       ACCESS:   39635082  HIT:   30352341  MISS:    9282741  iACCESS:   39635082  iHIT:   30352341  iMISS:    9282741  dACCESS:          0  dHIT:          0  dMISS:          0  itACCESS:          0  itHIT:          0  itMISS:          0  dtACCESS:          0  dtHIT:          0  dtMISS:          0
cpu0_L1I LOAD         ACCESS:   11833006  HIT:    9313117  MISS:    2519889  iACCESS:   11833006  iHIT:    9313117  iMISS:    2519889  dACCESS:          0  dHIT:          0  dMISS:          0  itACCESS:          0  itHIT:          0  itMISS:          0  dtACCESS:          0  dtHIT:          0  dtMISS:          0
cpu0_L1I RFO          ACCESS:          0  HIT:          0  MISS:          0  iACCESS:          0  iHIT:          0  iMISS:          0  dACCESS:          0  dHIT:          0  dMISS:          0  itACCESS:          0  itHIT:          0  itMISS:          0  dtACCESS:          0  dtHIT:          0  dtMISS:          0
cpu0_L1I PREFETCH     ACCESS:   27802076  HIT:   21039224  MISS:    6762852  iACCESS:   27802076  iHIT:   21039224  iMISS:    6762852  dACCESS:          0  dHIT:          0  dMISS:          0  itACCESS:          0  itHIT:          0  itMISS:          0  dtACCESS:          0  dtHIT:          0  dtMISS:          0
cpu0_L1I WRITE        ACCESS:          0  HIT:          0  MISS:          0  iACCESS:          0  iHIT:          0  iMISS:          0  dACCESS:          0  dHIT:          0  dMISS:          0  itACCESS:          0  itHIT:          0  itMISS:          0  dtACCESS:          0  dtHIT:          0  dtMISS:          0
cpu0_L1I TRANSLATION  ACCESS:          0  HIT:          0  MISS:          0  iACCESS:          0  iHIT:          0  iMISS:          0  dACCESS:          0  dHIT:          0  dMISS:          0  itACCESS:          0  itHIT:          0  itMISS:          0  dtACCESS:          0  dtHIT:          0  dtMISS:          0
cpu0_L1I PREFETCH  REQUESTED:   30399780  ISSUED:   30397712  CROSSED:          0  USEFUL:    2225083  USELESS:     767918
cpu0_L1I AVERAGE iMISS LATENCY: 24.1411 cycles
cpu0_L1I AVERAGE dMISS LATENCY: 0 cycles
cpu0_L1I AVERAGE itMISS LATENCY: 0 cycles
cpu0_L1I AVERAGE dtMISS LATENCY: 0 cycles
cpu0_L1I PAGE CROSSINGS (TLB HIT):         0 
cpu0_L1I PAGE CROSSINGS (TLB MISS):         0 
cpu0_L1I AVERAGE MISS LATENCY: 24.1411 cycles
cpu0_ITLB TOTAL       ACCESS:   33332216  HIT:   31089201  MISS:    2243015  iACCESS:   33332216  iHIT:   31089201  iMISS:    2243015  dACCESS:          0  dHIT:          0  dMISS:          0  itACCESS:          0  itHIT:          0  itMISS:          0  dtACCESS:          0  dtHIT:          0  dtMISS:          0
cpu0_ITLB LOAD         ACCESS:   33332216  HIT:   31089201  MISS:    2243015  iACCESS:   33332216  iHIT:   31089201  iMISS:    2243015  dACCESS:          0  dHIT:          0  dMISS:          0  itACCESS:          0  itHIT:          0  itMISS:          0  dtACCESS:          0  dtHIT:          0  dtMISS:          0
cpu0_ITLB RFO          ACCESS:          0  HIT:          0  MISS:          0  iACCESS:          0  iHIT:          0  iMISS:          0  dACCESS:          0  dHIT:          0  dMISS:          0  itACCESS:          0  itHIT:          0  itMISS:          0  dtACCESS:          0  dtHIT:          0  dtMISS:          0
cpu0_ITLB PREFETCH     ACCESS:          0  HIT:          0  MISS:          0  iACCESS:          0  iHIT:          0  iMISS:          0  dACCESS:          0  dHIT:          0  dMISS:          0  itACCESS:          0  itHIT:          0  itMISS:          0  dtACCESS:          0  dtHIT:          0  dtMISS:          0
cpu0_ITLB WRITE        ACCESS:          0  HIT:          0  MISS:          0  iACCESS:          0  iHIT:          0  iMISS:          0  dACCESS:          0  dHIT:          0  dMISS:          0  itACCESS:          0  itHIT:          0  itMISS:          0  dtACCESS:          0  dtHIT:          0  dtMISS:          0
cpu0_ITLB TRANSLATION  ACCESS:          0  HIT:          0  MISS:          0  iACCESS:          0  iHIT:          0  iMISS:          0  dACCESS:          0  dHIT:          0  dMISS:          0  itACCESS:          0  itHIT:          0  itMISS:          0  dtACCESS:          0  dtHIT:          0  dtMISS:          0
cpu0_ITLB PREFETCH  REQUESTED:          0  ISSUED:          0  CROSSED:          0  USEFUL:     392489  USELESS:      79629
cpu0_ITLB AVERAGE iMISS LATENCY: 7.64775 cycles
cpu0_ITLB AVERAGE dMISS LATENCY: 0 cycles
cpu0_ITLB AVERAGE itMISS LATENCY: 0 cycles
cpu0_ITLB AVERAGE dtMISS LATENCY: 0 cycles
cpu0_ITLB PAGE CROSSINGS (TLB HIT):         0 
cpu0_ITLB PAGE CROSSINGS (TLB MISS):         0 
cpu0_ITLB AVERAGE MISS LATENCY: 7.64775 cycles
cpu0_DTLB TOTAL       ACCESS:   28882855  HIT:   25537588  MISS:    3345267  iACCESS:          0  iHIT:          0  iMISS:          0  dACCESS:   28882855  dHIT:   25537588  dMISS:    3345267  itACCESS:          0  itHIT:          0  itMISS:          0  dtACCESS:          0  dtHIT:          0  dtMISS:          0
cpu0_DTLB LOAD         ACCESS:   28882855  HIT:   25537588  MISS:    3345267  iACCESS:          0  iHIT:          0  iMISS:          0  dACCESS:   28882855  dHIT:   25537588  dMISS:    3345267  itACCESS:          0  itHIT:          0  itMISS:          0  dtACCESS:          0  dtHIT:          0  dtMISS:          0
cpu0_DTLB RFO          ACCESS:          0  HIT:          0  MISS:          0  iACCESS:          0  iHIT:          0  iMISS:          0  dACCESS:          0  dHIT:          0  dMISS:          0  itACCESS:          0  itHIT:          0  itMISS:          0  dtACCESS:          0  dtHIT:          0  dtMISS:          0
cpu0_DTLB PREFETCH     ACCESS:          0  HIT:          0  MISS:          0  iACCESS:          0  iHIT:          0  iMISS:          0  dACCESS:          0  dHIT:          0  dMISS:          0  itACCESS:          0  itHIT:          0  itMISS:          0  dtACCESS:          0  dtHIT:          0  dtMISS:          0
cpu0_DTLB WRITE        ACCESS:          0  HIT:          0  MISS:          0  iACCESS:          0  iHIT:          0  iMISS:          0  dACCESS:          0  dHIT:          0  dMISS:          0  itACCESS:          0  itHIT:          0  itMISS:          0  dtACCESS:          0  dtHIT:          0  dtMISS:          0
cpu0_DTLB TRANSLATION  ACCESS:          0  HIT:          0  MISS:          0  iACCESS:          0  iHIT:          0  iMISS:          0  dACCESS:          0  dHIT:          0  dMISS:          0  itACCESS:          0  itHIT:          0  itMISS:          0  dtACCESS:          0  dtHIT:          0  dtMISS:          0
cpu0_DTLB PREFETCH  REQUESTED:          0  ISSUED:          0  CROSSED:          0  USEFUL:          0  USELESS:          0
cpu0_DTLB AVERAGE iMISS LATENCY: 0 cycles
cpu0_DTLB AVERAGE dMISS LATENCY: 17.6303 cycles
cpu0_DTLB AVERAGE itMISS LATENCY: 0 cycles
cpu0_DTLB AVERAGE dtMISS LATENCY: 0 cycles
cpu0_DTLB PAGE CROSSINGS (TLB HIT):         0 
cpu0_DTLB PAGE CROSSINGS (TLB MISS):         0 
cpu0_DTLB AVERAGE MISS LATENCY: 17.6303 cycles
cpu0_STLB TOTAL       ACCESS:    2411434  HIT:    2040844  MISS:     370590  iACCESS:     472136  iHIT:     354609  iMISS:     117527  dACCESS:    1939298  dHIT:    1686235  dMISS:     253063  itACCESS:          0  itHIT:          0  itMISS:          0  dtACCESS:          0  dtHIT:          0  dtMISS:          0
cpu0_STLB LOAD         ACCESS:    2411434  HIT:    2040844  MISS:     370590  iACCESS:     472136  iHIT:     354609  iMISS:     117527  dACCESS:    1939298  dHIT:    1686235  dMISS:     253063  itACCESS:          0  itHIT:          0  itMISS:          0  dtACCESS:          0  dtHIT:          0  dtMISS:          0
cpu0_STLB RFO          ACCESS:          0  HIT:          0  MISS:          0  iACCESS:          0  iHIT:          0  iMISS:          0  dACCESS:          0  dHIT:          0  dMISS:          0  itACCESS:          0  itHIT:          0  itMISS:          0  dtACCESS:          0  dtHIT:          0  dtMISS:          0
cpu0_STLB PREFETCH     ACCESS:          0  HIT:          0  MISS:          0  iACCESS:          0  iHIT:          0  iMISS:          0  dACCESS:          0  dHIT:          0  dMISS:          0  itACCESS:          0  itHIT:          0  itMISS:          0  dtACCESS:          0  dtHIT:          0  dtMISS:          0
cpu0_STLB WRITE        ACCESS:          0  HIT:          0  MISS:          0  iACCESS:          0  iHIT:          0  iMISS:          0  dACCESS:          0  dHIT:          0  dMISS:          0  itACCESS:          0  itHIT:          0  itMISS:          0  dtACCESS:          0  dtHIT:          0  dtMISS:          0
cpu0_STLB TRANSLATION  ACCESS:          0  HIT:          0  MISS:          0  iACCESS:          0  iHIT:          0  iMISS:          0  dACCESS:          0  dHIT:          0  dMISS:          0  itACCESS:          0  itHIT:          0  itMISS:          0  dtACCESS:          0  dtHIT:          0  dtMISS:          0
cpu0_STLB PREFETCH  REQUESTED:          0  ISSUED:          0  CROSSED:          0  USEFUL:          0  USELESS:          0
cpu0_STLB AVERAGE iMISS LATENCY: 36.0998 cycles
cpu0_STLB AVERAGE dMISS LATENCY: 117.124 cycles
cpu0_STLB AVERAGE itMISS LATENCY: 0 cycles
cpu0_STLB AVERAGE dtMISS LATENCY: 0 cycles
cpu0_STLB PAGE CROSSINGS (TLB HIT):         0 
cpu0_STLB PAGE CROSSINGS (TLB MISS):         0 
cpu0_STLB AVERAGE MISS LATENCY: 153.224 cycles
cpu0_L1D TOTAL       ACCESS:   45308095  HIT:   39272986  MISS:    6035109  iACCESS:          0  iHIT:          0  iMISS:          0  dACCESS:   44756720  dHIT:   39240062  dMISS:    5516658  itACCESS:     131082  itHIT:      15795  itMISS:     115287  dtACCESS:     420293  dtHIT:      17129  dtMISS:     403164
cpu0_L1D LOAD         ACCESS:   20435628  HIT:   17949518  MISS:    2486110  iACCESS:          0  iHIT:          0  iMISS:          0  dACCESS:   20435628  dHIT:   17949518  dMISS:    2486110  itACCESS:          0  itHIT:          0  itMISS:          0  dtACCESS:          0  dtHIT:          0  dtMISS:          0
cpu0_L1D RFO          ACCESS:          0  HIT:          0  MISS:          0  iACCESS:          0  iHIT:          0  iMISS:          0  dACCESS:          0  dHIT:          0  dMISS:          0  itACCESS:          0  itHIT:          0  itMISS:          0  dtACCESS:          0  dtHIT:          0  dtMISS:          0
cpu0_L1D PREFETCH     ACCESS:   14143574  HIT:   11687819  MISS:    2455755  iACCESS:          0  iHIT:          0  iMISS:          0  dACCESS:   14143574  dHIT:   11687819  dMISS:    2455755  itACCESS:          0  itHIT:          0  itMISS:          0  dtACCESS:          0  dtHIT:          0  dtMISS:          0
cpu0_L1D WRITE        ACCESS:   10177518  HIT:    9602725  MISS:     574793  iACCESS:          0  iHIT:          0  iMISS:          0  dACCESS:   10177518  dHIT:    9602725  dMISS:     574793  itACCESS:          0  itHIT:          0  itMISS:          0  dtACCESS:          0  dtHIT:          0  dtMISS:          0
cpu0_L1D TRANSLATION  ACCESS:     551375  HIT:      32924  MISS:     518451  iACCESS:          0  iHIT:          0  iMISS:          0  dACCESS:          0  dHIT:          0  dMISS:          0  itACCESS:     131082  itHIT:      15795  itMISS:     115287  dtACCESS:     420293  dtHIT:      17129  dtMISS:     403164
cpu0_L1D PREFETCH  REQUESTED:   20435628  ISSUED:   18436226  CROSSED:          0  USEFUL:     374300  USELESS:     911420
cpu0_L1D AVERAGE iMISS LATENCY: 0 cycles
cpu0_L1D AVERAGE dMISS LATENCY: 48.5655 cycles
cpu0_L1D AVERAGE itMISS LATENCY: 2.03281 cycles
cpu0_L1D AVERAGE dtMISS LATENCY: 6.44896 cycles
cpu0_L1D PAGE CROSSINGS (TLB HIT):         0 
cpu0_L1D PAGE CROSSINGS (TLB MISS):         0 
cpu0_L1D AVERAGE MISS LATENCY: 57.0472 cycles
cpu0_L2C TOTAL       ACCESS:    8641307  HIT:    1531626  MISS:    7109681  iACCESS:    3802770  iHIT:     820329  iMISS:    2982441  dACCESS:    4362376  dHIT:     520274  dMISS:    3842102  itACCESS:     114074  itHIT:      40687  itMISS:      73387  dtACCESS:     362087  dtHIT:     150336  dtMISS:     211751
cpu0_L2C LOAD         ACCESS:    2053132  HIT:     204863  MISS:    1848269  iACCESS:     846325  iHIT:     118333  iMISS:     727992  dACCESS:    1206807  dHIT:      86530  dMISS:    1120277  itACCESS:          0  itHIT:          0  itMISS:          0  dtACCESS:          0  dtHIT:          0  dtMISS:          0
cpu0_L2C RFO          ACCESS:     214395  HIT:      24793  MISS:     189602  iACCESS:          0  iHIT:          0  iMISS:          0  dACCESS:     214395  dHIT:      24793  dMISS:     189602  itACCESS:          0  itHIT:          0  itMISS:          0  dtACCESS:          0  dtHIT:          0  dtMISS:          0
cpu0_L2C PREFETCH     ACCESS:    5551262  HIT:    1012788  MISS:    4538474  iACCESS:    2956445  iHIT:     701996  iMISS:    2254449  dACCESS:    2594817  dHIT:     310792  dMISS:    2284025  itACCESS:          0  itHIT:          0  itMISS:          0  dtACCESS:          0  dtHIT:          0  dtMISS:          0
cpu0_L2C WRITE        ACCESS:     346357  HIT:      98159  MISS:     248198  iACCESS:          0  iHIT:          0  iMISS:          0  dACCESS:     346357  dHIT:      98159  dMISS:     248198  itACCESS:          0  itHIT:          0  itMISS:          0  dtACCESS:          0  dtHIT:          0  dtMISS:          0
cpu0_L2C TRANSLATION  ACCESS:     476161  HIT:     191023  MISS:     285138  iACCESS:          0  iHIT:          0  iMISS:          0  dACCESS:          0  dHIT:          0  dMISS:          0  itACCESS:     114074  itHIT:      40687  itMISS:      73387  dtACCESS:     362087  dtHIT:     150336  dtMISS:     211751
cpu0_L2C PREFETCH  REQUESTED:    1553164  ISSUED:    1553164  CROSSED:          0  USEFUL:     416481  USELESS:     498791
cpu0_L2C AVERAGE iMISS LATENCY: 26.9229 cycles
cpu0_L2C AVERAGE dMISS LATENCY: 51.0414 cycles
cpu0_L2C AVERAGE itMISS LATENCY: 1.57042 cycles
cpu0_L2C AVERAGE dtMISS LATENCY: 4.98391 cycles
cpu0_L2C PAGE CROSSINGS (TLB HIT):         0 
cpu0_L2C PAGE CROSSINGS (TLB MISS):         0 
cpu0_L2C AVERAGE MISS LATENCY: 84.5185 cycles
LLC TOTAL       ACCESS:    6911117  HIT:    4155444  MISS:    2755673  iACCESS:    2887467  iHIT:    2024101  iMISS:     863366  dACCESS:    3738512  dHIT:    2063666  dMISS:    1674846  itACCESS:      73387  itHIT:      18783  itMISS:      54604  dtACCESS:     211751  dtHIT:      48894  dtMISS:     162857
LLC LOAD         ACCESS:    1840465  HIT:    1175764  MISS:     664701  iACCESS:     726592  iHIT:     544911  iMISS:     181681  dACCESS:    1113873  dHIT:     630853  dMISS:     483020  itACCESS:          0  itHIT:          0  itMISS:          0  dtACCESS:          0  dtHIT:          0  dtMISS:          0
LLC RFO          ACCESS:     189577  HIT:      95874  MISS:      93703  iACCESS:          0  iHIT:          0  iMISS:          0  dACCESS:     189577  dHIT:      95874  dMISS:      93703  itACCESS:          0  itHIT:          0  itMISS:          0  dtACCESS:          0  dtHIT:          0  dtMISS:          0
LLC PREFETCH     ACCESS:    4315083  HIT:    2541606  MISS:    1773477  iACCESS:    2160875  iHIT:    1479190  iMISS:     681685  dACCESS:    2154208  dHIT:    1062416  dMISS:    1091792  itACCESS:          0  itHIT:          0  itMISS:          0  dtACCESS:          0  dtHIT:          0  dtMISS:          0
LLC WRITE        ACCESS:     280854  HIT:     274523  MISS:       6331  iACCESS:          0  iHIT:          0  iMISS:          0  dACCESS:     280854  dHIT:     274523  dMISS:       6331  itACCESS:          0  itHIT:          0  itMISS:          0  dtACCESS:          0  dtHIT:          0  dtMISS:          0
LLC TRANSLATION  ACCESS:     285138  HIT:      67677  MISS:     217461  iACCESS:          0  iHIT:          0  iMISS:          0  dACCESS:          0  dHIT:          0  dMISS:          0  itACCESS:      73387  itHIT:      18783  itMISS:      54604  dtACCESS:     211751  dtHIT:      48894  dtMISS:     162857
LLC PREFETCH  REQUESTED:          0  ISSUED:          0  CROSSED:          0  USEFUL:          0  USELESS:          0
LLC AVERAGE iMISS LATENCY: 49.1063 cycles
LLC AVERAGE dMISS LATENCY: 108.324 cycles
LLC AVERAGE itMISS LATENCY: 3.5275 cycles
LLC AVERAGE dtMISS LATENCY: 11.3454 cycles
LLC PAGE CROSSINGS (TLB HIT):         0 
LLC PAGE CROSSINGS (TLB MISS):         0 
LLC AVERAGE MISS LATENCY: 172.303 cycles

PageTableWalker TOTAL       ACCESS:     182116  
PageTableWalker AVERAGE LATENCY: 5.83473 cycles
PageTableWalker TOTAL LATENCY: 1062597 cycles

DRAM Statistics
Channel 0
 RQ ROW_BUFFER_HIT:     614917
  ROW_BUFFER_MISS:    2113553
 AVG DBUS CONGESTED CYCLE:    3.65556
 WQ ROW_BUFFER_HIT:      68011
  ROW_BUFFER_MISS:      65904  FULL:          0

