last_page:0x200000000000000
VMEM_RES_CAP:0x100000
PAGE_SIZE:4096
LOG2_PAGE_SIZE:12
LOG2_PAGE_TABLE_SIZE:9
page_table_levels:5
WARNING: physical memory size is smaller than virtual memory size
FDiP enabled with aggresivity 16

*** ChampSim Multicore Out-of-Order Simulator ***

Warmup Instructions: 50000000
Simulation Instructions: 100000000
Number of CPUs: 1
Small page size: 4096
Large page size: 2097152

CPU 0 Bimodal branch predictor
Basic BTB sets: 1024 ways: 8 indirect buffer size: 4096 RAS size: 64
Instruction page size distrubution: 0
Loading instruction page size distribution from /home/bsc/bsc018186/scratch/itp_asplos25_AE/dump/smt_srv537_ap_srv73_ap_1024i.pdst
Data page size distrubution: 0
Loading data page size distribution from /home/bsc/bsc018186/scratch/itp_asplos25_AE/dump/smt_srv537_ap_srv73_ap_1024i.pdst
cpu0_L2C IP-based stride prefetcher
cpu0_L1D next line prefetcher
cpu0_L1I next line prefetcher
Off-chip DRAM Size: 4 GiB Channels: 1 Width: 64-bit Data Rate: 3200 MT/s
Heartbeat CPU 0 instructions: 10000001 cycles: 2500784 heartbeat IPC: 3.99875 cumulative IPC: 3.99875 (Simulation time: 0 hr 0 min 46 sec) 
Heartbeat CPU 0 instructions: 20000003 cycles: 5001416 heartbeat IPC: 3.99899 cumulative IPC: 3.99887 (Simulation time: 0 hr 1 min 34 sec) 
Heartbeat CPU 0 instructions: 30000003 cycles: 7501922 heartbeat IPC: 3.9992 cumulative IPC: 3.99898 (Simulation time: 0 hr 2 min 18 sec) 
Heartbeat CPU 0 instructions: 40000002 cycles: 10002356 heartbeat IPC: 3.99931 cumulative IPC: 3.99906 (Simulation time: 0 hr 3 min 7 sec) 
Heartbeat CPU 0 instructions: 50000002 cycles: 12503637 heartbeat IPC: 3.99796 cumulative IPC: 3.99884 (Simulation time: 0 hr 3 min 56 sec) 
Warmup finished CPU 0 instructions: 50000002 cycles: 12503638 cumulative IPC: 3.99884 (Simulation time: 0 hr 3 min 56 sec) 

Warmup complete CPU 0 instructions: 50000002 cycles: 12503638 (Simulation time: 0 hr 3 min 56 sec) 

Heartbeat CPU 0 instructions: 60000004 cycles: 36538296 heartbeat IPC: 0.416066 cumulative IPC: 0.416066 (Simulation time: 0 hr 5 min 26 sec) 
Heartbeat CPU 0 instructions: 70000000 cycles: 58452339 heartbeat IPC: 0.456329 cumulative IPC: 0.435268 (Simulation time: 0 hr 6 min 48 sec) 
Heartbeat CPU 0 instructions: 80000003 cycles: 81153244 heartbeat IPC: 0.440512 cumulative IPC: 0.437002 (Simulation time: 0 hr 8 min 15 sec) 
Heartbeat CPU 0 instructions: 90000000 cycles: 110952672 heartbeat IPC: 0.335577 cumulative IPC: 0.406302 (Simulation time: 0 hr 9 min 55 sec) 
Heartbeat CPU 0 instructions: 100000003 cycles: 141911402 heartbeat IPC: 0.323011 cumulative IPC: 0.386376 (Simulation time: 0 hr 11 min 33 sec) 
Heartbeat CPU 0 instructions: 110000002 cycles: 173786472 heartbeat IPC: 0.313725 cumulative IPC: 0.372018 (Simulation time: 0 hr 13 min 17 sec) 
Heartbeat CPU 0 instructions: 120000001 cycles: 202750813 heartbeat IPC: 0.345253 cumulative IPC: 0.367943 (Simulation time: 0 hr 14 min 51 sec) 
Heartbeat CPU 0 instructions: 130000000 cycles: 218438102 heartbeat IPC: 0.637459 cumulative IPC: 0.388474 (Simulation time: 0 hr 16 min 4 sec) 
Heartbeat CPU 0 instructions: 140000003 cycles: 238785008 heartbeat IPC: 0.491476 cumulative IPC: 0.397735 (Simulation time: 0 hr 17 min 27 sec) 
Heartbeat CPU 0 instructions: 150000002 cycles: 269230153 heartbeat IPC: 0.32846 cumulative IPC: 0.38952 (Simulation time: 0 hr 19 min 0 sec) 
Simulation finished CPU 0 instructions: 100000000 cycles: 256726516 cumulative IPC: 0.38952 (Simulation time: 0 hr 19 min 0 sec) 

Simulation complete CPU 0 instructions: 100000000 cycles: 256726516 (Simulation time: 0 hr 19 min 0 sec) 


ChampSim completed all CPUs

Saving instructions large page distribution to /home/bsc/bsc018186/scratch/itp_asplos25_AE/dump/smt_srv537_ap_srv73_ap_1024i.pdst...
Saving data large page distribution to /home/bsc/bsc018186/scratch/itp_asplos25_AE/dump/smt_srv537_ap_srv73_ap_1024i.pdst...
=== Simulation ===
CPU 0 runs /gpfs/projects/bsc18/MN4/bsc18/romol/ChampSim/traces/qualcomm_srv/smt_srv537_ap_srv73_ap_1024i.champsimtrace.xz

Region of Interest Statistics

CPU 0 cumulative IPC: 0.38952 instructions: 100000000 cycles: 256726516
CPU 0 Branch Prediction Accuracy: 78.0605% MPKI: 42.6412 Average ROB Occupancy at Mispredict: 10.8481
Branch type MPKI
BRANCH_DIRECT_JUMP: 1.08701
BRANCH_INDIRECT: 22.7445
BRANCH_CONDITIONAL: 12.2037
BRANCH_DIRECT_CALL: 2.01297
BRANCH_INDIRECT_CALL: 1.68505
BRANCH_RETURN: 2.90805

Instructions large pages: 0
Instructions small pages: 11665
Large page distribution for instructions: 0%

Data large pages: 0
Data small pages: 9807
Large page distribution for data: 0%

cpu0_L1I TOTAL       ACCESS:   38220871  HIT:   31133156  MISS:    7087715  iACCESS:   38220871  iHIT:   31133156  iMISS:    7087715  dACCESS:          0  dHIT:          0  dMISS:          0  itACCESS:          0  itHIT:          0  itMISS:          0  dtACCESS:          0  dtHIT:          0  dtMISS:          0
cpu0_L1I LOAD         ACCESS:   10600480  HIT:    8653824  MISS:    1946656  iACCESS:   10600480  iHIT:    8653824  iMISS:    1946656  dACCESS:          0  dHIT:          0  dMISS:          0  itACCESS:          0  itHIT:          0  itMISS:          0  dtACCESS:          0  dtHIT:          0  dtMISS:          0
cpu0_L1I RFO          ACCESS:          0  HIT:          0  MISS:          0  iACCESS:          0  iHIT:          0  iMISS:          0  dACCESS:          0  dHIT:          0  dMISS:          0  itACCESS:          0  itHIT:          0  itMISS:          0  dtACCESS:          0  dtHIT:          0  dtMISS:          0
cpu0_L1I PREFETCH     ACCESS:   27620391  HIT:   22479332  MISS:    5141059  iACCESS:   27620391  iHIT:   22479332  iMISS:    5141059  dACCESS:          0  dHIT:          0  dMISS:          0  itACCESS:          0  itHIT:          0  itMISS:          0  dtACCESS:          0  dtHIT:          0  dtMISS:          0
cpu0_L1I WRITE        ACCESS:          0  HIT:          0  MISS:          0  iACCESS:          0  iHIT:          0  iMISS:          0  dACCESS:          0  dHIT:          0  dMISS:          0  itACCESS:          0  itHIT:          0  itMISS:          0  dtACCESS:          0  dtHIT:          0  dtMISS:          0
cpu0_L1I TRANSLATION  ACCESS:          0  HIT:          0  MISS:          0  iACCESS:          0  iHIT:          0  iMISS:          0  dACCESS:          0  dHIT:          0  dMISS:          0  itACCESS:          0  itHIT:          0  itMISS:          0  dtACCESS:          0  dtHIT:          0  dtMISS:          0
cpu0_L1I PREFETCH  REQUESTED:   30070132  ISSUED:   30069990  CROSSED:          0  USEFUL:    1798212  USELESS:     646418
cpu0_L1I AVERAGE iMISS LATENCY: 23.6319 cycles
cpu0_L1I AVERAGE dMISS LATENCY: 0 cycles
cpu0_L1I AVERAGE itMISS LATENCY: 0 cycles
cpu0_L1I AVERAGE dtMISS LATENCY: 0 cycles
cpu0_L1I PAGE CROSSINGS (TLB HIT):         0 
cpu0_L1I PAGE CROSSINGS (TLB MISS):         0 
cpu0_L1I AVERAGE MISS LATENCY: 23.6319 cycles
cpu0_ITLB TOTAL       ACCESS:   32332780  HIT:   30483691  MISS:    1849089  iACCESS:   32332780  iHIT:   30483691  iMISS:    1849089  dACCESS:          0  dHIT:          0  dMISS:          0  itACCESS:          0  itHIT:          0  itMISS:          0  dtACCESS:          0  dtHIT:          0  dtMISS:          0
cpu0_ITLB LOAD         ACCESS:   32332780  HIT:   30483691  MISS:    1849089  iACCESS:   32332780  iHIT:   30483691  iMISS:    1849089  dACCESS:          0  dHIT:          0  dMISS:          0  itACCESS:          0  itHIT:          0  itMISS:          0  dtACCESS:          0  dtHIT:          0  dtMISS:          0
cpu0_ITLB RFO          ACCESS:          0  HIT:          0  MISS:          0  iACCESS:          0  iHIT:          0  iMISS:          0  dACCESS:          0  dHIT:          0  dMISS:          0  itACCESS:          0  itHIT:          0  itMISS:          0  dtACCESS:          0  dtHIT:          0  dtMISS:          0
cpu0_ITLB PREFETCH     ACCESS:          0  HIT:          0  MISS:          0  iACCESS:          0  iHIT:          0  iMISS:          0  dACCESS:          0  dHIT:          0  dMISS:          0  itACCESS:          0  itHIT:          0  itMISS:          0  dtACCESS:          0  dtHIT:          0  dtMISS:          0
cpu0_ITLB WRITE        ACCESS:          0  HIT:          0  MISS:          0  iACCESS:          0  iHIT:          0  iMISS:          0  dACCESS:          0  dHIT:          0  dMISS:          0  itACCESS:          0  itHIT:          0  itMISS:          0  dtACCESS:          0  dtHIT:          0  dtMISS:          0
cpu0_ITLB TRANSLATION  ACCESS:          0  HIT:          0  MISS:          0  iACCESS:          0  iHIT:          0  iMISS:          0  dACCESS:          0  dHIT:          0  dMISS:          0  itACCESS:          0  itHIT:          0  itMISS:          0  dtACCESS:          0  dtHIT:          0  dtMISS:          0
cpu0_ITLB PREFETCH  REQUESTED:          0  ISSUED:          0  CROSSED:          0  USEFUL:     324754  USELESS:      67669
cpu0_ITLB AVERAGE iMISS LATENCY: 9.94705 cycles
cpu0_ITLB AVERAGE dMISS LATENCY: 0 cycles
cpu0_ITLB AVERAGE itMISS LATENCY: 0 cycles
cpu0_ITLB AVERAGE dtMISS LATENCY: 0 cycles
cpu0_ITLB PAGE CROSSINGS (TLB HIT):         0 
cpu0_ITLB PAGE CROSSINGS (TLB MISS):         0 
cpu0_ITLB AVERAGE MISS LATENCY: 9.94705 cycles
cpu0_DTLB TOTAL       ACCESS:   31240646  HIT:   25964786  MISS:    5275860  iACCESS:          0  iHIT:          0  iMISS:          0  dACCESS:   31240646  dHIT:   25964786  dMISS:    5275860  itACCESS:          0  itHIT:          0  itMISS:          0  dtACCESS:          0  dtHIT:          0  dtMISS:          0
cpu0_DTLB LOAD         ACCESS:   31240646  HIT:   25964786  MISS:    5275860  iACCESS:          0  iHIT:          0  iMISS:          0  dACCESS:   31240646  dHIT:   25964786  dMISS:    5275860  itACCESS:          0  itHIT:          0  itMISS:          0  dtACCESS:          0  dtHIT:          0  dtMISS:          0
cpu0_DTLB RFO          ACCESS:          0  HIT:          0  MISS:          0  iACCESS:          0  iHIT:          0  iMISS:          0  dACCESS:          0  dHIT:          0  dMISS:          0  itACCESS:          0  itHIT:          0  itMISS:          0  dtACCESS:          0  dtHIT:          0  dtMISS:          0
cpu0_DTLB PREFETCH     ACCESS:          0  HIT:          0  MISS:          0  iACCESS:          0  iHIT:          0  iMISS:          0  dACCESS:          0  dHIT:          0  dMISS:          0  itACCESS:          0  itHIT:          0  itMISS:          0  dtACCESS:          0  dtHIT:          0  dtMISS:          0
cpu0_DTLB WRITE        ACCESS:          0  HIT:          0  MISS:          0  iACCESS:          0  iHIT:          0  iMISS:          0  dACCESS:          0  dHIT:          0  dMISS:          0  itACCESS:          0  itHIT:          0  itMISS:          0  dtACCESS:          0  dtHIT:          0  dtMISS:          0
cpu0_DTLB TRANSLATION  ACCESS:          0  HIT:          0  MISS:          0  iACCESS:          0  iHIT:          0  iMISS:          0  dACCESS:          0  dHIT:          0  dMISS:          0  itACCESS:          0  itHIT:          0  itMISS:          0  dtACCESS:          0  dtHIT:          0  dtMISS:          0
cpu0_DTLB PREFETCH  REQUESTED:          0  ISSUED:          0  CROSSED:          0  USEFUL:          0  USELESS:          0
cpu0_DTLB AVERAGE iMISS LATENCY: 0 cycles
cpu0_DTLB AVERAGE dMISS LATENCY: 14.191 cycles
cpu0_DTLB AVERAGE itMISS LATENCY: 0 cycles
cpu0_DTLB AVERAGE dtMISS LATENCY: 0 cycles
cpu0_DTLB PAGE CROSSINGS (TLB HIT):         0 
cpu0_DTLB PAGE CROSSINGS (TLB MISS):         0 
cpu0_DTLB AVERAGE MISS LATENCY: 14.191 cycles
cpu0_STLB TOTAL       ACCESS:    3164166  HIT:    2888528  MISS:     275638  iACCESS:     392432  iHIT:     303018  iMISS:      89414  dACCESS:    2771734  dHIT:    2585510  dMISS:     186224  itACCESS:          0  itHIT:          0  itMISS:          0  dtACCESS:          0  dtHIT:          0  dtMISS:          0
cpu0_STLB LOAD         ACCESS:    3164166  HIT:    2888528  MISS:     275638  iACCESS:     392432  iHIT:     303018  iMISS:      89414  dACCESS:    2771734  dHIT:    2585510  dMISS:     186224  itACCESS:          0  itHIT:          0  itMISS:          0  dtACCESS:          0  dtHIT:          0  dtMISS:          0
cpu0_STLB RFO          ACCESS:          0  HIT:          0  MISS:          0  iACCESS:          0  iHIT:          0  iMISS:          0  dACCESS:          0  dHIT:          0  dMISS:          0  itACCESS:          0  itHIT:          0  itMISS:          0  dtACCESS:          0  dtHIT:          0  dtMISS:          0
cpu0_STLB PREFETCH     ACCESS:          0  HIT:          0  MISS:          0  iACCESS:          0  iHIT:          0  iMISS:          0  dACCESS:          0  dHIT:          0  dMISS:          0  itACCESS:          0  itHIT:          0  itMISS:          0  dtACCESS:          0  dtHIT:          0  dtMISS:          0
cpu0_STLB WRITE        ACCESS:          0  HIT:          0  MISS:          0  iACCESS:          0  iHIT:          0  iMISS:          0  dACCESS:          0  dHIT:          0  dMISS:          0  itACCESS:          0  itHIT:          0  itMISS:          0  dtACCESS:          0  dtHIT:          0  dtMISS:          0
cpu0_STLB TRANSLATION  ACCESS:          0  HIT:          0  MISS:          0  iACCESS:          0  iHIT:          0  iMISS:          0  dACCESS:          0  dHIT:          0  dMISS:          0  itACCESS:          0  itHIT:          0  itMISS:          0  dtACCESS:          0  dtHIT:          0  dtMISS:          0
cpu0_STLB PREFETCH  REQUESTED:          0  ISSUED:          0  CROSSED:          0  USEFUL:          0  USELESS:          0
cpu0_STLB AVERAGE iMISS LATENCY: 55.3618 cycles
cpu0_STLB AVERAGE dMISS LATENCY: 190.4 cycles
cpu0_STLB AVERAGE itMISS LATENCY: 0 cycles
cpu0_STLB AVERAGE dtMISS LATENCY: 0 cycles
cpu0_STLB PAGE CROSSINGS (TLB HIT):         0 
cpu0_STLB PAGE CROSSINGS (TLB MISS):         0 
cpu0_STLB AVERAGE MISS LATENCY: 245.762 cycles
cpu0_L1D TOTAL       ACCESS:   48864923  HIT:   40773032  MISS:    8091891  iACCESS:          0  iHIT:          0  iMISS:          0  dACCESS:   48414335  dHIT:   40750228  dMISS:    7664107  itACCESS:     108239  itHIT:      10702  itMISS:      97537  dtACCESS:     342349  dtHIT:      12102  dtMISS:     330247
cpu0_L1D LOAD         ACCESS:   23354100  HIT:   19249239  MISS:    4104861  iACCESS:          0  iHIT:          0  iMISS:          0  dACCESS:   23354100  dHIT:   19249239  dMISS:    4104861  itACCESS:          0  itHIT:          0  itMISS:          0  dtACCESS:          0  dtHIT:          0  dtMISS:          0
cpu0_L1D RFO          ACCESS:          0  HIT:          0  MISS:          0  iACCESS:          0  iHIT:          0  iMISS:          0  dACCESS:          0  dHIT:          0  dMISS:          0  itACCESS:          0  itHIT:          0  itMISS:          0  dtACCESS:          0  dtHIT:          0  dtMISS:          0
cpu0_L1D PREFETCH     ACCESS:   15194881  HIT:   12410452  MISS:    2784429  iACCESS:          0  iHIT:          0  iMISS:          0  dACCESS:   15194881  dHIT:   12410452  dMISS:    2784429  itACCESS:          0  itHIT:          0  itMISS:          0  dtACCESS:          0  dtHIT:          0  dtMISS:          0
cpu0_L1D WRITE        ACCESS:    9865354  HIT:    9090537  MISS:     774817  iACCESS:          0  iHIT:          0  iMISS:          0  dACCESS:    9865354  dHIT:    9090537  dMISS:     774817  itACCESS:          0  itHIT:          0  itMISS:          0  dtACCESS:          0  dtHIT:          0  dtMISS:          0
cpu0_L1D TRANSLATION  ACCESS:     450588  HIT:      22804  MISS:     427784  iACCESS:          0  iHIT:          0  iMISS:          0  dACCESS:          0  dHIT:          0  dMISS:          0  itACCESS:     108239  itHIT:      10702  itMISS:      97537  dtACCESS:     342349  dtHIT:      12102  dtMISS:     330247
cpu0_L1D PREFETCH  REQUESTED:   23354100  ISSUED:   19680405  CROSSED:          0  USEFUL:     352867  USELESS:    1080484
cpu0_L1D AVERAGE iMISS LATENCY: 0 cycles
cpu0_L1D AVERAGE dMISS LATENCY: 32.5092 cycles
cpu0_L1D AVERAGE itMISS LATENCY: 1.76914 cycles
cpu0_L1D AVERAGE dtMISS LATENCY: 6.02758 cycles
cpu0_L1D PAGE CROSSINGS (TLB HIT):         0 
cpu0_L1D PAGE CROSSINGS (TLB MISS):         0 
cpu0_L1D AVERAGE MISS LATENCY: 40.3059 cycles
cpu0_L2C TOTAL       ACCESS:    9174117  HIT:    5616982  MISS:    3557135  iACCESS:    3116035  iHIT:    1953771  iMISS:    1162264  dACCESS:    5705011  dHIT:    3619738  dMISS:    2085273  itACCESS:      88819  itHIT:      15601  itMISS:      73218  dtACCESS:     264252  dtHIT:      27872  dtMISS:     236380
cpu0_L2C LOAD         ACCESS:    3357579  HIT:    2483445  MISS:     874134  iACCESS:     700005  iHIT:     459217  iMISS:     240788  dACCESS:    2657574  dHIT:    2024228  dMISS:     633346  itACCESS:          0  itHIT:          0  itMISS:          0  dtACCESS:          0  dtHIT:          0  dtMISS:          0
cpu0_L2C RFO          ACCESS:     238781  HIT:     109794  MISS:     128987  iACCESS:          0  iHIT:          0  iMISS:          0  dACCESS:     238781  dHIT:     109794  dMISS:     128987  itACCESS:          0  itHIT:          0  itMISS:          0  dtACCESS:          0  dtHIT:          0  dtMISS:          0
cpu0_L2C PREFETCH     ACCESS:    4885894  HIT:    2643969  MISS:    2241925  iACCESS:    2416030  iHIT:    1494554  iMISS:     921476  dACCESS:    2469864  dHIT:    1149415  dMISS:    1320449  itACCESS:          0  itHIT:          0  itMISS:          0  dtACCESS:          0  dtHIT:          0  dtMISS:          0
cpu0_L2C WRITE        ACCESS:     338792  HIT:     336301  MISS:       2491  iACCESS:          0  iHIT:          0  iMISS:          0  dACCESS:     338792  dHIT:     336301  dMISS:       2491  itACCESS:          0  itHIT:          0  itMISS:          0  dtACCESS:          0  dtHIT:          0  dtMISS:          0
cpu0_L2C TRANSLATION  ACCESS:     353071  HIT:      43473  MISS:     309598  iACCESS:          0  iHIT:          0  iMISS:          0  dACCESS:          0  dHIT:          0  dMISS:          0  itACCESS:      88819  itHIT:      15601  itMISS:      73218  dtACCESS:     264252  dtHIT:      27872  dtMISS:     236380
cpu0_L2C PREFETCH  REQUESTED:    1221395  ISSUED:    1221321  CROSSED:          0  USEFUL:     272246  USELESS:     249678
cpu0_L2C AVERAGE iMISS LATENCY: 39.7538 cycles
cpu0_L2C AVERAGE dMISS LATENCY: 81.2089 cycles
cpu0_L2C AVERAGE itMISS LATENCY: 3.77847 cycles
cpu0_L2C AVERAGE dtMISS LATENCY: 12.9727 cycles
cpu0_L2C PAGE CROSSINGS (TLB HIT):         0 
cpu0_L2C PAGE CROSSINGS (TLB MISS):         0 
cpu0_L2C AVERAGE MISS LATENCY: 137.714 cycles
LLC TOTAL       ACCESS:    3580150  HIT:    1128104  MISS:    2452046  iACCESS:    1095784  iHIT:     342649  iMISS:     753135  dACCESS:    2174768  dHIT:     756302  dMISS:    1418466  itACCESS:      73218  itHIT:       5722  itMISS:      67496  dtACCESS:     236380  dtHIT:      23431  dtMISS:     212949
LLC LOAD         ACCESS:     868083  HIT:     289460  MISS:     578623  iACCESS:     239962  iHIT:      80539  iMISS:     159423  dACCESS:     628121  dHIT:     208921  dMISS:     419200  itACCESS:          0  itHIT:          0  itMISS:          0  dtACCESS:          0  dtHIT:          0  dtMISS:          0
LLC RFO          ACCESS:     128981  HIT:      36779  MISS:      92202  iACCESS:          0  iHIT:          0  iMISS:          0  dACCESS:     128981  dHIT:      36779  dMISS:      92202  itACCESS:          0  itHIT:          0  itMISS:          0  dtACCESS:          0  dtHIT:          0  dtMISS:          0
LLC PREFETCH     ACCESS:    2084402  HIT:     591872  MISS:    1492530  iACCESS:     855822  iHIT:     262110  iMISS:     593712  dACCESS:    1228580  dHIT:     329762  dMISS:     898818  itACCESS:          0  itHIT:          0  itMISS:          0  dtACCESS:          0  dtHIT:          0  dtMISS:          0
LLC WRITE        ACCESS:     189086  HIT:     180840  MISS:       8246  iACCESS:          0  iHIT:          0  iMISS:          0  dACCESS:     189086  dHIT:     180840  dMISS:       8246  itACCESS:          0  itHIT:          0  itMISS:          0  dtACCESS:          0  dtHIT:          0  dtMISS:          0
LLC TRANSLATION  ACCESS:     309598  HIT:      29153  MISS:     280445  iACCESS:          0  iHIT:          0  iMISS:          0  dACCESS:          0  dHIT:          0  dMISS:          0  itACCESS:      73218  itHIT:       5722  itMISS:      67496  dtACCESS:     236380  dtHIT:      23431  dtMISS:     212949
LLC PREFETCH  REQUESTED:          0  ISSUED:          0  CROSSED:          0  USEFUL:          0  USELESS:          0
LLC AVERAGE iMISS LATENCY: 48.8671 cycles
LLC AVERAGE dMISS LATENCY: 102.664 cycles
LLC AVERAGE itMISS LATENCY: 4.88907 cycles
LLC AVERAGE dtMISS LATENCY: 16.9131 cycles
LLC PAGE CROSSINGS (TLB HIT):         0 
LLC PAGE CROSSINGS (TLB MISS):         0 
LLC AVERAGE MISS LATENCY: 173.333 cycles

PageTableWalker TOTAL       ACCESS:     178375  
PageTableWalker AVERAGE LATENCY: 6.5719 cycles
PageTableWalker TOTAL LATENCY: 1172261 cycles

DRAM Statistics
Channel 0
 RQ ROW_BUFFER_HIT:     502533
  ROW_BUFFER_MISS:    1926668
 AVG DBUS CONGESTED CYCLE:    3.65557
 WQ ROW_BUFFER_HIT:      54912
  ROW_BUFFER_MISS:      53383  FULL:          0

