last_page:0x200000000000000
VMEM_RES_CAP:0x100000
PAGE_SIZE:4096
LOG2_PAGE_SIZE:12
LOG2_PAGE_TABLE_SIZE:9
page_table_levels:5
WARNING: physical memory size is smaller than virtual memory size
FDiP enabled with aggresivity 16

*** ChampSim Multicore Out-of-Order Simulator ***

Warmup Instructions: 50000000
Simulation Instructions: 100000000
Number of CPUs: 1
Small page size: 4096
Large page size: 2097152

CPU 0 Bimodal branch predictor
Basic BTB sets: 1024 ways: 8 indirect buffer size: 4096 RAS size: 64
Instruction page size distrubution: 0
Loading instruction page size distribution from /home/bsc/bsc018186/scratch/itp_asplos25_AE/dump/smt_srv12_ap_srv551_ap_1024i.pdst
Data page size distrubution: 0
Loading data page size distribution from /home/bsc/bsc018186/scratch/itp_asplos25_AE/dump/smt_srv12_ap_srv551_ap_1024i.pdst
cpu0_L2C IP-based stride prefetcher
cpu0_L1D next line prefetcher
cpu0_L1I next line prefetcher
Off-chip DRAM Size: 4 GiB Channels: 1 Width: 64-bit Data Rate: 3200 MT/s
Heartbeat CPU 0 instructions: 10000000 cycles: 2500420 heartbeat IPC: 3.99933 cumulative IPC: 3.99933 (Simulation time: 0 hr 0 min 39 sec) 
Heartbeat CPU 0 instructions: 20000002 cycles: 5000917 heartbeat IPC: 3.99921 cumulative IPC: 3.99927 (Simulation time: 0 hr 1 min 18 sec) 
Heartbeat CPU 0 instructions: 30000002 cycles: 7501616 heartbeat IPC: 3.99889 cumulative IPC: 3.99914 (Simulation time: 0 hr 2 min 0 sec) 
Heartbeat CPU 0 instructions: 40000000 cycles: 10002110 heartbeat IPC: 3.99921 cumulative IPC: 3.99916 (Simulation time: 0 hr 2 min 42 sec) 
Heartbeat CPU 0 instructions: 50000002 cycles: 12502438 heartbeat IPC: 3.99948 cumulative IPC: 3.99923 (Simulation time: 0 hr 3 min 24 sec) 
Warmup finished CPU 0 instructions: 50000002 cycles: 12502439 cumulative IPC: 3.99922 (Simulation time: 0 hr 3 min 24 sec) 

Warmup complete CPU 0 instructions: 50000002 cycles: 12502439 (Simulation time: 0 hr 3 min 24 sec) 

Heartbeat CPU 0 instructions: 60000000 cycles: 41816868 heartbeat IPC: 0.341129 cumulative IPC: 0.341129 (Simulation time: 0 hr 4 min 51 sec) 
Heartbeat CPU 0 instructions: 70000000 cycles: 71848243 heartbeat IPC: 0.332986 cumulative IPC: 0.337008 (Simulation time: 0 hr 6 min 18 sec) 
Heartbeat CPU 0 instructions: 80000001 cycles: 100976956 heartbeat IPC: 0.343304 cumulative IPC: 0.339081 (Simulation time: 0 hr 7 min 43 sec) 
Heartbeat CPU 0 instructions: 90000000 cycles: 126933533 heartbeat IPC: 0.385259 cumulative IPC: 0.349556 (Simulation time: 0 hr 9 min 3 sec) 
Heartbeat CPU 0 instructions: 100000000 cycles: 155691699 heartbeat IPC: 0.347728 cumulative IPC: 0.349189 (Simulation time: 0 hr 10 min 29 sec) 
Heartbeat CPU 0 instructions: 110000000 cycles: 183982290 heartbeat IPC: 0.353475 cumulative IPC: 0.349896 (Simulation time: 0 hr 11 min 54 sec) 
Heartbeat CPU 0 instructions: 120000001 cycles: 208914191 heartbeat IPC: 0.401093 cumulative IPC: 0.356395 (Simulation time: 0 hr 13 min 16 sec) 
Heartbeat CPU 0 instructions: 130000001 cycles: 227064574 heartbeat IPC: 0.550953 cumulative IPC: 0.372853 (Simulation time: 0 hr 14 min 35 sec) 
Heartbeat CPU 0 instructions: 140000000 cycles: 245771815 heartbeat IPC: 0.534553 cumulative IPC: 0.385821 (Simulation time: 0 hr 15 min 54 sec) 
Heartbeat CPU 0 instructions: 150000002 cycles: 275439121 heartbeat IPC: 0.337072 cumulative IPC: 0.38032 (Simulation time: 0 hr 17 min 24 sec) 
Simulation finished CPU 0 instructions: 100000000 cycles: 262936683 cumulative IPC: 0.38032 (Simulation time: 0 hr 17 min 24 sec) 

Simulation complete CPU 0 instructions: 100000000 cycles: 262936683 (Simulation time: 0 hr 17 min 24 sec) 


ChampSim completed all CPUs

Saving instructions large page distribution to /home/bsc/bsc018186/scratch/itp_asplos25_AE/dump/smt_srv12_ap_srv551_ap_1024i.pdst...
Saving data large page distribution to /home/bsc/bsc018186/scratch/itp_asplos25_AE/dump/smt_srv12_ap_srv551_ap_1024i.pdst...
=== Simulation ===
CPU 0 runs /gpfs/projects/bsc18/MN4/bsc18/romol/ChampSim/traces/qualcomm_srv/smt_srv12_ap_srv551_ap_1024i.champsimtrace.xz

Region of Interest Statistics

CPU 0 cumulative IPC: 0.38032 instructions: 100000000 cycles: 262936683
CPU 0 Branch Prediction Accuracy: 77.4284% MPKI: 43.7503 Average ROB Occupancy at Mispredict: 11.064
Branch type MPKI
BRANCH_DIRECT_JUMP: 1.3119
BRANCH_INDIRECT: 23.221
BRANCH_CONDITIONAL: 12.1681
BRANCH_DIRECT_CALL: 2.50059
BRANCH_INDIRECT_CALL: 1.19351
BRANCH_RETURN: 3.35539

Instructions large pages: 0
Instructions small pages: 11842
Large page distribution for instructions: 0%

Data large pages: 0
Data small pages: 9976
Large page distribution for data: 0%

cpu0_L1I TOTAL       ACCESS:   40246116  HIT:   32086542  MISS:    8159574  iACCESS:   40246116  iHIT:   32086542  iMISS:    8159574  dACCESS:          0  dHIT:          0  dMISS:          0  itACCESS:          0  itHIT:          0  itMISS:          0  dtACCESS:          0  dtHIT:          0  dtMISS:          0
cpu0_L1I LOAD         ACCESS:   11453228  HIT:    9243444  MISS:    2209784  iACCESS:   11453228  iHIT:    9243444  iMISS:    2209784  dACCESS:          0  dHIT:          0  dMISS:          0  itACCESS:          0  itHIT:          0  itMISS:          0  dtACCESS:          0  dtHIT:          0  dtMISS:          0
cpu0_L1I RFO          ACCESS:          0  HIT:          0  MISS:          0  iACCESS:          0  iHIT:          0  iMISS:          0  dACCESS:          0  dHIT:          0  dMISS:          0  itACCESS:          0  itHIT:          0  itMISS:          0  dtACCESS:          0  dtHIT:          0  dtMISS:          0
cpu0_L1I PREFETCH     ACCESS:   28792888  HIT:   22843098  MISS:    5949790  iACCESS:   28792888  iHIT:   22843098  iMISS:    5949790  dACCESS:          0  dHIT:          0  dMISS:          0  itACCESS:          0  itHIT:          0  itMISS:          0  dtACCESS:          0  dtHIT:          0  dtMISS:          0
cpu0_L1I WRITE        ACCESS:          0  HIT:          0  MISS:          0  iACCESS:          0  iHIT:          0  iMISS:          0  dACCESS:          0  dHIT:          0  dMISS:          0  itACCESS:          0  itHIT:          0  itMISS:          0  dtACCESS:          0  dtHIT:          0  dtMISS:          0
cpu0_L1I TRANSLATION  ACCESS:          0  HIT:          0  MISS:          0  iACCESS:          0  iHIT:          0  iMISS:          0  dACCESS:          0  dHIT:          0  dMISS:          0  itACCESS:          0  itHIT:          0  itMISS:          0  dtACCESS:          0  dtHIT:          0  dtMISS:          0
cpu0_L1I PREFETCH  REQUESTED:   31311875  ISSUED:   31310754  CROSSED:          0  USEFUL:    1983699  USELESS:     691469
cpu0_L1I AVERAGE iMISS LATENCY: 25.0713 cycles
cpu0_L1I AVERAGE dMISS LATENCY: 0 cycles
cpu0_L1I AVERAGE itMISS LATENCY: 0 cycles
cpu0_L1I AVERAGE dtMISS LATENCY: 0 cycles
cpu0_L1I PAGE CROSSINGS (TLB HIT):         0 
cpu0_L1I PAGE CROSSINGS (TLB MISS):         0 
cpu0_L1I AVERAGE MISS LATENCY: 25.0713 cycles
cpu0_ITLB TOTAL       ACCESS:   33742249  HIT:   31759322  MISS:    1982927  iACCESS:   33742249  iHIT:   31759322  iMISS:    1982927  dACCESS:          0  dHIT:          0  dMISS:          0  itACCESS:          0  itHIT:          0  itMISS:          0  dtACCESS:          0  dtHIT:          0  dtMISS:          0
cpu0_ITLB LOAD         ACCESS:   33742249  HIT:   31759322  MISS:    1982927  iACCESS:   33742249  iHIT:   31759322  iMISS:    1982927  dACCESS:          0  dHIT:          0  dMISS:          0  itACCESS:          0  itHIT:          0  itMISS:          0  dtACCESS:          0  dtHIT:          0  dtMISS:          0
cpu0_ITLB RFO          ACCESS:          0  HIT:          0  MISS:          0  iACCESS:          0  iHIT:          0  iMISS:          0  dACCESS:          0  dHIT:          0  dMISS:          0  itACCESS:          0  itHIT:          0  itMISS:          0  dtACCESS:          0  dtHIT:          0  dtMISS:          0
cpu0_ITLB PREFETCH     ACCESS:          0  HIT:          0  MISS:          0  iACCESS:          0  iHIT:          0  iMISS:          0  dACCESS:          0  dHIT:          0  dMISS:          0  itACCESS:          0  itHIT:          0  itMISS:          0  dtACCESS:          0  dtHIT:          0  dtMISS:          0
cpu0_ITLB WRITE        ACCESS:          0  HIT:          0  MISS:          0  iACCESS:          0  iHIT:          0  iMISS:          0  dACCESS:          0  dHIT:          0  dMISS:          0  itACCESS:          0  itHIT:          0  itMISS:          0  dtACCESS:          0  dtHIT:          0  dtMISS:          0
cpu0_ITLB TRANSLATION  ACCESS:          0  HIT:          0  MISS:          0  iACCESS:          0  iHIT:          0  iMISS:          0  dACCESS:          0  dHIT:          0  dMISS:          0  itACCESS:          0  itHIT:          0  itMISS:          0  dtACCESS:          0  dtHIT:          0  dtMISS:          0
cpu0_ITLB PREFETCH  REQUESTED:          0  ISSUED:          0  CROSSED:          0  USEFUL:     353986  USELESS:      71334
cpu0_ITLB AVERAGE iMISS LATENCY: 8.3276 cycles
cpu0_ITLB AVERAGE dMISS LATENCY: 0 cycles
cpu0_ITLB AVERAGE itMISS LATENCY: 0 cycles
cpu0_ITLB AVERAGE dtMISS LATENCY: 0 cycles
cpu0_ITLB PAGE CROSSINGS (TLB HIT):         0 
cpu0_ITLB PAGE CROSSINGS (TLB MISS):         0 
cpu0_ITLB AVERAGE MISS LATENCY: 8.3276 cycles
cpu0_DTLB TOTAL       ACCESS:   30896126  HIT:   24970193  MISS:    5925933  iACCESS:          0  iHIT:          0  iMISS:          0  dACCESS:   30896126  dHIT:   24970193  dMISS:    5925933  itACCESS:          0  itHIT:          0  itMISS:          0  dtACCESS:          0  dtHIT:          0  dtMISS:          0
cpu0_DTLB LOAD         ACCESS:   30896126  HIT:   24970193  MISS:    5925933  iACCESS:          0  iHIT:          0  iMISS:          0  dACCESS:   30896126  dHIT:   24970193  dMISS:    5925933  itACCESS:          0  itHIT:          0  itMISS:          0  dtACCESS:          0  dtHIT:          0  dtMISS:          0
cpu0_DTLB RFO          ACCESS:          0  HIT:          0  MISS:          0  iACCESS:          0  iHIT:          0  iMISS:          0  dACCESS:          0  dHIT:          0  dMISS:          0  itACCESS:          0  itHIT:          0  itMISS:          0  dtACCESS:          0  dtHIT:          0  dtMISS:          0
cpu0_DTLB PREFETCH     ACCESS:          0  HIT:          0  MISS:          0  iACCESS:          0  iHIT:          0  iMISS:          0  dACCESS:          0  dHIT:          0  dMISS:          0  itACCESS:          0  itHIT:          0  itMISS:          0  dtACCESS:          0  dtHIT:          0  dtMISS:          0
cpu0_DTLB WRITE        ACCESS:          0  HIT:          0  MISS:          0  iACCESS:          0  iHIT:          0  iMISS:          0  dACCESS:          0  dHIT:          0  dMISS:          0  itACCESS:          0  itHIT:          0  itMISS:          0  dtACCESS:          0  dtHIT:          0  dtMISS:          0
cpu0_DTLB TRANSLATION  ACCESS:          0  HIT:          0  MISS:          0  iACCESS:          0  iHIT:          0  iMISS:          0  dACCESS:          0  dHIT:          0  dMISS:          0  itACCESS:          0  itHIT:          0  itMISS:          0  dtACCESS:          0  dtHIT:          0  dtMISS:          0
cpu0_DTLB PREFETCH  REQUESTED:          0  ISSUED:          0  CROSSED:          0  USEFUL:          0  USELESS:          0
cpu0_DTLB AVERAGE iMISS LATENCY: 0 cycles
cpu0_DTLB AVERAGE dMISS LATENCY: 10.8856 cycles
cpu0_DTLB AVERAGE itMISS LATENCY: 0 cycles
cpu0_DTLB AVERAGE dtMISS LATENCY: 0 cycles
cpu0_DTLB PAGE CROSSINGS (TLB HIT):         0 
cpu0_DTLB PAGE CROSSINGS (TLB MISS):         0 
cpu0_DTLB AVERAGE MISS LATENCY: 10.8856 cycles
cpu0_STLB TOTAL       ACCESS:    3634255  HIT:    3304375  MISS:     329880  iACCESS:     425331  iHIT:     318302  iMISS:     107029  dACCESS:    3208924  dHIT:    2986073  dMISS:     222851  itACCESS:          0  itHIT:          0  itMISS:          0  dtACCESS:          0  dtHIT:          0  dtMISS:          0
cpu0_STLB LOAD         ACCESS:    3634255  HIT:    3304375  MISS:     329880  iACCESS:     425331  iHIT:     318302  iMISS:     107029  dACCESS:    3208924  dHIT:    2986073  dMISS:     222851  itACCESS:          0  itHIT:          0  itMISS:          0  dtACCESS:          0  dtHIT:          0  dtMISS:          0
cpu0_STLB RFO          ACCESS:          0  HIT:          0  MISS:          0  iACCESS:          0  iHIT:          0  iMISS:          0  dACCESS:          0  dHIT:          0  dMISS:          0  itACCESS:          0  itHIT:          0  itMISS:          0  dtACCESS:          0  dtHIT:          0  dtMISS:          0
cpu0_STLB PREFETCH     ACCESS:          0  HIT:          0  MISS:          0  iACCESS:          0  iHIT:          0  iMISS:          0  dACCESS:          0  dHIT:          0  dMISS:          0  itACCESS:          0  itHIT:          0  itMISS:          0  dtACCESS:          0  dtHIT:          0  dtMISS:          0
cpu0_STLB WRITE        ACCESS:          0  HIT:          0  MISS:          0  iACCESS:          0  iHIT:          0  iMISS:          0  dACCESS:          0  dHIT:          0  dMISS:          0  itACCESS:          0  itHIT:          0  itMISS:          0  dtACCESS:          0  dtHIT:          0  dtMISS:          0
cpu0_STLB TRANSLATION  ACCESS:          0  HIT:          0  MISS:          0  iACCESS:          0  iHIT:          0  iMISS:          0  dACCESS:          0  dHIT:          0  dMISS:          0  itACCESS:          0  itHIT:          0  itMISS:          0  dtACCESS:          0  dtHIT:          0  dtMISS:          0
cpu0_STLB PREFETCH  REQUESTED:          0  ISSUED:          0  CROSSED:          0  USEFUL:          0  USELESS:          0
cpu0_STLB AVERAGE iMISS LATENCY: 39.7462 cycles
cpu0_STLB AVERAGE dMISS LATENCY: 116.923 cycles
cpu0_STLB AVERAGE itMISS LATENCY: 0 cycles
cpu0_STLB AVERAGE dtMISS LATENCY: 0 cycles
cpu0_STLB PAGE CROSSINGS (TLB HIT):         0 
cpu0_STLB PAGE CROSSINGS (TLB MISS):         0 
cpu0_STLB AVERAGE MISS LATENCY: 156.669 cycles
cpu0_L1D TOTAL       ACCESS:   49970047  HIT:   39837343  MISS:   10132704  iACCESS:          0  iHIT:          0  iMISS:          0  dACCESS:   49487801  dHIT:   39808962  dMISS:    9678839  itACCESS:     119902  itHIT:      13186  itMISS:     106716  dtACCESS:     362344  dtHIT:      15195  dtMISS:     347149
cpu0_L1D LOAD         ACCESS:   23864729  HIT:   18536817  MISS:    5327912  iACCESS:          0  iHIT:          0  iMISS:          0  dACCESS:   23864729  dHIT:   18536817  dMISS:    5327912  itACCESS:          0  itHIT:          0  itMISS:          0  dtACCESS:          0  dtHIT:          0  dtMISS:          0
cpu0_L1D RFO          ACCESS:          0  HIT:          0  MISS:          0  iACCESS:          0  iHIT:          0  iMISS:          0  dACCESS:          0  dHIT:          0  dMISS:          0  itACCESS:          0  itHIT:          0  itMISS:          0  dtACCESS:          0  dtHIT:          0  dtMISS:          0
cpu0_L1D PREFETCH     ACCESS:   15820008  HIT:   12044917  MISS:    3775091  iACCESS:          0  iHIT:          0  iMISS:          0  dACCESS:   15820008  dHIT:   12044917  dMISS:    3775091  itACCESS:          0  itHIT:          0  itMISS:          0  dtACCESS:          0  dtHIT:          0  dtMISS:          0
cpu0_L1D WRITE        ACCESS:    9803064  HIT:    9227228  MISS:     575836  iACCESS:          0  iHIT:          0  iMISS:          0  dACCESS:    9803064  dHIT:    9227228  dMISS:     575836  itACCESS:          0  itHIT:          0  itMISS:          0  dtACCESS:          0  dtHIT:          0  dtMISS:          0
cpu0_L1D TRANSLATION  ACCESS:     482246  HIT:      28381  MISS:     453865  iACCESS:          0  iHIT:          0  iMISS:          0  dACCESS:          0  dHIT:          0  dMISS:          0  itACCESS:     119902  itHIT:      13186  itMISS:     106716  dtACCESS:     362344  dtHIT:      15195  dtMISS:     347149
cpu0_L1D PREFETCH  REQUESTED:   23864729  ISSUED:   19087660  CROSSED:          0  USEFUL:     332678  USELESS:    1046011
cpu0_L1D AVERAGE iMISS LATENCY: 0 cycles
cpu0_L1D AVERAGE dMISS LATENCY: 30.3136 cycles
cpu0_L1D AVERAGE itMISS LATENCY: 1.18626 cycles
cpu0_L1D AVERAGE dtMISS LATENCY: 3.38989 cycles
cpu0_L1D PAGE CROSSINGS (TLB HIT):         0 
cpu0_L1D PAGE CROSSINGS (TLB MISS):         0 
cpu0_L1D AVERAGE MISS LATENCY: 34.8898 cycles
cpu0_L2C TOTAL       ACCESS:    9781123  HIT:    1912548  MISS:    7868575  iACCESS:    3386773  iHIT:     703368  iMISS:    2683405  dACCESS:    5971388  dHIT:    1043594  dMISS:    4927794  itACCESS:     106067  itHIT:      36274  itMISS:      69793  dtACCESS:     316895  dtHIT:     129312  dtMISS:     187583
cpu0_L2C LOAD         ACCESS:    3601414  HIT:     633109  MISS:    2968305  iACCESS:     743011  iHIT:      98804  iMISS:     644207  dACCESS:    2858403  dHIT:     534305  dMISS:    2324098  itACCESS:          0  itHIT:          0  itMISS:          0  dtACCESS:          0  dtHIT:          0  dtMISS:          0
cpu0_L2C RFO          ACCESS:     228819  HIT:      45566  MISS:     183253  iACCESS:          0  iHIT:          0  iMISS:          0  dACCESS:     228819  dHIT:      45566  dMISS:     183253  itACCESS:          0  itHIT:          0  itMISS:          0  dtACCESS:          0  dtHIT:          0  dtMISS:          0
cpu0_L2C PREFETCH     ACCESS:    5209251  HIT:     970225  MISS:    4239026  iACCESS:    2643762  iHIT:     604564  iMISS:    2039198  dACCESS:    2565489  dHIT:     365661  dMISS:    2199828  itACCESS:          0  itHIT:          0  itMISS:          0  dtACCESS:          0  dtHIT:          0  dtMISS:          0
cpu0_L2C WRITE        ACCESS:     318677  HIT:      98062  MISS:     220615  iACCESS:          0  iHIT:          0  iMISS:          0  dACCESS:     318677  dHIT:      98062  dMISS:     220615  itACCESS:          0  itHIT:          0  itMISS:          0  dtACCESS:          0  dtHIT:          0  dtMISS:          0
cpu0_L2C TRANSLATION  ACCESS:     422962  HIT:     165586  MISS:     257376  iACCESS:          0  iHIT:          0  iMISS:          0  dACCESS:          0  dHIT:          0  dMISS:          0  itACCESS:     106067  itHIT:      36274  itMISS:      69793  dtACCESS:     316895  dtHIT:     129312  dtMISS:     187583
cpu0_L2C PREFETCH  REQUESTED:    1395614  ISSUED:    1395612  CROSSED:          0  USEFUL:     370940  USELESS:     449989
cpu0_L2C AVERAGE iMISS LATENCY: 22.3213 cycles
cpu0_L2C AVERAGE dMISS LATENCY: 44.2918 cycles
cpu0_L2C AVERAGE itMISS LATENCY: 1.39708 cycles
cpu0_L2C AVERAGE dtMISS LATENCY: 3.97733 cycles
cpu0_L2C PAGE CROSSINGS (TLB HIT):         0 
cpu0_L2C PAGE CROSSINGS (TLB MISS):         0 
cpu0_L2C AVERAGE MISS LATENCY: 71.9875 cycles
LLC TOTAL       ACCESS:    7674932  HIT:    5195655  MISS:    2479277  iACCESS:    2600087  iHIT:    1797496  iMISS:     802591  dACCESS:    4817469  dHIT:    3337887  dMISS:    1479582  itACCESS:      69793  itHIT:      15836  itMISS:      53957  dtACCESS:     187583  dtHIT:      44436  dtMISS:     143147
LLC LOAD         ACCESS:    2961069  HIT:    2371114  MISS:     589955  iACCESS:     643059  iHIT:     476056  iMISS:     167003  dACCESS:    2318010  dHIT:    1895058  dMISS:     422952  itACCESS:          0  itHIT:          0  itMISS:          0  dtACCESS:          0  dtHIT:          0  dtMISS:          0
LLC RFO          ACCESS:     183217  HIT:      99907  MISS:      83310  iACCESS:          0  iHIT:          0  iMISS:          0  dACCESS:     183217  dHIT:      99907  dMISS:      83310  itACCESS:          0  itHIT:          0  itMISS:          0  dtACCESS:          0  dtHIT:          0  dtMISS:          0
LLC PREFETCH     ACCESS:    4023619  HIT:    2420128  MISS:    1603491  iACCESS:    1957028  iHIT:    1321440  iMISS:     635588  dACCESS:    2066591  dHIT:    1098688  dMISS:     967903  itACCESS:          0  itHIT:          0  itMISS:          0  dtACCESS:          0  dtHIT:          0  dtMISS:          0
LLC WRITE        ACCESS:     249651  HIT:     244234  MISS:       5417  iACCESS:          0  iHIT:          0  iMISS:          0  dACCESS:     249651  dHIT:     244234  dMISS:       5417  itACCESS:          0  itHIT:          0  itMISS:          0  dtACCESS:          0  dtHIT:          0  dtMISS:          0
LLC TRANSLATION  ACCESS:     257376  HIT:      60272  MISS:     197104  iACCESS:          0  iHIT:          0  iMISS:          0  dACCESS:          0  dHIT:          0  dMISS:          0  itACCESS:      69793  itHIT:      15836  itMISS:      53957  dtACCESS:     187583  dtHIT:      44436  dtMISS:     143147
LLC PREFETCH  REQUESTED:          0  ISSUED:          0  CROSSED:          0  USEFUL:          0  USELESS:          0
LLC AVERAGE iMISS LATENCY: 50.4745 cycles
LLC AVERAGE dMISS LATENCY: 105.593 cycles
LLC AVERAGE itMISS LATENCY: 3.8792 cycles
LLC AVERAGE dtMISS LATENCY: 11.1337 cycles
LLC PAGE CROSSINGS (TLB HIT):         0 
LLC PAGE CROSSINGS (TLB MISS):         0 
LLC AVERAGE MISS LATENCY: 171.08 cycles

PageTableWalker TOTAL       ACCESS:     186973  
PageTableWalker AVERAGE LATENCY: 5.87117 cycles
PageTableWalker TOTAL LATENCY: 1097750 cycles

DRAM Statistics
Channel 0
 RQ ROW_BUFFER_HIT:     572952
  ROW_BUFFER_MISS:    1884228
 AVG DBUS CONGESTED CYCLE:    3.65562
 WQ ROW_BUFFER_HIT:      59022
  ROW_BUFFER_MISS:      54613  FULL:          0

