last_page:0x200000000000000
VMEM_RES_CAP:0x100000
PAGE_SIZE:4096
LOG2_PAGE_SIZE:12
LOG2_PAGE_TABLE_SIZE:9
page_table_levels:5
WARNING: physical memory size is smaller than virtual memory size
FDiP enabled with aggresivity 16

*** ChampSim Multicore Out-of-Order Simulator ***

Warmup Instructions: 50000000
Simulation Instructions: 100000000
Number of CPUs: 1
Small page size: 4096
Large page size: 2097152

CPU 0 Bimodal branch predictor
Basic BTB sets: 1024 ways: 8 indirect buffer size: 4096 RAS size: 64
Instruction page size distrubution: 0
Loading instruction page size distribution from /home/bsc/bsc018186/scratch/itp_asplos25_AE/dump/smt_srv85_ap_srv259_ap_1024i.pdst
Data page size distrubution: 0
Loading data page size distribution from /home/bsc/bsc018186/scratch/itp_asplos25_AE/dump/smt_srv85_ap_srv259_ap_1024i.pdst
cpu0_L2C IP-based stride prefetcher
cpu0_L2C is using xPTP/LRU
	TLB_LOWER_STRESS_THRESHOLD:1
	TLB_UPPER_STRESS_THRESHOLD:4
	MIN_EVICTION_POSITION:4
cpu0_L1D next line prefetcher
cpu0_STLB using iTP with max lru@8
cpu0_STLB using iTP with instr@0 and data@2
Init sat counter with 3 bits (max:50).
cpu0_L1I next line prefetcher
Off-chip DRAM Size: 4 GiB Channels: 1 Width: 64-bit Data Rate: 3200 MT/s
Heartbeat CPU 0 instructions: 10000000 cycles: 2500317 heartbeat IPC: 3.9995 cumulative IPC: 3.9995 (Simulation time: 0 hr 0 min 37 sec) 
Heartbeat CPU 0 instructions: 20000002 cycles: 5000490 heartbeat IPC: 3.99973 cumulative IPC: 3.99961 (Simulation time: 0 hr 1 min 16 sec) 
Heartbeat CPU 0 instructions: 30000001 cycles: 7500564 heartbeat IPC: 3.99989 cumulative IPC: 3.9997 (Simulation time: 0 hr 1 min 55 sec) 
Heartbeat CPU 0 instructions: 40000000 cycles: 10000815 heartbeat IPC: 3.9996 cumulative IPC: 3.99968 (Simulation time: 0 hr 2 min 35 sec) 
Heartbeat CPU 0 instructions: 50000003 cycles: 12501024 heartbeat IPC: 3.99967 cumulative IPC: 3.99968 (Simulation time: 0 hr 3 min 14 sec) 
Warmup finished CPU 0 instructions: 50000003 cycles: 12501025 cumulative IPC: 3.99968 (Simulation time: 0 hr 3 min 14 sec) 

Warmup complete CPU 0 instructions: 50000003 cycles: 12501025 (Simulation time: 0 hr 3 min 14 sec) 

Heartbeat CPU 0 instructions: 60000000 cycles: 37154718 heartbeat IPC: 0.405619 cumulative IPC: 0.405619 (Simulation time: 0 hr 4 min 31 sec) 
Heartbeat CPU 0 instructions: 70000002 cycles: 63243309 heartbeat IPC: 0.38331 cumulative IPC: 0.394149 (Simulation time: 0 hr 5 min 50 sec) 
Heartbeat CPU 0 instructions: 80000002 cycles: 88858425 heartbeat IPC: 0.390395 cumulative IPC: 0.39289 (Simulation time: 0 hr 7 min 8 sec) 
Heartbeat CPU 0 instructions: 90000002 cycles: 113844837 heartbeat IPC: 0.400218 cumulative IPC: 0.394697 (Simulation time: 0 hr 8 min 25 sec) 
Heartbeat CPU 0 instructions: 100000000 cycles: 139545413 heartbeat IPC: 0.389097 cumulative IPC: 0.393564 (Simulation time: 0 hr 9 min 43 sec) 
Heartbeat CPU 0 instructions: 110000002 cycles: 164626650 heartbeat IPC: 0.398705 cumulative IPC: 0.394411 (Simulation time: 0 hr 11 min 1 sec) 
Heartbeat CPU 0 instructions: 120000001 cycles: 189633557 heartbeat IPC: 0.39989 cumulative IPC: 0.395185 (Simulation time: 0 hr 12 min 19 sec) 
Heartbeat CPU 0 instructions: 130000002 cycles: 216199730 heartbeat IPC: 0.376419 cumulative IPC: 0.392737 (Simulation time: 0 hr 13 min 39 sec) 
Heartbeat CPU 0 instructions: 140000004 cycles: 240669449 heartbeat IPC: 0.408669 cumulative IPC: 0.394446 (Simulation time: 0 hr 14 min 56 sec) 
Heartbeat CPU 0 instructions: 150000000 cycles: 266653025 heartbeat IPC: 0.384859 cumulative IPC: 0.393466 (Simulation time: 0 hr 16 min 14 sec) 
Simulation finished CPU 0 instructions: 100000002 cycles: 254152002 cumulative IPC: 0.393466 (Simulation time: 0 hr 16 min 14 sec) 

Simulation complete CPU 0 instructions: 100000002 cycles: 254152002 (Simulation time: 0 hr 16 min 14 sec) 


ChampSim completed all CPUs

Saving instructions large page distribution to /home/bsc/bsc018186/scratch/itp_asplos25_AE/dump/smt_srv85_ap_srv259_ap_1024i.pdst...
Saving data large page distribution to /home/bsc/bsc018186/scratch/itp_asplos25_AE/dump/smt_srv85_ap_srv259_ap_1024i.pdst...
=== Simulation ===
CPU 0 runs /gpfs/projects/bsc18/MN4/bsc18/romol/ChampSim/traces/qualcomm_srv/smt_srv85_ap_srv259_ap_1024i.champsimtrace.xz

Region of Interest Statistics

CPU 0 cumulative IPC: 0.393466 instructions: 100000002 cycles: 254152002
CPU 0 Branch Prediction Accuracy: 76.3208% MPKI: 42.6441 Average ROB Occupancy at Mispredict: 11.3046
Branch type MPKI
BRANCH_DIRECT_JUMP: 1.33389
BRANCH_INDIRECT: 22.7744
BRANCH_CONDITIONAL: 11.6746
BRANCH_DIRECT_CALL: 2.44995
BRANCH_INDIRECT_CALL: 0.99181
BRANCH_RETURN: 3.41944

Instructions large pages: 0
Instructions small pages: 9620
Large page distribution for instructions: 0%

Data large pages: 0
Data small pages: 8501
Large page distribution for data: 0%

cpu0_L1I TOTAL       ACCESS:   39057609  HIT:   30054012  MISS:    9003597  iACCESS:   39057609  iHIT:   30054012  iMISS:    9003597  dACCESS:          0  dHIT:          0  dMISS:          0  itACCESS:          0  itHIT:          0  itMISS:          0  dtACCESS:          0  dtHIT:          0  dtMISS:          0
cpu0_L1I LOAD         ACCESS:   11729460  HIT:    9255790  MISS:    2473670  iACCESS:   11729460  iHIT:    9255790  iMISS:    2473670  dACCESS:          0  dHIT:          0  dMISS:          0  itACCESS:          0  itHIT:          0  itMISS:          0  dtACCESS:          0  dtHIT:          0  dtMISS:          0
cpu0_L1I RFO          ACCESS:          0  HIT:          0  MISS:          0  iACCESS:          0  iHIT:          0  iMISS:          0  dACCESS:          0  dHIT:          0  dMISS:          0  itACCESS:          0  itHIT:          0  itMISS:          0  dtACCESS:          0  dtHIT:          0  dtMISS:          0
cpu0_L1I PREFETCH     ACCESS:   27328149  HIT:   20798222  MISS:    6529927  iACCESS:   27328149  iHIT:   20798222  iMISS:    6529927  dACCESS:          0  dHIT:          0  dMISS:          0  itACCESS:          0  itHIT:          0  itMISS:          0  dtACCESS:          0  dtHIT:          0  dtMISS:          0
cpu0_L1I WRITE        ACCESS:          0  HIT:          0  MISS:          0  iACCESS:          0  iHIT:          0  iMISS:          0  dACCESS:          0  dHIT:          0  dMISS:          0  itACCESS:          0  itHIT:          0  itMISS:          0  dtACCESS:          0  dtHIT:          0  dtMISS:          0
cpu0_L1I TRANSLATION  ACCESS:          0  HIT:          0  MISS:          0  iACCESS:          0  iHIT:          0  iMISS:          0  dACCESS:          0  dHIT:          0  dMISS:          0  itACCESS:          0  itHIT:          0  itMISS:          0  dtACCESS:          0  dtHIT:          0  dtMISS:          0
cpu0_L1I PREFETCH  REQUESTED:   30108693  ISSUED:   30108268  CROSSED:          0  USEFUL:    2207817  USELESS:     765795
cpu0_L1I AVERAGE iMISS LATENCY: 19.5596 cycles
cpu0_L1I AVERAGE dMISS LATENCY: 0 cycles
cpu0_L1I AVERAGE itMISS LATENCY: 0 cycles
cpu0_L1I AVERAGE dtMISS LATENCY: 0 cycles
cpu0_L1I PAGE CROSSINGS (TLB HIT):         0 
cpu0_L1I PAGE CROSSINGS (TLB MISS):         0 
cpu0_L1I AVERAGE MISS LATENCY: 19.5596 cycles
cpu0_ITLB TOTAL       ACCESS:   32875781  HIT:   30620988  MISS:    2254793  iACCESS:   32875781  iHIT:   30620988  iMISS:    2254793  dACCESS:          0  dHIT:          0  dMISS:          0  itACCESS:          0  itHIT:          0  itMISS:          0  dtACCESS:          0  dtHIT:          0  dtMISS:          0
cpu0_ITLB LOAD         ACCESS:   32875781  HIT:   30620988  MISS:    2254793  iACCESS:   32875781  iHIT:   30620988  iMISS:    2254793  dACCESS:          0  dHIT:          0  dMISS:          0  itACCESS:          0  itHIT:          0  itMISS:          0  dtACCESS:          0  dtHIT:          0  dtMISS:          0
cpu0_ITLB RFO          ACCESS:          0  HIT:          0  MISS:          0  iACCESS:          0  iHIT:          0  iMISS:          0  dACCESS:          0  dHIT:          0  dMISS:          0  itACCESS:          0  itHIT:          0  itMISS:          0  dtACCESS:          0  dtHIT:          0  dtMISS:          0
cpu0_ITLB PREFETCH     ACCESS:          0  HIT:          0  MISS:          0  iACCESS:          0  iHIT:          0  iMISS:          0  dACCESS:          0  dHIT:          0  dMISS:          0  itACCESS:          0  itHIT:          0  itMISS:          0  dtACCESS:          0  dtHIT:          0  dtMISS:          0
cpu0_ITLB WRITE        ACCESS:          0  HIT:          0  MISS:          0  iACCESS:          0  iHIT:          0  iMISS:          0  dACCESS:          0  dHIT:          0  dMISS:          0  itACCESS:          0  itHIT:          0  itMISS:          0  dtACCESS:          0  dtHIT:          0  dtMISS:          0
cpu0_ITLB TRANSLATION  ACCESS:          0  HIT:          0  MISS:          0  iACCESS:          0  iHIT:          0  iMISS:          0  dACCESS:          0  dHIT:          0  dMISS:          0  itACCESS:          0  itHIT:          0  itMISS:          0  dtACCESS:          0  dtHIT:          0  dtMISS:          0
cpu0_ITLB PREFETCH  REQUESTED:          0  ISSUED:          0  CROSSED:          0  USEFUL:     386451  USELESS:      81990
cpu0_ITLB AVERAGE iMISS LATENCY: 4.87024 cycles
cpu0_ITLB AVERAGE dMISS LATENCY: 0 cycles
cpu0_ITLB AVERAGE itMISS LATENCY: 0 cycles
cpu0_ITLB AVERAGE dtMISS LATENCY: 0 cycles
cpu0_ITLB PAGE CROSSINGS (TLB HIT):         0 
cpu0_ITLB PAGE CROSSINGS (TLB MISS):         0 
cpu0_ITLB AVERAGE MISS LATENCY: 4.87024 cycles
cpu0_DTLB TOTAL       ACCESS:   28813949  HIT:   25145534  MISS:    3668415  iACCESS:          0  iHIT:          0  iMISS:          0  dACCESS:   28813949  dHIT:   25145534  dMISS:    3668415  itACCESS:          0  itHIT:          0  itMISS:          0  dtACCESS:          0  dtHIT:          0  dtMISS:          0
cpu0_DTLB LOAD         ACCESS:   28813949  HIT:   25145534  MISS:    3668415  iACCESS:          0  iHIT:          0  iMISS:          0  dACCESS:   28813949  dHIT:   25145534  dMISS:    3668415  itACCESS:          0  itHIT:          0  itMISS:          0  dtACCESS:          0  dtHIT:          0  dtMISS:          0
cpu0_DTLB RFO          ACCESS:          0  HIT:          0  MISS:          0  iACCESS:          0  iHIT:          0  iMISS:          0  dACCESS:          0  dHIT:          0  dMISS:          0  itACCESS:          0  itHIT:          0  itMISS:          0  dtACCESS:          0  dtHIT:          0  dtMISS:          0
cpu0_DTLB PREFETCH     ACCESS:          0  HIT:          0  MISS:          0  iACCESS:          0  iHIT:          0  iMISS:          0  dACCESS:          0  dHIT:          0  dMISS:          0  itACCESS:          0  itHIT:          0  itMISS:          0  dtACCESS:          0  dtHIT:          0  dtMISS:          0
cpu0_DTLB WRITE        ACCESS:          0  HIT:          0  MISS:          0  iACCESS:          0  iHIT:          0  iMISS:          0  dACCESS:          0  dHIT:          0  dMISS:          0  itACCESS:          0  itHIT:          0  itMISS:          0  dtACCESS:          0  dtHIT:          0  dtMISS:          0
cpu0_DTLB TRANSLATION  ACCESS:          0  HIT:          0  MISS:          0  iACCESS:          0  iHIT:          0  iMISS:          0  dACCESS:          0  dHIT:          0  dMISS:          0  itACCESS:          0  itHIT:          0  itMISS:          0  dtACCESS:          0  dtHIT:          0  dtMISS:          0
cpu0_DTLB PREFETCH  REQUESTED:          0  ISSUED:          0  CROSSED:          0  USEFUL:          0  USELESS:          0
cpu0_DTLB AVERAGE iMISS LATENCY: 0 cycles
cpu0_DTLB AVERAGE dMISS LATENCY: 18.3591 cycles
cpu0_DTLB AVERAGE itMISS LATENCY: 0 cycles
cpu0_DTLB AVERAGE dtMISS LATENCY: 0 cycles
cpu0_DTLB PAGE CROSSINGS (TLB HIT):         0 
cpu0_DTLB PAGE CROSSINGS (TLB MISS):         0 
cpu0_DTLB AVERAGE MISS LATENCY: 18.3591 cycles
cpu0_STLB TOTAL       ACCESS:    2599748  HIT:    2234796  MISS:     364952  iACCESS:     468447  iHIT:     422088  iMISS:      46359  dACCESS:    2131301  dHIT:    1812708  dMISS:     318593  itACCESS:          0  itHIT:          0  itMISS:          0  dtACCESS:          0  dtHIT:          0  dtMISS:          0
cpu0_STLB LOAD         ACCESS:    2599748  HIT:    2234796  MISS:     364952  iACCESS:     468447  iHIT:     422088  iMISS:      46359  dACCESS:    2131301  dHIT:    1812708  dMISS:     318593  itACCESS:          0  itHIT:          0  itMISS:          0  dtACCESS:          0  dtHIT:          0  dtMISS:          0
cpu0_STLB RFO          ACCESS:          0  HIT:          0  MISS:          0  iACCESS:          0  iHIT:          0  iMISS:          0  dACCESS:          0  dHIT:          0  dMISS:          0  itACCESS:          0  itHIT:          0  itMISS:          0  dtACCESS:          0  dtHIT:          0  dtMISS:          0
cpu0_STLB PREFETCH     ACCESS:          0  HIT:          0  MISS:          0  iACCESS:          0  iHIT:          0  iMISS:          0  dACCESS:          0  dHIT:          0  dMISS:          0  itACCESS:          0  itHIT:          0  itMISS:          0  dtACCESS:          0  dtHIT:          0  dtMISS:          0
cpu0_STLB WRITE        ACCESS:          0  HIT:          0  MISS:          0  iACCESS:          0  iHIT:          0  iMISS:          0  dACCESS:          0  dHIT:          0  dMISS:          0  itACCESS:          0  itHIT:          0  itMISS:          0  dtACCESS:          0  dtHIT:          0  dtMISS:          0
cpu0_STLB TRANSLATION  ACCESS:          0  HIT:          0  MISS:          0  iACCESS:          0  iHIT:          0  iMISS:          0  dACCESS:          0  dHIT:          0  dMISS:          0  itACCESS:          0  itHIT:          0  itMISS:          0  dtACCESS:          0  dtHIT:          0  dtMISS:          0
cpu0_STLB PREFETCH  REQUESTED:          0  ISSUED:          0  CROSSED:          0  USEFUL:          0  USELESS:          0
cpu0_STLB AVERAGE iMISS LATENCY: 20.0356 cycles
cpu0_STLB AVERAGE dMISS LATENCY: 137.453 cycles
cpu0_STLB AVERAGE itMISS LATENCY: 0 cycles
cpu0_STLB AVERAGE dtMISS LATENCY: 0 cycles
cpu0_STLB PAGE CROSSINGS (TLB HIT):         0 
cpu0_STLB PAGE CROSSINGS (TLB MISS):         0 
cpu0_STLB AVERAGE MISS LATENCY: 157.488 cycles
cpu0_L1D TOTAL       ACCESS:   44867419  HIT:   39044838  MISS:    5822581  iACCESS:          0  iHIT:          0  iMISS:          0  dACCESS:   44299766  dHIT:   39017969  dMISS:    5281797  itACCESS:      56736  itHIT:       3563  itMISS:      53173  dtACCESS:     510917  dtHIT:      23306  dtMISS:     487611
cpu0_L1D LOAD         ACCESS:   20254840  HIT:   17865148  MISS:    2389692  iACCESS:          0  iHIT:          0  iMISS:          0  dACCESS:   20254840  dHIT:   17865148  dMISS:    2389692  itACCESS:          0  itHIT:          0  itMISS:          0  dtACCESS:          0  dtHIT:          0  dtMISS:          0
cpu0_L1D RFO          ACCESS:          0  HIT:          0  MISS:          0  iACCESS:          0  iHIT:          0  iMISS:          0  dACCESS:          0  dHIT:          0  dMISS:          0  itACCESS:          0  itHIT:          0  itMISS:          0  dtACCESS:          0  dtHIT:          0  dtMISS:          0
cpu0_L1D PREFETCH     ACCESS:   13920498  HIT:   11615423  MISS:    2305075  iACCESS:          0  iHIT:          0  iMISS:          0  dACCESS:   13920498  dHIT:   11615423  dMISS:    2305075  itACCESS:          0  itHIT:          0  itMISS:          0  dtACCESS:          0  dtHIT:          0  dtMISS:          0
cpu0_L1D WRITE        ACCESS:   10124428  HIT:    9537398  MISS:     587030  iACCESS:          0  iHIT:          0  iMISS:          0  dACCESS:   10124428  dHIT:    9537398  dMISS:     587030  itACCESS:          0  itHIT:          0  itMISS:          0  dtACCESS:          0  dtHIT:          0  dtMISS:          0
cpu0_L1D TRANSLATION  ACCESS:     567653  HIT:      26869  MISS:     540784  iACCESS:          0  iHIT:          0  iMISS:          0  dACCESS:          0  dHIT:          0  dMISS:          0  itACCESS:      56736  itHIT:       3563  itMISS:      53173  dtACCESS:     510917  dtHIT:      23306  dtMISS:     487611
cpu0_L1D PREFETCH  REQUESTED:   20254840  ISSUED:   18423689  CROSSED:          0  USEFUL:     356029  USELESS:     934410
cpu0_L1D AVERAGE iMISS LATENCY: 0 cycles
cpu0_L1D AVERAGE dMISS LATENCY: 47.4019 cycles
cpu0_L1D AVERAGE itMISS LATENCY: 1.17047 cycles
cpu0_L1D AVERAGE dtMISS LATENCY: 7.77472 cycles
cpu0_L1D PAGE CROSSINGS (TLB HIT):         0 
cpu0_L1D PAGE CROSSINGS (TLB MISS):         0 
cpu0_L1D AVERAGE MISS LATENCY: 56.3471 cycles
cpu0_L2C TOTAL       ACCESS:    8630446  HIT:    2567885  MISS:    6062561  iACCESS:    3789831  iHIT:    1464107  iMISS:    2325724  dACCESS:    4331917  dHIT:     865222  dMISS:    3466695  itACCESS:      52491  itHIT:      14756  itMISS:      37735  dtACCESS:     456207  dtHIT:     223800  dtMISS:     232407
cpu0_L2C LOAD         ACCESS:    2073103  HIT:     484700  MISS:    1588403  iACCESS:     853123  iHIT:     291186  iMISS:     561937  dACCESS:    1219980  dHIT:     193514  dMISS:    1026466  itACCESS:          0  itHIT:          0  itMISS:          0  dtACCESS:          0  dtHIT:          0  dtMISS:          0
cpu0_L2C RFO          ACCESS:     215774  HIT:      32259  MISS:     183515  iACCESS:          0  iHIT:          0  iMISS:          0  dACCESS:     215774  dHIT:      32259  dMISS:     183515  itACCESS:          0  itHIT:          0  itMISS:          0  dtACCESS:          0  dtHIT:          0  dtMISS:          0
cpu0_L2C PREFETCH     ACCESS:    5490842  HIT:    1686884  MISS:    3803958  iACCESS:    2936708  iHIT:    1172921  iMISS:    1763787  dACCESS:    2554134  dHIT:     513963  dMISS:    2040171  itACCESS:          0  itHIT:          0  itMISS:          0  dtACCESS:          0  dtHIT:          0  dtMISS:          0
cpu0_L2C WRITE        ACCESS:     342029  HIT:     125486  MISS:     216543  iACCESS:          0  iHIT:          0  iMISS:          0  dACCESS:     342029  dHIT:     125486  dMISS:     216543  itACCESS:          0  itHIT:          0  itMISS:          0  dtACCESS:          0  dtHIT:          0  dtMISS:          0
cpu0_L2C TRANSLATION  ACCESS:     508698  HIT:     238556  MISS:     270142  iACCESS:          0  iHIT:          0  iMISS:          0  dACCESS:          0  dHIT:          0  dMISS:          0  itACCESS:      52491  itHIT:      14756  itMISS:      37735  dtACCESS:     456207  dtHIT:     223800  dtMISS:     232407
cpu0_L2C PREFETCH  REQUESTED:    1528674  ISSUED:    1528672  CROSSED:          0  USEFUL:     387633  USELESS:     416932
cpu0_L2C AVERAGE iMISS LATENCY: 23.561 cycles
cpu0_L2C AVERAGE dMISS LATENCY: 53.1933 cycles
cpu0_L2C AVERAGE itMISS LATENCY: 1.03971 cycles
cpu0_L2C AVERAGE dtMISS LATENCY: 6.7478 cycles
cpu0_L2C PAGE CROSSINGS (TLB HIT):         0 
cpu0_L2C PAGE CROSSINGS (TLB MISS):         0 
cpu0_L2C AVERAGE MISS LATENCY: 84.5418 cycles
LLC TOTAL       ACCESS:    5947733  HIT:    3634822  MISS:    2312911  iACCESS:    2253521  iHIT:    1626294  iMISS:     627227  dACCESS:    3424070  dHIT:    1961858  dMISS:    1462212  itACCESS:      37735  itHIT:       6383  itMISS:      31352  dtACCESS:     232407  dtHIT:      40287  dtMISS:     192120
LLC LOAD         ACCESS:    1580528  HIT:     990134  MISS:     590394  iACCESS:     560627  iHIT:     427436  iMISS:     133191  dACCESS:    1019901  dHIT:     562698  dMISS:     457203  itACCESS:          0  itHIT:          0  itMISS:          0  dtACCESS:          0  dtHIT:          0  dtMISS:          0
LLC RFO          ACCESS:     183490  HIT:      95054  MISS:      88436  iACCESS:          0  iHIT:          0  iMISS:          0  dACCESS:     183490  dHIT:      95054  dMISS:      88436  itACCESS:          0  itHIT:          0  itMISS:          0  dtACCESS:          0  dtHIT:          0  dtMISS:          0
LLC PREFETCH     ACCESS:    3637130  HIT:    2231330  MISS:    1405800  iACCESS:    1692894  iHIT:    1198858  iMISS:     494036  dACCESS:    1944236  dHIT:    1032472  dMISS:     911764  itACCESS:          0  itHIT:          0  itMISS:          0  dtACCESS:          0  dtHIT:          0  dtMISS:          0
LLC WRITE        ACCESS:     276443  HIT:     271634  MISS:       4809  iACCESS:          0  iHIT:          0  iMISS:          0  dACCESS:     276443  dHIT:     271634  dMISS:       4809  itACCESS:          0  itHIT:          0  itMISS:          0  dtACCESS:          0  dtHIT:          0  dtMISS:          0
LLC TRANSLATION  ACCESS:     270142  HIT:      46670  MISS:     223472  iACCESS:          0  iHIT:          0  iMISS:          0  dACCESS:          0  dHIT:          0  dMISS:          0  itACCESS:      37735  itHIT:       6383  itMISS:      31352  dtACCESS:     232407  dtHIT:      40287  dtMISS:     192120
LLC PREFETCH  REQUESTED:          0  ISSUED:          0  CROSSED:          0  USEFUL:          0  USELESS:          0
LLC AVERAGE iMISS LATENCY: 42.8546 cycles
LLC AVERAGE dMISS LATENCY: 113.988 cycles
LLC AVERAGE itMISS LATENCY: 2.40293 cycles
LLC AVERAGE dtMISS LATENCY: 15.7023 cycles
LLC PAGE CROSSINGS (TLB HIT):         0 
LLC PAGE CROSSINGS (TLB MISS):         0 
LLC AVERAGE MISS LATENCY: 174.948 cycles

PageTableWalker TOTAL       ACCESS:     181445  
PageTableWalker AVERAGE LATENCY: 5.94291 cycles
PageTableWalker TOTAL LATENCY: 1078310 cycles

DRAM Statistics
Channel 0
 RQ ROW_BUFFER_HIT:     474761
  ROW_BUFFER_MISS:    1814032
 AVG DBUS CONGESTED CYCLE:    3.65006
 WQ ROW_BUFFER_HIT:      63591
  ROW_BUFFER_MISS:      65331  FULL:          0

