last_page:0x200000000000000
VMEM_RES_CAP:0x100000
PAGE_SIZE:4096
LOG2_PAGE_SIZE:12
LOG2_PAGE_TABLE_SIZE:9
page_table_levels:5
WARNING: physical memory size is smaller than virtual memory size
FDiP enabled with aggresivity 16

*** ChampSim Multicore Out-of-Order Simulator ***

Warmup Instructions: 50000000
Simulation Instructions: 100000000
Number of CPUs: 1
Small page size: 4096
Large page size: 2097152

CPU 0 Bimodal branch predictor
Basic BTB sets: 1024 ways: 8 indirect buffer size: 4096 RAS size: 64
Instruction page size distrubution: 0
Loading instruction page size distribution from /home/bsc/bsc018186/scratch/itp_asplos25_AE/dump/smt_srv540_ap_srv551_ap_1024i.pdst
Data page size distrubution: 0
Loading data page size distribution from /home/bsc/bsc018186/scratch/itp_asplos25_AE/dump/smt_srv540_ap_srv551_ap_1024i.pdst
cpu0_L2C IP-based stride prefetcher
cpu0_L1D next line prefetcher
cpu0_L1I next line prefetcher
Off-chip DRAM Size: 4 GiB Channels: 1 Width: 64-bit Data Rate: 3200 MT/s
Heartbeat CPU 0 instructions: 10000000 cycles: 2500464 heartbeat IPC: 3.99926 cumulative IPC: 3.99926 (Simulation time: 0 hr 0 min 46 sec) 
Heartbeat CPU 0 instructions: 20000001 cycles: 5000777 heartbeat IPC: 3.9995 cumulative IPC: 3.99938 (Simulation time: 0 hr 1 min 34 sec) 
Heartbeat CPU 0 instructions: 30000000 cycles: 7501078 heartbeat IPC: 3.99952 cumulative IPC: 3.99943 (Simulation time: 0 hr 2 min 18 sec) 
Heartbeat CPU 0 instructions: 40000003 cycles: 10001377 heartbeat IPC: 3.99953 cumulative IPC: 3.99945 (Simulation time: 0 hr 3 min 6 sec) 
Heartbeat CPU 0 instructions: 50000002 cycles: 12501793 heartbeat IPC: 3.99934 cumulative IPC: 3.99943 (Simulation time: 0 hr 3 min 55 sec) 
Warmup finished CPU 0 instructions: 50000002 cycles: 12501794 cumulative IPC: 3.99943 (Simulation time: 0 hr 3 min 55 sec) 

Warmup complete CPU 0 instructions: 50000002 cycles: 12501794 (Simulation time: 0 hr 3 min 55 sec) 

Heartbeat CPU 0 instructions: 60000000 cycles: 42808607 heartbeat IPC: 0.329959 cumulative IPC: 0.329959 (Simulation time: 0 hr 5 min 36 sec) 
Heartbeat CPU 0 instructions: 70000000 cycles: 73591077 heartbeat IPC: 0.324861 cumulative IPC: 0.32739 (Simulation time: 0 hr 7 min 14 sec) 
Heartbeat CPU 0 instructions: 80000000 cycles: 104049084 heartbeat IPC: 0.328321 cumulative IPC: 0.3277 (Simulation time: 0 hr 8 min 56 sec) 
Heartbeat CPU 0 instructions: 90000000 cycles: 134189586 heartbeat IPC: 0.33178 cumulative IPC: 0.328711 (Simulation time: 0 hr 10 min 35 sec) 
Heartbeat CPU 0 instructions: 100000003 cycles: 165480939 heartbeat IPC: 0.319578 cumulative IPC: 0.326842 (Simulation time: 0 hr 12 min 15 sec) 
Heartbeat CPU 0 instructions: 110000000 cycles: 194365782 heartbeat IPC: 0.346203 cumulative IPC: 0.329917 (Simulation time: 0 hr 13 min 51 sec) 
Heartbeat CPU 0 instructions: 120000000 cycles: 220539149 heartbeat IPC: 0.382068 cumulative IPC: 0.336479 (Simulation time: 0 hr 15 min 18 sec) 
Heartbeat CPU 0 instructions: 130000000 cycles: 237255715 heartbeat IPC: 0.598209 cumulative IPC: 0.355945 (Simulation time: 0 hr 16 min 35 sec) 
Heartbeat CPU 0 instructions: 140000002 cycles: 254831469 heartbeat IPC: 0.568966 cumulative IPC: 0.371395 (Simulation time: 0 hr 17 min 54 sec) 
Heartbeat CPU 0 instructions: 150000001 cycles: 285592610 heartbeat IPC: 0.325086 cumulative IPC: 0.366179 (Simulation time: 0 hr 19 min 25 sec) 
Simulation finished CPU 0 instructions: 100000004 cycles: 273090818 cumulative IPC: 0.366179 (Simulation time: 0 hr 19 min 25 sec) 

Simulation complete CPU 0 instructions: 100000004 cycles: 273090818 (Simulation time: 0 hr 19 min 25 sec) 


ChampSim completed all CPUs

Saving instructions large page distribution to /home/bsc/bsc018186/scratch/itp_asplos25_AE/dump/smt_srv540_ap_srv551_ap_1024i.pdst...
Saving data large page distribution to /home/bsc/bsc018186/scratch/itp_asplos25_AE/dump/smt_srv540_ap_srv551_ap_1024i.pdst...
=== Simulation ===
CPU 0 runs /gpfs/projects/bsc18/MN4/bsc18/romol/ChampSim/traces/qualcomm_srv/smt_srv540_ap_srv551_ap_1024i.champsimtrace.xz

Region of Interest Statistics

CPU 0 cumulative IPC: 0.366179 instructions: 100000004 cycles: 273090818
CPU 0 Branch Prediction Accuracy: 77.9969% MPKI: 42.4508 Average ROB Occupancy at Mispredict: 11.2989
Branch type MPKI
BRANCH_DIRECT_JUMP: 1.23399
BRANCH_INDIRECT: 22.826
BRANCH_CONDITIONAL: 11.6402
BRANCH_DIRECT_CALL: 2.36679
BRANCH_INDIRECT_CALL: 1.07038
BRANCH_RETURN: 3.31346

Instructions large pages: 0
Instructions small pages: 10131
Large page distribution for instructions: 0%

Data large pages: 0
Data small pages: 8688
Large page distribution for data: 0%

cpu0_L1I TOTAL       ACCESS:   39683003  HIT:   32018457  MISS:    7664546  iACCESS:   39683003  iHIT:   32018457  iMISS:    7664546  dACCESS:          0  dHIT:          0  dMISS:          0  itACCESS:          0  itHIT:          0  itMISS:          0  dtACCESS:          0  dtHIT:          0  dtMISS:          0
cpu0_L1I LOAD         ACCESS:   11328288  HIT:    9243987  MISS:    2084301  iACCESS:   11328288  iHIT:    9243987  iMISS:    2084301  dACCESS:          0  dHIT:          0  dMISS:          0  itACCESS:          0  itHIT:          0  itMISS:          0  dtACCESS:          0  dtHIT:          0  dtMISS:          0
cpu0_L1I RFO          ACCESS:          0  HIT:          0  MISS:          0  iACCESS:          0  iHIT:          0  iMISS:          0  dACCESS:          0  dHIT:          0  dMISS:          0  itACCESS:          0  itHIT:          0  itMISS:          0  dtACCESS:          0  dtHIT:          0  dtMISS:          0
cpu0_L1I PREFETCH     ACCESS:   28354715  HIT:   22774470  MISS:    5580245  iACCESS:   28354715  iHIT:   22774470  iMISS:    5580245  dACCESS:          0  dHIT:          0  dMISS:          0  itACCESS:          0  itHIT:          0  itMISS:          0  dtACCESS:          0  dtHIT:          0  dtMISS:          0
cpu0_L1I WRITE        ACCESS:          0  HIT:          0  MISS:          0  iACCESS:          0  iHIT:          0  iMISS:          0  dACCESS:          0  dHIT:          0  dMISS:          0  itACCESS:          0  itHIT:          0  itMISS:          0  dtACCESS:          0  dtHIT:          0  dtMISS:          0
cpu0_L1I TRANSLATION  ACCESS:          0  HIT:          0  MISS:          0  iACCESS:          0  iHIT:          0  iMISS:          0  dACCESS:          0  dHIT:          0  dMISS:          0  itACCESS:          0  itHIT:          0  itMISS:          0  dtACCESS:          0  dtHIT:          0  dtMISS:          0
cpu0_L1I PREFETCH  REQUESTED:   31039039  ISSUED:   31039033  CROSSED:          0  USEFUL:    1958146  USELESS:     678864
cpu0_L1I AVERAGE iMISS LATENCY: 24.2865 cycles
cpu0_L1I AVERAGE dMISS LATENCY: 0 cycles
cpu0_L1I AVERAGE itMISS LATENCY: 0 cycles
cpu0_L1I AVERAGE dtMISS LATENCY: 0 cycles
cpu0_L1I PAGE CROSSINGS (TLB HIT):         0 
cpu0_L1I PAGE CROSSINGS (TLB MISS):         0 
cpu0_L1I AVERAGE MISS LATENCY: 24.2865 cycles
cpu0_ITLB TOTAL       ACCESS:   33394828  HIT:   31420826  MISS:    1974002  iACCESS:   33394828  iHIT:   31420826  iMISS:    1974002  dACCESS:          0  dHIT:          0  dMISS:          0  itACCESS:          0  itHIT:          0  itMISS:          0  dtACCESS:          0  dtHIT:          0  dtMISS:          0
cpu0_ITLB LOAD         ACCESS:   33394828  HIT:   31420826  MISS:    1974002  iACCESS:   33394828  iHIT:   31420826  iMISS:    1974002  dACCESS:          0  dHIT:          0  dMISS:          0  itACCESS:          0  itHIT:          0  itMISS:          0  dtACCESS:          0  dtHIT:          0  dtMISS:          0
cpu0_ITLB RFO          ACCESS:          0  HIT:          0  MISS:          0  iACCESS:          0  iHIT:          0  iMISS:          0  dACCESS:          0  dHIT:          0  dMISS:          0  itACCESS:          0  itHIT:          0  itMISS:          0  dtACCESS:          0  dtHIT:          0  dtMISS:          0
cpu0_ITLB PREFETCH     ACCESS:          0  HIT:          0  MISS:          0  iACCESS:          0  iHIT:          0  iMISS:          0  dACCESS:          0  dHIT:          0  dMISS:          0  itACCESS:          0  itHIT:          0  itMISS:          0  dtACCESS:          0  dtHIT:          0  dtMISS:          0
cpu0_ITLB WRITE        ACCESS:          0  HIT:          0  MISS:          0  iACCESS:          0  iHIT:          0  iMISS:          0  dACCESS:          0  dHIT:          0  dMISS:          0  itACCESS:          0  itHIT:          0  itMISS:          0  dtACCESS:          0  dtHIT:          0  dtMISS:          0
cpu0_ITLB TRANSLATION  ACCESS:          0  HIT:          0  MISS:          0  iACCESS:          0  iHIT:          0  iMISS:          0  dACCESS:          0  dHIT:          0  dMISS:          0  itACCESS:          0  itHIT:          0  itMISS:          0  dtACCESS:          0  dtHIT:          0  dtMISS:          0
cpu0_ITLB PREFETCH  REQUESTED:          0  ISSUED:          0  CROSSED:          0  USEFUL:     345182  USELESS:      70992
cpu0_ITLB AVERAGE iMISS LATENCY: 10.4023 cycles
cpu0_ITLB AVERAGE dMISS LATENCY: 0 cycles
cpu0_ITLB AVERAGE itMISS LATENCY: 0 cycles
cpu0_ITLB AVERAGE dtMISS LATENCY: 0 cycles
cpu0_ITLB PAGE CROSSINGS (TLB HIT):         0 
cpu0_ITLB PAGE CROSSINGS (TLB MISS):         0 
cpu0_ITLB AVERAGE MISS LATENCY: 10.4023 cycles
cpu0_DTLB TOTAL       ACCESS:   30723097  HIT:   24568616  MISS:    6154481  iACCESS:          0  iHIT:          0  iMISS:          0  dACCESS:   30723097  dHIT:   24568616  dMISS:    6154481  itACCESS:          0  itHIT:          0  itMISS:          0  dtACCESS:          0  dtHIT:          0  dtMISS:          0
cpu0_DTLB LOAD         ACCESS:   30723097  HIT:   24568616  MISS:    6154481  iACCESS:          0  iHIT:          0  iMISS:          0  dACCESS:   30723097  dHIT:   24568616  dMISS:    6154481  itACCESS:          0  itHIT:          0  itMISS:          0  dtACCESS:          0  dtHIT:          0  dtMISS:          0
cpu0_DTLB RFO          ACCESS:          0  HIT:          0  MISS:          0  iACCESS:          0  iHIT:          0  iMISS:          0  dACCESS:          0  dHIT:          0  dMISS:          0  itACCESS:          0  itHIT:          0  itMISS:          0  dtACCESS:          0  dtHIT:          0  dtMISS:          0
cpu0_DTLB PREFETCH     ACCESS:          0  HIT:          0  MISS:          0  iACCESS:          0  iHIT:          0  iMISS:          0  dACCESS:          0  dHIT:          0  dMISS:          0  itACCESS:          0  itHIT:          0  itMISS:          0  dtACCESS:          0  dtHIT:          0  dtMISS:          0
cpu0_DTLB WRITE        ACCESS:          0  HIT:          0  MISS:          0  iACCESS:          0  iHIT:          0  iMISS:          0  dACCESS:          0  dHIT:          0  dMISS:          0  itACCESS:          0  itHIT:          0  itMISS:          0  dtACCESS:          0  dtHIT:          0  dtMISS:          0
cpu0_DTLB TRANSLATION  ACCESS:          0  HIT:          0  MISS:          0  iACCESS:          0  iHIT:          0  iMISS:          0  dACCESS:          0  dHIT:          0  dMISS:          0  itACCESS:          0  itHIT:          0  itMISS:          0  dtACCESS:          0  dtHIT:          0  dtMISS:          0
cpu0_DTLB PREFETCH  REQUESTED:          0  ISSUED:          0  CROSSED:          0  USEFUL:          0  USELESS:          0
cpu0_DTLB AVERAGE iMISS LATENCY: 0 cycles
cpu0_DTLB AVERAGE dMISS LATENCY: 14.3413 cycles
cpu0_DTLB AVERAGE itMISS LATENCY: 0 cycles
cpu0_DTLB AVERAGE dtMISS LATENCY: 0 cycles
cpu0_DTLB PAGE CROSSINGS (TLB HIT):         0 
cpu0_DTLB PAGE CROSSINGS (TLB MISS):         0 
cpu0_DTLB AVERAGE MISS LATENCY: 14.3413 cycles
cpu0_STLB TOTAL       ACCESS:    3671059  HIT:    3342358  MISS:     328701  iACCESS:     416180  iHIT:     312531  iMISS:     103649  dACCESS:    3254879  dHIT:    3029827  dMISS:     225052  itACCESS:          0  itHIT:          0  itMISS:          0  dtACCESS:          0  dtHIT:          0  dtMISS:          0
cpu0_STLB LOAD         ACCESS:    3671059  HIT:    3342358  MISS:     328701  iACCESS:     416180  iHIT:     312531  iMISS:     103649  dACCESS:    3254879  dHIT:    3029827  dMISS:     225052  itACCESS:          0  itHIT:          0  itMISS:          0  dtACCESS:          0  dtHIT:          0  dtMISS:          0
cpu0_STLB RFO          ACCESS:          0  HIT:          0  MISS:          0  iACCESS:          0  iHIT:          0  iMISS:          0  dACCESS:          0  dHIT:          0  dMISS:          0  itACCESS:          0  itHIT:          0  itMISS:          0  dtACCESS:          0  dtHIT:          0  dtMISS:          0
cpu0_STLB PREFETCH     ACCESS:          0  HIT:          0  MISS:          0  iACCESS:          0  iHIT:          0  iMISS:          0  dACCESS:          0  dHIT:          0  dMISS:          0  itACCESS:          0  itHIT:          0  itMISS:          0  dtACCESS:          0  dtHIT:          0  dtMISS:          0
cpu0_STLB WRITE        ACCESS:          0  HIT:          0  MISS:          0  iACCESS:          0  iHIT:          0  iMISS:          0  dACCESS:          0  dHIT:          0  dMISS:          0  itACCESS:          0  itHIT:          0  itMISS:          0  dtACCESS:          0  dtHIT:          0  dtMISS:          0
cpu0_STLB TRANSLATION  ACCESS:          0  HIT:          0  MISS:          0  iACCESS:          0  iHIT:          0  iMISS:          0  dACCESS:          0  dHIT:          0  dMISS:          0  itACCESS:          0  itHIT:          0  itMISS:          0  dtACCESS:          0  dtHIT:          0  dtMISS:          0
cpu0_STLB PREFETCH  REQUESTED:          0  ISSUED:          0  CROSSED:          0  USEFUL:          0  USELESS:          0
cpu0_STLB AVERAGE iMISS LATENCY: 52.3307 cycles
cpu0_STLB AVERAGE dMISS LATENCY: 188.421 cycles
cpu0_STLB AVERAGE itMISS LATENCY: 0 cycles
cpu0_STLB AVERAGE dtMISS LATENCY: 0 cycles
cpu0_STLB PAGE CROSSINGS (TLB HIT):         0 
cpu0_STLB PAGE CROSSINGS (TLB MISS):         0 
cpu0_STLB AVERAGE MISS LATENCY: 240.752 cycles
cpu0_L1D TOTAL       ACCESS:   47596430  HIT:   39420247  MISS:    8176183  iACCESS:          0  iHIT:          0  iMISS:          0  dACCESS:   47125108  dHIT:   39391523  dMISS:    7733585  itACCESS:     115464  itHIT:      12478  itMISS:     102986  dtACCESS:     355858  dtHIT:      16246  dtMISS:     339612
cpu0_L1D LOAD         ACCESS:   22659963  HIT:   18299060  MISS:    4360903  iACCESS:          0  iHIT:          0  iMISS:          0  dACCESS:   22659963  dHIT:   18299060  dMISS:    4360903  itACCESS:          0  itHIT:          0  itMISS:          0  dtACCESS:          0  dtHIT:          0  dtMISS:          0
cpu0_L1D RFO          ACCESS:          0  HIT:          0  MISS:          0  iACCESS:          0  iHIT:          0  iMISS:          0  dACCESS:          0  dHIT:          0  dMISS:          0  itACCESS:          0  itHIT:          0  itMISS:          0  dtACCESS:          0  dtHIT:          0  dtMISS:          0
cpu0_L1D PREFETCH     ACCESS:   14691456  HIT:   11879098  MISS:    2812358  iACCESS:          0  iHIT:          0  iMISS:          0  dACCESS:   14691456  dHIT:   11879098  dMISS:    2812358  itACCESS:          0  itHIT:          0  itMISS:          0  dtACCESS:          0  dtHIT:          0  dtMISS:          0
cpu0_L1D WRITE        ACCESS:    9773689  HIT:    9213365  MISS:     560324  iACCESS:          0  iHIT:          0  iMISS:          0  dACCESS:    9773689  dHIT:    9213365  dMISS:     560324  itACCESS:          0  itHIT:          0  itMISS:          0  dtACCESS:          0  dtHIT:          0  dtMISS:          0
cpu0_L1D TRANSLATION  ACCESS:     471322  HIT:      28724  MISS:     442598  iACCESS:          0  iHIT:          0  iMISS:          0  dACCESS:          0  dHIT:          0  dMISS:          0  itACCESS:     115464  itHIT:      12478  itMISS:     102986  dtACCESS:     355858  dtHIT:      16246  dtMISS:     339612
cpu0_L1D PREFETCH  REQUESTED:   22659963  ISSUED:   18824006  CROSSED:          0  USEFUL:     326644  USELESS:    1174932
cpu0_L1D AVERAGE iMISS LATENCY: 0 cycles
cpu0_L1D AVERAGE dMISS LATENCY: 33.6584 cycles
cpu0_L1D AVERAGE itMISS LATENCY: 1.98392 cycles
cpu0_L1D AVERAGE dtMISS LATENCY: 7.07796 cycles
cpu0_L1D PAGE CROSSINGS (TLB HIT):         0 
cpu0_L1D PAGE CROSSINGS (TLB MISS):         0 
cpu0_L1D AVERAGE MISS LATENCY: 42.7203 cycles
cpu0_L2C TOTAL       ACCESS:    9934593  HIT:    6067686  MISS:    3866907  iACCESS:    3347573  iHIT:    2044026  iMISS:    1303547  dACCESS:    6166327  dHIT:    3969924  dMISS:    2196403  itACCESS:     102944  itHIT:      19793  itMISS:      83151  dtACCESS:     317749  dtHIT:      33943  dtMISS:     283806
cpu0_L2C LOAD         ACCESS:    3671466  HIT:    2758586  MISS:     912880  iACCESS:     743877  iHIT:     472067  iMISS:     271810  dACCESS:    2927589  dHIT:    2286519  dMISS:     641070  itACCESS:          0  itHIT:          0  itMISS:          0  dtACCESS:          0  dtHIT:          0  dtMISS:          0
cpu0_L2C RFO          ACCESS:     227094  HIT:     111684  MISS:     115410  iACCESS:          0  iHIT:          0  iMISS:          0  dACCESS:     227094  dHIT:     111684  dMISS:     115410  itACCESS:          0  itHIT:          0  itMISS:          0  dtACCESS:          0  dtHIT:          0  dtMISS:          0
cpu0_L2C PREFETCH     ACCESS:    5289416  HIT:    2820599  MISS:    2468817  iACCESS:    2603696  iHIT:    1571959  iMISS:    1031737  dACCESS:    2685720  dHIT:    1248640  dMISS:    1437080  itACCESS:          0  itHIT:          0  itMISS:          0  dtACCESS:          0  dtHIT:          0  dtMISS:          0
cpu0_L2C WRITE        ACCESS:     325924  HIT:     323081  MISS:       2843  iACCESS:          0  iHIT:          0  iMISS:          0  dACCESS:     325924  dHIT:     323081  dMISS:       2843  itACCESS:          0  itHIT:          0  itMISS:          0  dtACCESS:          0  dtHIT:          0  dtMISS:          0
cpu0_L2C TRANSLATION  ACCESS:     420693  HIT:      53736  MISS:     366957  iACCESS:          0  iHIT:          0  iMISS:          0  dACCESS:          0  dHIT:          0  dMISS:          0  itACCESS:     102944  itHIT:      19793  itMISS:      83151  dtACCESS:     317749  dtHIT:      33943  dtMISS:     283806
cpu0_L2C PREFETCH  REQUESTED:    1395657  ISSUED:    1395622  CROSSED:          0  USEFUL:     315143  USELESS:     284494
cpu0_L2C AVERAGE iMISS LATENCY: 40.9135 cycles
cpu0_L2C AVERAGE dMISS LATENCY: 79.4292 cycles
cpu0_L2C AVERAGE itMISS LATENCY: 3.9329 cycles
cpu0_L2C AVERAGE dtMISS LATENCY: 14.1481 cycles
cpu0_L2C PAGE CROSSINGS (TLB HIT):         0 
cpu0_L2C PAGE CROSSINGS (TLB MISS):         0 
cpu0_L2C AVERAGE MISS LATENCY: 138.424 cycles
LLC TOTAL       ACCESS:    3851300  HIT:    1141854  MISS:    2709446  iACCESS:    1223448  iHIT:     372952  iMISS:     850496  dACCESS:    2260895  dHIT:     732050  dMISS:    1528845  itACCESS:      83151  itHIT:       7169  itMISS:      75982  dtACCESS:     283806  dtHIT:      29683  dtMISS:     254123
LLC LOAD         ACCESS:     906272  HIT:     283809  MISS:     622463  iACCESS:     270714  iHIT:      89023  iMISS:     181691  dACCESS:     635558  dHIT:     194786  dMISS:     440772  itACCESS:          0  itHIT:          0  itMISS:          0  dtACCESS:          0  dtHIT:          0  dtMISS:          0
LLC RFO          ACCESS:     115406  HIT:      34727  MISS:      80679  iACCESS:          0  iHIT:          0  iMISS:          0  dACCESS:     115406  dHIT:      34727  dMISS:      80679  itACCESS:          0  itHIT:          0  itMISS:          0  dtACCESS:          0  dtHIT:          0  dtMISS:          0
LLC PREFETCH     ACCESS:    2281283  HIT:     614527  MISS:    1666756  iACCESS:     952734  iHIT:     283929  iMISS:     668805  dACCESS:    1328549  dHIT:     330598  dMISS:     997951  itACCESS:          0  itHIT:          0  itMISS:          0  dtACCESS:          0  dtHIT:          0  dtMISS:          0
LLC WRITE        ACCESS:     181382  HIT:     171939  MISS:       9443  iACCESS:          0  iHIT:          0  iMISS:          0  dACCESS:     181382  dHIT:     171939  dMISS:       9443  itACCESS:          0  itHIT:          0  itMISS:          0  dtACCESS:          0  dtHIT:          0  dtMISS:          0
LLC TRANSLATION  ACCESS:     366957  HIT:      36852  MISS:     330105  iACCESS:          0  iHIT:          0  iMISS:          0  dACCESS:          0  dHIT:          0  dMISS:          0  itACCESS:      83151  itHIT:       7169  itMISS:      75982  dtACCESS:     283806  dtHIT:      29683  dtMISS:     254123
LLC PREFETCH  REQUESTED:          0  ISSUED:          0  CROSSED:          0  USEFUL:          0  USELESS:          0
LLC AVERAGE iMISS LATENCY: 49.4933 cycles
LLC AVERAGE dMISS LATENCY: 99.2526 cycles
LLC AVERAGE itMISS LATENCY: 5.00454 cycles
LLC AVERAGE dtMISS LATENCY: 18.1215 cycles
LLC PAGE CROSSINGS (TLB HIT):         0 
LLC PAGE CROSSINGS (TLB MISS):         0 
LLC AVERAGE MISS LATENCY: 171.872 cycles

PageTableWalker TOTAL       ACCESS:     194757  
PageTableWalker AVERAGE LATENCY: 6.42729 cycles
PageTableWalker TOTAL LATENCY: 1251758 cycles

DRAM Statistics
Channel 0
 RQ ROW_BUFFER_HIT:     580787
  ROW_BUFFER_MISS:    2101217
 AVG DBUS CONGESTED CYCLE:     3.6497
 WQ ROW_BUFFER_HIT:      56907
  ROW_BUFFER_MISS:      48195  FULL:          0

