last_page:0x200000000000000
VMEM_RES_CAP:0x100000
PAGE_SIZE:4096
LOG2_PAGE_SIZE:12
LOG2_PAGE_TABLE_SIZE:9
page_table_levels:5
WARNING: physical memory size is smaller than virtual memory size
FDiP enabled with aggresivity 16

*** ChampSim Multicore Out-of-Order Simulator ***

Warmup Instructions: 50000000
Simulation Instructions: 100000000
Number of CPUs: 1
Small page size: 4096
Large page size: 2097152

CPU 0 Bimodal branch predictor
Basic BTB sets: 1024 ways: 8 indirect buffer size: 4096 RAS size: 64
Instruction page size distrubution: 0
Loading instruction page size distribution from /home/bsc/bsc018186/scratch/itp_asplos25_AE/dump/smt_srv207_ap_srv180_ap_1024i.pdst
Data page size distrubution: 0
Loading data page size distribution from /home/bsc/bsc018186/scratch/itp_asplos25_AE/dump/smt_srv207_ap_srv180_ap_1024i.pdst
cpu0_L2C IP-based stride prefetcher
cpu0_L1D next line prefetcher
CHiRPing...
cpu0_L1I next line prefetcher
Off-chip DRAM Size: 4 GiB Channels: 1 Width: 64-bit Data Rate: 3200 MT/s
Heartbeat CPU 0 instructions: 10000001 cycles: 2500606 heartbeat IPC: 3.99904 cumulative IPC: 3.99904 (Simulation time: 0 hr 0 min 44 sec) 
Heartbeat CPU 0 instructions: 20000003 cycles: 5000942 heartbeat IPC: 3.99947 cumulative IPC: 3.99925 (Simulation time: 0 hr 1 min 31 sec) 
Heartbeat CPU 0 instructions: 30000003 cycles: 7501176 heartbeat IPC: 3.99963 cumulative IPC: 3.99938 (Simulation time: 0 hr 2 min 19 sec) 
Heartbeat CPU 0 instructions: 40000002 cycles: 10001617 heartbeat IPC: 3.9993 cumulative IPC: 3.99936 (Simulation time: 0 hr 3 min 8 sec) 
Heartbeat CPU 0 instructions: 50000001 cycles: 12501895 heartbeat IPC: 3.99956 cumulative IPC: 3.9994 (Simulation time: 0 hr 3 min 56 sec) 
Warmup finished CPU 0 instructions: 50000001 cycles: 12501896 cumulative IPC: 3.9994 (Simulation time: 0 hr 3 min 56 sec) 

Warmup complete CPU 0 instructions: 50000001 cycles: 12501896 (Simulation time: 0 hr 3 min 56 sec) 

Heartbeat CPU 0 instructions: 60000001 cycles: 42371310 heartbeat IPC: 0.334791 cumulative IPC: 0.334791 (Simulation time: 0 hr 5 min 37 sec) 
Heartbeat CPU 0 instructions: 70000001 cycles: 71140744 heartbeat IPC: 0.347592 cumulative IPC: 0.341071 (Simulation time: 0 hr 7 min 17 sec) 
Heartbeat CPU 0 instructions: 80000000 cycles: 102243176 heartbeat IPC: 0.321519 cumulative IPC: 0.334295 (Simulation time: 0 hr 8 min 59 sec) 
Heartbeat CPU 0 instructions: 90000000 cycles: 132882176 heartbeat IPC: 0.326382 cumulative IPC: 0.332281 (Simulation time: 0 hr 10 min 42 sec) 
Heartbeat CPU 0 instructions: 100000002 cycles: 162670520 heartbeat IPC: 0.335702 cumulative IPC: 0.33296 (Simulation time: 0 hr 12 min 23 sec) 
Heartbeat CPU 0 instructions: 110000000 cycles: 191879476 heartbeat IPC: 0.342361 cumulative IPC: 0.33449 (Simulation time: 0 hr 14 min 2 sec) 
Heartbeat CPU 0 instructions: 120000000 cycles: 221577480 heartbeat IPC: 0.336723 cumulative IPC: 0.334808 (Simulation time: 0 hr 15 min 43 sec) 
Heartbeat CPU 0 instructions: 130000000 cycles: 249693320 heartbeat IPC: 0.355672 cumulative IPC: 0.337281 (Simulation time: 0 hr 17 min 20 sec) 
Heartbeat CPU 0 instructions: 140000002 cycles: 280975940 heartbeat IPC: 0.319667 cumulative IPC: 0.335228 (Simulation time: 0 hr 19 min 4 sec) 
Heartbeat CPU 0 instructions: 150000000 cycles: 310161924 heartbeat IPC: 0.342631 cumulative IPC: 0.335954 (Simulation time: 0 hr 20 min 44 sec) 
Simulation finished CPU 0 instructions: 100000004 cycles: 297660030 cumulative IPC: 0.335954 (Simulation time: 0 hr 20 min 44 sec) 

Simulation complete CPU 0 instructions: 100000004 cycles: 297660030 (Simulation time: 0 hr 20 min 44 sec) 


ChampSim completed all CPUs

Saving instructions large page distribution to /home/bsc/bsc018186/scratch/itp_asplos25_AE/dump/smt_srv207_ap_srv180_ap_1024i.pdst...
Saving data large page distribution to /home/bsc/bsc018186/scratch/itp_asplos25_AE/dump/smt_srv207_ap_srv180_ap_1024i.pdst...
=== Simulation ===
CPU 0 runs /gpfs/projects/bsc18/MN4/bsc18/romol/ChampSim/traces/qualcomm_srv/smt_srv207_ap_srv180_ap_1024i.champsimtrace.xz

Region of Interest Statistics

CPU 0 cumulative IPC: 0.335954 instructions: 100000004 cycles: 297660030
CPU 0 Branch Prediction Accuracy: 75.4138% MPKI: 44.1444 Average ROB Occupancy at Mispredict: 11.4971
Branch type MPKI
BRANCH_DIRECT_JUMP: 1.34859
BRANCH_INDIRECT: 23.3502
BRANCH_CONDITIONAL: 12.479
BRANCH_DIRECT_CALL: 2.53398
BRANCH_INDIRECT_CALL: 0.93986
BRANCH_RETURN: 3.49285

Instructions large pages: 0
Instructions small pages: 14868
Large page distribution for instructions: 0%

Data large pages: 0
Data small pages: 13491
Large page distribution for data: 0%

cpu0_L1I TOTAL       ACCESS:   38917674  HIT:   30227852  MISS:    8689822  iACCESS:   38917674  iHIT:   30227852  iMISS:    8689822  dACCESS:          0  dHIT:          0  dMISS:          0  itACCESS:          0  itHIT:          0  itMISS:          0  dtACCESS:          0  dtHIT:          0  dtMISS:          0
cpu0_L1I LOAD         ACCESS:   11592549  HIT:    9215440  MISS:    2377109  iACCESS:   11592549  iHIT:    9215440  iMISS:    2377109  dACCESS:          0  dHIT:          0  dMISS:          0  itACCESS:          0  itHIT:          0  itMISS:          0  dtACCESS:          0  dtHIT:          0  dtMISS:          0
cpu0_L1I RFO          ACCESS:          0  HIT:          0  MISS:          0  iACCESS:          0  iHIT:          0  iMISS:          0  dACCESS:          0  dHIT:          0  dMISS:          0  itACCESS:          0  itHIT:          0  itMISS:          0  dtACCESS:          0  dtHIT:          0  dtMISS:          0
cpu0_L1I PREFETCH     ACCESS:   27325125  HIT:   21012412  MISS:    6312713  iACCESS:   27325125  iHIT:   21012412  iMISS:    6312713  dACCESS:          0  dHIT:          0  dMISS:          0  itACCESS:          0  itHIT:          0  itMISS:          0  dtACCESS:          0  dtHIT:          0  dtMISS:          0
cpu0_L1I WRITE        ACCESS:          0  HIT:          0  MISS:          0  iACCESS:          0  iHIT:          0  iMISS:          0  dACCESS:          0  dHIT:          0  dMISS:          0  itACCESS:          0  itHIT:          0  itMISS:          0  dtACCESS:          0  dtHIT:          0  dtMISS:          0
cpu0_L1I TRANSLATION  ACCESS:          0  HIT:          0  MISS:          0  iACCESS:          0  iHIT:          0  iMISS:          0  dACCESS:          0  dHIT:          0  dMISS:          0  itACCESS:          0  itHIT:          0  itMISS:          0  dtACCESS:          0  dtHIT:          0  dtMISS:          0
cpu0_L1I PREFETCH  REQUESTED:   30115083  ISSUED:   30114870  CROSSED:          0  USEFUL:    2188685  USELESS:     776755
cpu0_L1I AVERAGE iMISS LATENCY: 23.8191 cycles
cpu0_L1I AVERAGE dMISS LATENCY: 0 cycles
cpu0_L1I AVERAGE itMISS LATENCY: 0 cycles
cpu0_L1I AVERAGE dtMISS LATENCY: 0 cycles
cpu0_L1I PAGE CROSSINGS (TLB HIT):         0 
cpu0_L1I PAGE CROSSINGS (TLB MISS):         0 
cpu0_L1I AVERAGE MISS LATENCY: 23.8191 cycles
cpu0_ITLB TOTAL       ACCESS:   32927681  HIT:   30698687  MISS:    2228994  iACCESS:   32927681  iHIT:   30698687  iMISS:    2228994  dACCESS:          0  dHIT:          0  dMISS:          0  itACCESS:          0  itHIT:          0  itMISS:          0  dtACCESS:          0  dtHIT:          0  dtMISS:          0
cpu0_ITLB LOAD         ACCESS:   32927681  HIT:   30698687  MISS:    2228994  iACCESS:   32927681  iHIT:   30698687  iMISS:    2228994  dACCESS:          0  dHIT:          0  dMISS:          0  itACCESS:          0  itHIT:          0  itMISS:          0  dtACCESS:          0  dtHIT:          0  dtMISS:          0
cpu0_ITLB RFO          ACCESS:          0  HIT:          0  MISS:          0  iACCESS:          0  iHIT:          0  iMISS:          0  dACCESS:          0  dHIT:          0  dMISS:          0  itACCESS:          0  itHIT:          0  itMISS:          0  dtACCESS:          0  dtHIT:          0  dtMISS:          0
cpu0_ITLB PREFETCH     ACCESS:          0  HIT:          0  MISS:          0  iACCESS:          0  iHIT:          0  iMISS:          0  dACCESS:          0  dHIT:          0  dMISS:          0  itACCESS:          0  itHIT:          0  itMISS:          0  dtACCESS:          0  dtHIT:          0  dtMISS:          0
cpu0_ITLB WRITE        ACCESS:          0  HIT:          0  MISS:          0  iACCESS:          0  iHIT:          0  iMISS:          0  dACCESS:          0  dHIT:          0  dMISS:          0  itACCESS:          0  itHIT:          0  itMISS:          0  dtACCESS:          0  dtHIT:          0  dtMISS:          0
cpu0_ITLB TRANSLATION  ACCESS:          0  HIT:          0  MISS:          0  iACCESS:          0  iHIT:          0  iMISS:          0  dACCESS:          0  dHIT:          0  dMISS:          0  itACCESS:          0  itHIT:          0  itMISS:          0  dtACCESS:          0  dtHIT:          0  dtMISS:          0
cpu0_ITLB PREFETCH  REQUESTED:          0  ISSUED:          0  CROSSED:          0  USEFUL:     390850  USELESS:      80282
cpu0_ITLB AVERAGE iMISS LATENCY: 10.2057 cycles
cpu0_ITLB AVERAGE dMISS LATENCY: 0 cycles
cpu0_ITLB AVERAGE itMISS LATENCY: 0 cycles
cpu0_ITLB AVERAGE dtMISS LATENCY: 0 cycles
cpu0_ITLB PAGE CROSSINGS (TLB HIT):         0 
cpu0_ITLB PAGE CROSSINGS (TLB MISS):         0 
cpu0_ITLB AVERAGE MISS LATENCY: 10.2057 cycles
cpu0_DTLB TOTAL       ACCESS:   29090508  HIT:   25487212  MISS:    3603296  iACCESS:          0  iHIT:          0  iMISS:          0  dACCESS:   29090508  dHIT:   25487212  dMISS:    3603296  itACCESS:          0  itHIT:          0  itMISS:          0  dtACCESS:          0  dtHIT:          0  dtMISS:          0
cpu0_DTLB LOAD         ACCESS:   29090508  HIT:   25487212  MISS:    3603296  iACCESS:          0  iHIT:          0  iMISS:          0  dACCESS:   29090508  dHIT:   25487212  dMISS:    3603296  itACCESS:          0  itHIT:          0  itMISS:          0  dtACCESS:          0  dtHIT:          0  dtMISS:          0
cpu0_DTLB RFO          ACCESS:          0  HIT:          0  MISS:          0  iACCESS:          0  iHIT:          0  iMISS:          0  dACCESS:          0  dHIT:          0  dMISS:          0  itACCESS:          0  itHIT:          0  itMISS:          0  dtACCESS:          0  dtHIT:          0  dtMISS:          0
cpu0_DTLB PREFETCH     ACCESS:          0  HIT:          0  MISS:          0  iACCESS:          0  iHIT:          0  iMISS:          0  dACCESS:          0  dHIT:          0  dMISS:          0  itACCESS:          0  itHIT:          0  itMISS:          0  dtACCESS:          0  dtHIT:          0  dtMISS:          0
cpu0_DTLB WRITE        ACCESS:          0  HIT:          0  MISS:          0  iACCESS:          0  iHIT:          0  iMISS:          0  dACCESS:          0  dHIT:          0  dMISS:          0  itACCESS:          0  itHIT:          0  itMISS:          0  dtACCESS:          0  dtHIT:          0  dtMISS:          0
cpu0_DTLB TRANSLATION  ACCESS:          0  HIT:          0  MISS:          0  iACCESS:          0  iHIT:          0  iMISS:          0  dACCESS:          0  dHIT:          0  dMISS:          0  itACCESS:          0  itHIT:          0  itMISS:          0  dtACCESS:          0  dtHIT:          0  dtMISS:          0
cpu0_DTLB PREFETCH  REQUESTED:          0  ISSUED:          0  CROSSED:          0  USEFUL:          0  USELESS:          0
cpu0_DTLB AVERAGE iMISS LATENCY: 0 cycles
cpu0_DTLB AVERAGE dMISS LATENCY: 25.0972 cycles
cpu0_DTLB AVERAGE itMISS LATENCY: 0 cycles
cpu0_DTLB AVERAGE dtMISS LATENCY: 0 cycles
cpu0_DTLB PAGE CROSSINGS (TLB HIT):         0 
cpu0_DTLB PAGE CROSSINGS (TLB MISS):         0 
cpu0_DTLB AVERAGE MISS LATENCY: 25.0972 cycles
cpu0_STLB TOTAL       ACCESS:    2580743  HIT:    2208837  MISS:     371906  iACCESS:     471138  iHIT:     360766  iMISS:     110372  dACCESS:    2109605  dHIT:    1848071  dMISS:     261534  itACCESS:          0  itHIT:          0  itMISS:          0  dtACCESS:          0  dtHIT:          0  dtMISS:          0
cpu0_STLB LOAD         ACCESS:    2580743  HIT:    2208837  MISS:     371906  iACCESS:     471138  iHIT:     360766  iMISS:     110372  dACCESS:    2109605  dHIT:    1848071  dMISS:     261534  itACCESS:          0  itHIT:          0  itMISS:          0  dtACCESS:          0  dtHIT:          0  dtMISS:          0
cpu0_STLB RFO          ACCESS:          0  HIT:          0  MISS:          0  iACCESS:          0  iHIT:          0  iMISS:          0  dACCESS:          0  dHIT:          0  dMISS:          0  itACCESS:          0  itHIT:          0  itMISS:          0  dtACCESS:          0  dtHIT:          0  dtMISS:          0
cpu0_STLB PREFETCH     ACCESS:          0  HIT:          0  MISS:          0  iACCESS:          0  iHIT:          0  iMISS:          0  dACCESS:          0  dHIT:          0  dMISS:          0  itACCESS:          0  itHIT:          0  itMISS:          0  dtACCESS:          0  dtHIT:          0  dtMISS:          0
cpu0_STLB WRITE        ACCESS:          0  HIT:          0  MISS:          0  iACCESS:          0  iHIT:          0  iMISS:          0  dACCESS:          0  dHIT:          0  dMISS:          0  itACCESS:          0  itHIT:          0  itMISS:          0  dtACCESS:          0  dtHIT:          0  dtMISS:          0
cpu0_STLB TRANSLATION  ACCESS:          0  HIT:          0  MISS:          0  iACCESS:          0  iHIT:          0  iMISS:          0  dACCESS:          0  dHIT:          0  dMISS:          0  itACCESS:          0  itHIT:          0  itMISS:          0  dtACCESS:          0  dtHIT:          0  dtMISS:          0
cpu0_STLB PREFETCH  REQUESTED:          0  ISSUED:          0  CROSSED:          0  USEFUL:          0  USELESS:          0
cpu0_STLB AVERAGE iMISS LATENCY: 51.0469 cycles
cpu0_STLB AVERAGE dMISS LATENCY: 197.513 cycles
cpu0_STLB AVERAGE itMISS LATENCY: 0 cycles
cpu0_STLB AVERAGE dtMISS LATENCY: 0 cycles
cpu0_STLB PAGE CROSSINGS (TLB HIT):         0 
cpu0_STLB PAGE CROSSINGS (TLB MISS):         0 
cpu0_STLB AVERAGE MISS LATENCY: 248.56 cycles
cpu0_L1D TOTAL       ACCESS:   45131250  HIT:   39510543  MISS:    5620707  iACCESS:          0  iHIT:          0  iMISS:          0  dACCESS:   44585348  dHIT:   39475891  dMISS:    5109457  itACCESS:     124330  itHIT:      14484  itMISS:     109846  dtACCESS:     421572  dtHIT:      20168  dtMISS:     401404
cpu0_L1D LOAD         ACCESS:   20430765  HIT:   18125425  MISS:    2305340  iACCESS:          0  iHIT:          0  iMISS:          0  dACCESS:   20430765  dHIT:   18125425  dMISS:    2305340  itACCESS:          0  itHIT:          0  itMISS:          0  dtACCESS:          0  dtHIT:          0  dtMISS:          0
cpu0_L1D RFO          ACCESS:          0  HIT:          0  MISS:          0  iACCESS:          0  iHIT:          0  iMISS:          0  dACCESS:          0  dHIT:          0  dMISS:          0  itACCESS:          0  itHIT:          0  itMISS:          0  dtACCESS:          0  dtHIT:          0  dtMISS:          0
cpu0_L1D PREFETCH     ACCESS:   14052054  HIT:   11814598  MISS:    2237456  iACCESS:          0  iHIT:          0  iMISS:          0  dACCESS:   14052054  dHIT:   11814598  dMISS:    2237456  itACCESS:          0  itHIT:          0  itMISS:          0  dtACCESS:          0  dtHIT:          0  dtMISS:          0
cpu0_L1D WRITE        ACCESS:   10102529  HIT:    9535868  MISS:     566661  iACCESS:          0  iHIT:          0  iMISS:          0  dACCESS:   10102529  dHIT:    9535868  dMISS:     566661  itACCESS:          0  itHIT:          0  itMISS:          0  dtACCESS:          0  dtHIT:          0  dtMISS:          0
cpu0_L1D TRANSLATION  ACCESS:     545902  HIT:      34652  MISS:     511250  iACCESS:          0  iHIT:          0  iMISS:          0  dACCESS:          0  dHIT:          0  dMISS:          0  itACCESS:     124330  itHIT:      14484  itMISS:     109846  dtACCESS:     421572  dtHIT:      20168  dtMISS:     401404
cpu0_L1D PREFETCH  REQUESTED:   20430765  ISSUED:   18714168  CROSSED:          0  USEFUL:     377294  USELESS:     950335
cpu0_L1D AVERAGE iMISS LATENCY: 0 cycles
cpu0_L1D AVERAGE dMISS LATENCY: 50.3087 cycles
cpu0_L1D AVERAGE itMISS LATENCY: 3.19552 cycles
cpu0_L1D AVERAGE dtMISS LATENCY: 12.119 cycles
cpu0_L1D PAGE CROSSINGS (TLB HIT):         0 
cpu0_L1D PAGE CROSSINGS (TLB MISS):         0 
cpu0_L1D AVERAGE MISS LATENCY: 65.6232 cycles
cpu0_L2C TOTAL       ACCESS:    8644303  HIT:    4219142  MISS:    4425161  iACCESS:    3779222  iHIT:    2291585  iMISS:    1487637  dACCESS:    4383061  dHIT:    1871106  dMISS:    2511955  itACCESS:     109296  itHIT:      18878  itMISS:      90418  dtACCESS:     372724  dtHIT:      37573  dtMISS:     335151
cpu0_L2C LOAD         ACCESS:    2089443  HIT:    1026230  MISS:    1063213  iACCESS:     849932  iHIT:     539393  iMISS:     310539  dACCESS:    1239511  dHIT:     486837  dMISS:     752674  itACCESS:          0  itHIT:          0  itMISS:          0  dtACCESS:          0  dtHIT:          0  dtMISS:          0
cpu0_L2C RFO          ACCESS:     218453  HIT:      89120  MISS:     129333  iACCESS:          0  iHIT:          0  iMISS:          0  dACCESS:     218453  dHIT:      89120  dMISS:     129333  itACCESS:          0  itHIT:          0  itMISS:          0  dtACCESS:          0  dtHIT:          0  dtMISS:          0
cpu0_L2C PREFETCH     ACCESS:    5504158  HIT:    2701077  MISS:    2803081  iACCESS:    2929290  iHIT:    1752192  iMISS:    1177098  dACCESS:    2574868  dHIT:     948885  dMISS:    1625983  itACCESS:          0  itHIT:          0  itMISS:          0  dtACCESS:          0  dtHIT:          0  dtMISS:          0
cpu0_L2C WRITE        ACCESS:     350229  HIT:     346264  MISS:       3965  iACCESS:          0  iHIT:          0  iMISS:          0  dACCESS:     350229  dHIT:     346264  dMISS:       3965  itACCESS:          0  itHIT:          0  itMISS:          0  dtACCESS:          0  dtHIT:          0  dtMISS:          0
cpu0_L2C TRANSLATION  ACCESS:     482020  HIT:      56451  MISS:     425569  iACCESS:          0  iHIT:          0  iMISS:          0  dACCESS:          0  dHIT:          0  dMISS:          0  itACCESS:     109296  itHIT:      18878  itMISS:      90418  dtACCESS:     372724  dtHIT:      37573  dtMISS:     335151
cpu0_L2C PREFETCH  REQUESTED:    1490233  ISSUED:    1490232  CROSSED:          0  USEFUL:     349053  USELESS:     320313
cpu0_L2C AVERAGE iMISS LATENCY: 39.5471 cycles
cpu0_L2C AVERAGE dMISS LATENCY: 78.6466 cycles
cpu0_L2C AVERAGE itMISS LATENCY: 3.81545 cycles
cpu0_L2C AVERAGE dtMISS LATENCY: 14.5544 cycles
cpu0_L2C PAGE CROSSINGS (TLB HIT):         0 
cpu0_L2C PAGE CROSSINGS (TLB MISS):         0 
cpu0_L2C AVERAGE MISS LATENCY: 136.564 cycles
LLC TOTAL       ACCESS:    4432334  HIT:    1411933  MISS:    3020401  iACCESS:    1400344  iHIT:     470848  iMISS:     929496  dACCESS:    2606421  dHIT:     899608  dMISS:    1706813  itACCESS:      90418  itHIT:       6528  itMISS:      83890  dtACCESS:     335151  dtHIT:      34949  dtMISS:     300202
LLC LOAD         ACCESS:    1057238  HIT:     353667  MISS:     703571  iACCESS:     309336  iHIT:     110215  iMISS:     199121  dACCESS:     747902  dHIT:     243452  dMISS:     504450  itACCESS:          0  itHIT:          0  itMISS:          0  dtACCESS:          0  dtHIT:          0  dtMISS:          0
LLC RFO          ACCESS:     129329  HIT:      40978  MISS:      88351  iACCESS:          0  iHIT:          0  iMISS:          0  dACCESS:     129329  dHIT:      40978  dMISS:      88351  itACCESS:          0  itHIT:          0  itMISS:          0  dtACCESS:          0  dtHIT:          0  dtMISS:          0
LLC PREFETCH     ACCESS:    2607159  HIT:     773179  MISS:    1833980  iACCESS:    1091008  iHIT:     360633  iMISS:     730375  dACCESS:    1516151  dHIT:     412546  dMISS:    1103605  itACCESS:          0  itHIT:          0  itMISS:          0  dtACCESS:          0  dtHIT:          0  dtMISS:          0
LLC WRITE        ACCESS:     213039  HIT:     202632  MISS:      10407  iACCESS:          0  iHIT:          0  iMISS:          0  dACCESS:     213039  dHIT:     202632  dMISS:      10407  itACCESS:          0  itHIT:          0  itMISS:          0  dtACCESS:          0  dtHIT:          0  dtMISS:          0
LLC TRANSLATION  ACCESS:     425569  HIT:      41477  MISS:     384092  iACCESS:          0  iHIT:          0  iMISS:          0  dACCESS:          0  dHIT:          0  dMISS:          0  itACCESS:      90418  itHIT:       6528  itMISS:      83890  dtACCESS:     335151  dtHIT:      34949  dtMISS:     300202
LLC PREFETCH  REQUESTED:          0  ISSUED:          0  CROSSED:          0  USEFUL:          0  USELESS:          0
LLC AVERAGE iMISS LATENCY: 48.8129 cycles
LLC AVERAGE dMISS LATENCY: 100.364 cycles
LLC AVERAGE itMISS LATENCY: 4.99624 cycles
LLC AVERAGE dtMISS LATENCY: 19.1294 cycles
LLC PAGE CROSSINGS (TLB HIT):         0 
LLC PAGE CROSSINGS (TLB MISS):         0 
LLC AVERAGE MISS LATENCY: 173.302 cycles

PageTableWalker TOTAL       ACCESS:     180683  
PageTableWalker AVERAGE LATENCY: 6.6136 cycles
PageTableWalker TOTAL LATENCY: 1194964 cycles

DRAM Statistics
Channel 0
 RQ ROW_BUFFER_HIT:     625042
  ROW_BUFFER_MISS:    2373356
 AVG DBUS CONGESTED CYCLE:    3.64562
 WQ ROW_BUFFER_HIT:      64419
  ROW_BUFFER_MISS:      54889  FULL:          0

