last_page:0x200000000000000
VMEM_RES_CAP:0x100000
PAGE_SIZE:4096
LOG2_PAGE_SIZE:12
LOG2_PAGE_TABLE_SIZE:9
page_table_levels:5
WARNING: physical memory size is smaller than virtual memory size
FDiP enabled with aggresivity 16

*** ChampSim Multicore Out-of-Order Simulator ***

Warmup Instructions: 50000000
Simulation Instructions: 100000000
Number of CPUs: 1
Small page size: 4096
Large page size: 2097152

CPU 0 Bimodal branch predictor
Basic BTB sets: 1024 ways: 8 indirect buffer size: 4096 RAS size: 64
Instruction page size distrubution: 0
Loading instruction page size distribution from /home/bsc/bsc018186/scratch/itp_asplos25_AE/dump/smt_srv85_ap_srv582_ap_1024i.pdst
Data page size distrubution: 0
Loading data page size distribution from /home/bsc/bsc018186/scratch/itp_asplos25_AE/dump/smt_srv85_ap_srv582_ap_1024i.pdst
cpu0_L2C IP-based stride prefetcher
cpu0_L1D next line prefetcher
cpu0_L1I next line prefetcher
Off-chip DRAM Size: 4 GiB Channels: 1 Width: 64-bit Data Rate: 3200 MT/s
Heartbeat CPU 0 instructions: 10000002 cycles: 2500569 heartbeat IPC: 3.9991 cumulative IPC: 3.9991 (Simulation time: 0 hr 0 min 43 sec) 
Heartbeat CPU 0 instructions: 20000002 cycles: 5001028 heartbeat IPC: 3.99927 cumulative IPC: 3.99918 (Simulation time: 0 hr 1 min 28 sec) 
Heartbeat CPU 0 instructions: 30000001 cycles: 7501485 heartbeat IPC: 3.99927 cumulative IPC: 3.99921 (Simulation time: 0 hr 2 min 13 sec) 
Heartbeat CPU 0 instructions: 40000003 cycles: 10001969 heartbeat IPC: 3.99923 cumulative IPC: 3.99922 (Simulation time: 0 hr 2 min 57 sec) 
Heartbeat CPU 0 instructions: 50000000 cycles: 12502410 heartbeat IPC: 3.9993 cumulative IPC: 3.99923 (Simulation time: 0 hr 3 min 40 sec) 
Warmup finished CPU 0 instructions: 50000000 cycles: 12502411 cumulative IPC: 3.99923 (Simulation time: 0 hr 3 min 40 sec) 

Warmup complete CPU 0 instructions: 50000000 cycles: 12502411 (Simulation time: 0 hr 3 min 40 sec) 

Heartbeat CPU 0 instructions: 60000002 cycles: 43121116 heartbeat IPC: 0.326598 cumulative IPC: 0.326598 (Simulation time: 0 hr 5 min 11 sec) 
Heartbeat CPU 0 instructions: 70000000 cycles: 74733772 heartbeat IPC: 0.316329 cumulative IPC: 0.321382 (Simulation time: 0 hr 6 min 42 sec) 
Heartbeat CPU 0 instructions: 80000001 cycles: 105148265 heartbeat IPC: 0.328791 cumulative IPC: 0.323814 (Simulation time: 0 hr 8 min 10 sec) 
Heartbeat CPU 0 instructions: 90000002 cycles: 136003151 heartbeat IPC: 0.324098 cumulative IPC: 0.323885 (Simulation time: 0 hr 9 min 41 sec) 
Heartbeat CPU 0 instructions: 100000000 cycles: 167245148 heartbeat IPC: 0.320082 cumulative IPC: 0.323117 (Simulation time: 0 hr 11 min 10 sec) 
Heartbeat CPU 0 instructions: 110000004 cycles: 198183033 heartbeat IPC: 0.323229 cumulative IPC: 0.323136 (Simulation time: 0 hr 12 min 40 sec) 
Heartbeat CPU 0 instructions: 120000004 cycles: 228940753 heartbeat IPC: 0.325122 cumulative IPC: 0.323418 (Simulation time: 0 hr 14 min 11 sec) 
Heartbeat CPU 0 instructions: 130000000 cycles: 259936881 heartbeat IPC: 0.322621 cumulative IPC: 0.323318 (Simulation time: 0 hr 15 min 40 sec) 
Heartbeat CPU 0 instructions: 140000004 cycles: 290534171 heartbeat IPC: 0.326827 cumulative IPC: 0.323705 (Simulation time: 0 hr 17 min 10 sec) 
Heartbeat CPU 0 instructions: 150000002 cycles: 321108902 heartbeat IPC: 0.327068 cumulative IPC: 0.324038 (Simulation time: 0 hr 18 min 42 sec) 
Simulation finished CPU 0 instructions: 100000002 cycles: 308606492 cumulative IPC: 0.324038 (Simulation time: 0 hr 18 min 42 sec) 

Simulation complete CPU 0 instructions: 100000002 cycles: 308606492 (Simulation time: 0 hr 18 min 42 sec) 


ChampSim completed all CPUs

Saving instructions large page distribution to /home/bsc/bsc018186/scratch/itp_asplos25_AE/dump/smt_srv85_ap_srv582_ap_1024i.pdst...
Saving data large page distribution to /home/bsc/bsc018186/scratch/itp_asplos25_AE/dump/smt_srv85_ap_srv582_ap_1024i.pdst...
=== Simulation ===
CPU 0 runs /gpfs/projects/bsc18/MN4/bsc18/romol/ChampSim/traces/qualcomm_srv/smt_srv85_ap_srv582_ap_1024i.champsimtrace.xz

Region of Interest Statistics

CPU 0 cumulative IPC: 0.324038 instructions: 100000002 cycles: 308606492
CPU 0 Branch Prediction Accuracy: 75.0525% MPKI: 44.971 Average ROB Occupancy at Mispredict: 10.776
Branch type MPKI
BRANCH_DIRECT_JUMP: 1.39299
BRANCH_INDIRECT: 23.3201
BRANCH_CONDITIONAL: 13.0416
BRANCH_DIRECT_CALL: 2.67026
BRANCH_INDIRECT_CALL: 1.01656
BRANCH_RETURN: 3.52954

Instructions large pages: 0
Instructions small pages: 9946
Large page distribution for instructions: 0%

Data large pages: 0
Data small pages: 8571
Large page distribution for data: 0%

cpu0_L1I TOTAL       ACCESS:   39244449  HIT:   30486917  MISS:    8757532  iACCESS:   39244449  iHIT:   30486917  iMISS:    8757532  dACCESS:          0  dHIT:          0  dMISS:          0  itACCESS:          0  itHIT:          0  itMISS:          0  dtACCESS:          0  dtHIT:          0  dtMISS:          0
cpu0_L1I LOAD         ACCESS:   11733508  HIT:    9350178  MISS:    2383330  iACCESS:   11733508  iHIT:    9350178  iMISS:    2383330  dACCESS:          0  dHIT:          0  dMISS:          0  itACCESS:          0  itHIT:          0  itMISS:          0  dtACCESS:          0  dtHIT:          0  dtMISS:          0
cpu0_L1I RFO          ACCESS:          0  HIT:          0  MISS:          0  iACCESS:          0  iHIT:          0  iMISS:          0  dACCESS:          0  dHIT:          0  dMISS:          0  itACCESS:          0  itHIT:          0  itMISS:          0  dtACCESS:          0  dtHIT:          0  dtMISS:          0
cpu0_L1I PREFETCH     ACCESS:   27510941  HIT:   21136739  MISS:    6374202  iACCESS:   27510941  iHIT:   21136739  iMISS:    6374202  dACCESS:          0  dHIT:          0  dMISS:          0  itACCESS:          0  itHIT:          0  itMISS:          0  dtACCESS:          0  dtHIT:          0  dtMISS:          0
cpu0_L1I WRITE        ACCESS:          0  HIT:          0  MISS:          0  iACCESS:          0  iHIT:          0  iMISS:          0  dACCESS:          0  dHIT:          0  dMISS:          0  itACCESS:          0  itHIT:          0  itMISS:          0  dtACCESS:          0  dtHIT:          0  dtMISS:          0
cpu0_L1I TRANSLATION  ACCESS:          0  HIT:          0  MISS:          0  iACCESS:          0  iHIT:          0  iMISS:          0  dACCESS:          0  dHIT:          0  dMISS:          0  itACCESS:          0  itHIT:          0  itMISS:          0  dtACCESS:          0  dtHIT:          0  dtMISS:          0
cpu0_L1I PREFETCH  REQUESTED:   30310414  ISSUED:   30310404  CROSSED:          0  USEFUL:    2218125  USELESS:     775141
cpu0_L1I AVERAGE iMISS LATENCY: 25.0647 cycles
cpu0_L1I AVERAGE dMISS LATENCY: 0 cycles
cpu0_L1I AVERAGE itMISS LATENCY: 0 cycles
cpu0_L1I AVERAGE dtMISS LATENCY: 0 cycles
cpu0_L1I PAGE CROSSINGS (TLB HIT):         0 
cpu0_L1I PAGE CROSSINGS (TLB MISS):         0 
cpu0_L1I AVERAGE MISS LATENCY: 25.0647 cycles
cpu0_ITLB TOTAL       ACCESS:   33245081  HIT:   30983343  MISS:    2261738  iACCESS:   33245081  iHIT:   30983343  iMISS:    2261738  dACCESS:          0  dHIT:          0  dMISS:          0  itACCESS:          0  itHIT:          0  itMISS:          0  dtACCESS:          0  dtHIT:          0  dtMISS:          0
cpu0_ITLB LOAD         ACCESS:   33245081  HIT:   30983343  MISS:    2261738  iACCESS:   33245081  iHIT:   30983343  iMISS:    2261738  dACCESS:          0  dHIT:          0  dMISS:          0  itACCESS:          0  itHIT:          0  itMISS:          0  dtACCESS:          0  dtHIT:          0  dtMISS:          0
cpu0_ITLB RFO          ACCESS:          0  HIT:          0  MISS:          0  iACCESS:          0  iHIT:          0  iMISS:          0  dACCESS:          0  dHIT:          0  dMISS:          0  itACCESS:          0  itHIT:          0  itMISS:          0  dtACCESS:          0  dtHIT:          0  dtMISS:          0
cpu0_ITLB PREFETCH     ACCESS:          0  HIT:          0  MISS:          0  iACCESS:          0  iHIT:          0  iMISS:          0  dACCESS:          0  dHIT:          0  dMISS:          0  itACCESS:          0  itHIT:          0  itMISS:          0  dtACCESS:          0  dtHIT:          0  dtMISS:          0
cpu0_ITLB WRITE        ACCESS:          0  HIT:          0  MISS:          0  iACCESS:          0  iHIT:          0  iMISS:          0  dACCESS:          0  dHIT:          0  dMISS:          0  itACCESS:          0  itHIT:          0  itMISS:          0  dtACCESS:          0  dtHIT:          0  dtMISS:          0
cpu0_ITLB TRANSLATION  ACCESS:          0  HIT:          0  MISS:          0  iACCESS:          0  iHIT:          0  iMISS:          0  dACCESS:          0  dHIT:          0  dMISS:          0  itACCESS:          0  itHIT:          0  itMISS:          0  dtACCESS:          0  dtHIT:          0  dtMISS:          0
cpu0_ITLB PREFETCH  REQUESTED:          0  ISSUED:          0  CROSSED:          0  USEFUL:     393790  USELESS:      81072
cpu0_ITLB AVERAGE iMISS LATENCY: 10.4892 cycles
cpu0_ITLB AVERAGE dMISS LATENCY: 0 cycles
cpu0_ITLB AVERAGE itMISS LATENCY: 0 cycles
cpu0_ITLB AVERAGE dtMISS LATENCY: 0 cycles
cpu0_ITLB PAGE CROSSINGS (TLB HIT):         0 
cpu0_ITLB PAGE CROSSINGS (TLB MISS):         0 
cpu0_ITLB AVERAGE MISS LATENCY: 10.4892 cycles
cpu0_DTLB TOTAL       ACCESS:   28868905  HIT:   25241585  MISS:    3627320  iACCESS:          0  iHIT:          0  iMISS:          0  dACCESS:   28868905  dHIT:   25241585  dMISS:    3627320  itACCESS:          0  itHIT:          0  itMISS:          0  dtACCESS:          0  dtHIT:          0  dtMISS:          0
cpu0_DTLB LOAD         ACCESS:   28868905  HIT:   25241585  MISS:    3627320  iACCESS:          0  iHIT:          0  iMISS:          0  dACCESS:   28868905  dHIT:   25241585  dMISS:    3627320  itACCESS:          0  itHIT:          0  itMISS:          0  dtACCESS:          0  dtHIT:          0  dtMISS:          0
cpu0_DTLB RFO          ACCESS:          0  HIT:          0  MISS:          0  iACCESS:          0  iHIT:          0  iMISS:          0  dACCESS:          0  dHIT:          0  dMISS:          0  itACCESS:          0  itHIT:          0  itMISS:          0  dtACCESS:          0  dtHIT:          0  dtMISS:          0
cpu0_DTLB PREFETCH     ACCESS:          0  HIT:          0  MISS:          0  iACCESS:          0  iHIT:          0  iMISS:          0  dACCESS:          0  dHIT:          0  dMISS:          0  itACCESS:          0  itHIT:          0  itMISS:          0  dtACCESS:          0  dtHIT:          0  dtMISS:          0
cpu0_DTLB WRITE        ACCESS:          0  HIT:          0  MISS:          0  iACCESS:          0  iHIT:          0  iMISS:          0  dACCESS:          0  dHIT:          0  dMISS:          0  itACCESS:          0  itHIT:          0  itMISS:          0  dtACCESS:          0  dtHIT:          0  dtMISS:          0
cpu0_DTLB TRANSLATION  ACCESS:          0  HIT:          0  MISS:          0  iACCESS:          0  iHIT:          0  iMISS:          0  dACCESS:          0  dHIT:          0  dMISS:          0  itACCESS:          0  itHIT:          0  itMISS:          0  dtACCESS:          0  dtHIT:          0  dtMISS:          0
cpu0_DTLB PREFETCH  REQUESTED:          0  ISSUED:          0  CROSSED:          0  USEFUL:          0  USELESS:          0
cpu0_DTLB AVERAGE iMISS LATENCY: 0 cycles
cpu0_DTLB AVERAGE dMISS LATENCY: 25.7201 cycles
cpu0_DTLB AVERAGE itMISS LATENCY: 0 cycles
cpu0_DTLB AVERAGE dtMISS LATENCY: 0 cycles
cpu0_DTLB PAGE CROSSINGS (TLB HIT):         0 
cpu0_DTLB PAGE CROSSINGS (TLB MISS):         0 
cpu0_DTLB AVERAGE MISS LATENCY: 25.7201 cycles
cpu0_STLB TOTAL       ACCESS:    2599676  HIT:    2209812  MISS:     389864  iACCESS:     474864  iHIT:     356597  iMISS:     118267  dACCESS:    2124812  dHIT:    1853215  dMISS:     271597  itACCESS:          0  itHIT:          0  itMISS:          0  dtACCESS:          0  dtHIT:          0  dtMISS:          0
cpu0_STLB LOAD         ACCESS:    2599676  HIT:    2209812  MISS:     389864  iACCESS:     474864  iHIT:     356597  iMISS:     118267  dACCESS:    2124812  dHIT:    1853215  dMISS:     271597  itACCESS:          0  itHIT:          0  itMISS:          0  dtACCESS:          0  dtHIT:          0  dtMISS:          0
cpu0_STLB RFO          ACCESS:          0  HIT:          0  MISS:          0  iACCESS:          0  iHIT:          0  iMISS:          0  dACCESS:          0  dHIT:          0  dMISS:          0  itACCESS:          0  itHIT:          0  itMISS:          0  dtACCESS:          0  dtHIT:          0  dtMISS:          0
cpu0_STLB PREFETCH     ACCESS:          0  HIT:          0  MISS:          0  iACCESS:          0  iHIT:          0  iMISS:          0  dACCESS:          0  dHIT:          0  dMISS:          0  itACCESS:          0  itHIT:          0  itMISS:          0  dtACCESS:          0  dtHIT:          0  dtMISS:          0
cpu0_STLB WRITE        ACCESS:          0  HIT:          0  MISS:          0  iACCESS:          0  iHIT:          0  iMISS:          0  dACCESS:          0  dHIT:          0  dMISS:          0  itACCESS:          0  itHIT:          0  itMISS:          0  dtACCESS:          0  dtHIT:          0  dtMISS:          0
cpu0_STLB TRANSLATION  ACCESS:          0  HIT:          0  MISS:          0  iACCESS:          0  iHIT:          0  iMISS:          0  dACCESS:          0  dHIT:          0  dMISS:          0  itACCESS:          0  itHIT:          0  itMISS:          0  dtACCESS:          0  dtHIT:          0  dtMISS:          0
cpu0_STLB PREFETCH  REQUESTED:          0  ISSUED:          0  CROSSED:          0  USEFUL:          0  USELESS:          0
cpu0_STLB AVERAGE iMISS LATENCY: 51.0966 cycles
cpu0_STLB AVERAGE dMISS LATENCY: 195.409 cycles
cpu0_STLB AVERAGE itMISS LATENCY: 0 cycles
cpu0_STLB AVERAGE dtMISS LATENCY: 0 cycles
cpu0_STLB PAGE CROSSINGS (TLB HIT):         0 
cpu0_STLB PAGE CROSSINGS (TLB MISS):         0 
cpu0_STLB AVERAGE MISS LATENCY: 246.505 cycles
cpu0_L1D TOTAL       ACCESS:   45155439  HIT:   39220270  MISS:    5935169  iACCESS:          0  iHIT:          0  iMISS:          0  dACCESS:   44589451  dHIT:   39186957  dMISS:    5402494  itACCESS:     132291  itHIT:      14507  itMISS:     117784  dtACCESS:     433697  dtHIT:      18806  dtMISS:     414891
cpu0_L1D LOAD         ACCESS:   20344222  HIT:   17908030  MISS:    2436192  iACCESS:          0  iHIT:          0  iMISS:          0  dACCESS:   20344222  dHIT:   17908030  dMISS:    2436192  itACCESS:          0  itHIT:          0  itMISS:          0  dtACCESS:          0  dtHIT:          0  dtMISS:          0
cpu0_L1D RFO          ACCESS:          0  HIT:          0  MISS:          0  iACCESS:          0  iHIT:          0  iMISS:          0  dACCESS:          0  dHIT:          0  dMISS:          0  itACCESS:          0  itHIT:          0  itMISS:          0  dtACCESS:          0  dtHIT:          0  dtMISS:          0
cpu0_L1D PREFETCH     ACCESS:   14089500  HIT:   11704615  MISS:    2384885  iACCESS:          0  iHIT:          0  iMISS:          0  dACCESS:   14089500  dHIT:   11704615  dMISS:    2384885  itACCESS:          0  itHIT:          0  itMISS:          0  dtACCESS:          0  dtHIT:          0  dtMISS:          0
cpu0_L1D WRITE        ACCESS:   10155729  HIT:    9574312  MISS:     581417  iACCESS:          0  iHIT:          0  iMISS:          0  dACCESS:   10155729  dHIT:    9574312  dMISS:     581417  itACCESS:          0  itHIT:          0  itMISS:          0  dtACCESS:          0  dtHIT:          0  dtMISS:          0
cpu0_L1D TRANSLATION  ACCESS:     565988  HIT:      33313  MISS:     532675  iACCESS:          0  iHIT:          0  iMISS:          0  dACCESS:          0  dHIT:          0  dMISS:          0  itACCESS:     132291  itHIT:      14507  itMISS:     117784  dtACCESS:     433697  dtHIT:      18806  dtMISS:     414891
cpu0_L1D PREFETCH  REQUESTED:   20344222  ISSUED:   18508787  CROSSED:          0  USEFUL:     359520  USELESS:     941269
cpu0_L1D AVERAGE iMISS LATENCY: 0 cycles
cpu0_L1D AVERAGE dMISS LATENCY: 49.55 cycles
cpu0_L1D AVERAGE itMISS LATENCY: 3.17097 cycles
cpu0_L1D AVERAGE dtMISS LATENCY: 12.0448 cycles
cpu0_L1D PAGE CROSSINGS (TLB HIT):         0 
cpu0_L1D PAGE CROSSINGS (TLB MISS):         0 
cpu0_L1D AVERAGE MISS LATENCY: 64.7657 cycles
cpu0_L2C TOTAL       ACCESS:    8696586  HIT:    4183880  MISS:    4512706  iACCESS:    3810244  iHIT:    2295273  iMISS:    1514971  dACCESS:    4382447  dHIT:    1827804  dMISS:    2554643  itACCESS:     117372  itHIT:      21858  itMISS:      95514  dtACCESS:     386523  dtHIT:      38945  dtMISS:     347578
cpu0_L2C LOAD         ACCESS:    2078872  HIT:    1013290  MISS:    1065582  iACCESS:     854575  iHIT:     540185  iMISS:     314390  dACCESS:    1224297  dHIT:     473105  dMISS:     751192  itACCESS:          0  itHIT:          0  itMISS:          0  dtACCESS:          0  dtHIT:          0  dtMISS:          0
cpu0_L2C RFO          ACCESS:     216491  HIT:      82376  MISS:     134115  iACCESS:          0  iHIT:          0  iMISS:          0  dACCESS:     216491  dHIT:      82376  dMISS:     134115  itACCESS:          0  itHIT:          0  itMISS:          0  dtACCESS:          0  dtHIT:          0  dtMISS:          0
cpu0_L2C PREFETCH     ACCESS:    5551684  HIT:    2685949  MISS:    2865735  iACCESS:    2955669  iHIT:    1755088  iMISS:    1200581  dACCESS:    2596015  dHIT:     930861  dMISS:    1665154  itACCESS:          0  itHIT:          0  itMISS:          0  dtACCESS:          0  dtHIT:          0  dtMISS:          0
cpu0_L2C WRITE        ACCESS:     345644  HIT:     341462  MISS:       4182  iACCESS:          0  iHIT:          0  iMISS:          0  dACCESS:     345644  dHIT:     341462  dMISS:       4182  itACCESS:          0  itHIT:          0  itMISS:          0  dtACCESS:          0  dtHIT:          0  dtMISS:          0
cpu0_L2C TRANSLATION  ACCESS:     503895  HIT:      60803  MISS:     443092  iACCESS:          0  iHIT:          0  iMISS:          0  dACCESS:          0  dHIT:          0  dMISS:          0  itACCESS:     117372  itHIT:      21858  itMISS:      95514  dtACCESS:     386523  dtHIT:      38945  dtMISS:     347578
cpu0_L2C PREFETCH  REQUESTED:    1536996  ISSUED:    1536995  CROSSED:          0  USEFUL:     359329  USELESS:     330891
cpu0_L2C AVERAGE iMISS LATENCY: 41.5872 cycles
cpu0_L2C AVERAGE dMISS LATENCY: 81.1627 cycles
cpu0_L2C AVERAGE itMISS LATENCY: 3.91449 cycles
cpu0_L2C AVERAGE dtMISS LATENCY: 14.9887 cycles
cpu0_L2C PAGE CROSSINGS (TLB HIT):         0 
cpu0_L2C PAGE CROSSINGS (TLB MISS):         0 
cpu0_L2C AVERAGE MISS LATENCY: 141.653 cycles
LLC TOTAL       ACCESS:    4499054  HIT:    1288176  MISS:    3210878  iACCESS:    1422586  iHIT:     419262  iMISS:    1003324  dACCESS:    2633376  dHIT:     826873  dMISS:    1806503  itACCESS:      95514  itHIT:       7545  itMISS:      87969  dtACCESS:     347578  dtHIT:      34496  dtMISS:     313082
LLC LOAD         ACCESS:    1057540  HIT:     317256  MISS:     740284  iACCESS:     313118  iHIT:      98328  iMISS:     214790  dACCESS:     744422  dHIT:     218928  dMISS:     525494  itACCESS:          0  itHIT:          0  itMISS:          0  dtACCESS:          0  dtHIT:          0  dtMISS:          0
LLC RFO          ACCESS:     134104  HIT:      38610  MISS:      95494  iACCESS:          0  iHIT:          0  iMISS:          0  dACCESS:     134104  dHIT:      38610  dMISS:      95494  itACCESS:          0  itHIT:          0  itMISS:          0  dtACCESS:          0  dtHIT:          0  dtMISS:          0
LLC PREFETCH     ACCESS:    2649870  HIT:     686463  MISS:    1963407  iACCESS:    1109468  iHIT:     320934  iMISS:     788534  dACCESS:    1540402  dHIT:     365529  dMISS:    1174873  itACCESS:          0  itHIT:          0  itMISS:          0  dtACCESS:          0  dtHIT:          0  dtMISS:          0
LLC WRITE        ACCESS:     214448  HIT:     203806  MISS:      10642  iACCESS:          0  iHIT:          0  iMISS:          0  dACCESS:     214448  dHIT:     203806  dMISS:      10642  itACCESS:          0  itHIT:          0  itMISS:          0  dtACCESS:          0  dtHIT:          0  dtMISS:          0
LLC TRANSLATION  ACCESS:     443092  HIT:      42041  MISS:     401051  iACCESS:          0  iHIT:          0  iMISS:          0  dACCESS:          0  dHIT:          0  dMISS:          0  itACCESS:      95514  itHIT:       7545  itMISS:      87969  dtACCESS:     347578  dtHIT:      34496  dtMISS:     313082
LLC PREFETCH  REQUESTED:          0  ISSUED:          0  CROSSED:          0  USEFUL:          0  USELESS:          0
LLC AVERAGE iMISS LATENCY: 49.7108 cycles
LLC AVERAGE dMISS LATENCY: 100.277 cycles
LLC AVERAGE itMISS LATENCY: 4.91173 cycles
LLC AVERAGE dtMISS LATENCY: 18.9252 cycles
LLC PAGE CROSSINGS (TLB HIT):         0 
LLC PAGE CROSSINGS (TLB MISS):         0 
LLC AVERAGE MISS LATENCY: 173.824 cycles

PageTableWalker TOTAL       ACCESS:     198193  
PageTableWalker AVERAGE LATENCY: 6.54212 cycles
PageTableWalker TOTAL LATENCY: 1296601 cycles

DRAM Statistics
Channel 0
 RQ ROW_BUFFER_HIT:     655504
  ROW_BUFFER_MISS:    2523831
 AVG DBUS CONGESTED CYCLE:    3.65188
 WQ ROW_BUFFER_HIT:      68720
  ROW_BUFFER_MISS:      58829  FULL:          0

