last_page:0x200000000000000
VMEM_RES_CAP:0x100000
PAGE_SIZE:4096
LOG2_PAGE_SIZE:12
LOG2_PAGE_TABLE_SIZE:9
page_table_levels:5
WARNING: physical memory size is smaller than virtual memory size
FDiP enabled with aggresivity 16

*** ChampSim Multicore Out-of-Order Simulator ***

Warmup Instructions: 50000000
Simulation Instructions: 100000000
Number of CPUs: 1
Small page size: 4096
Large page size: 2097152

CPU 0 Bimodal branch predictor
Basic BTB sets: 1024 ways: 8 indirect buffer size: 4096 RAS size: 64
Instruction page size distrubution: 0
Loading instruction page size distribution from /home/bsc/bsc018186/scratch/itp_asplos25_AE/dump/smt_srv537_ap_srv526_ap_1024i.pdst
Data page size distrubution: 0
Loading data page size distribution from /home/bsc/bsc018186/scratch/itp_asplos25_AE/dump/smt_srv537_ap_srv526_ap_1024i.pdst
cpu0_L2C IP-based stride prefetcher
cpu0_L2C is using xPTP/LRU
	TLB_LOWER_STRESS_THRESHOLD:1
	TLB_UPPER_STRESS_THRESHOLD:4
	MIN_EVICTION_POSITION:4
cpu0_L1D next line prefetcher
cpu0_STLB using iTP with max lru@8
cpu0_STLB using iTP with instr@0 and data@2
Init sat counter with 3 bits (max:50).
cpu0_L1I next line prefetcher
Off-chip DRAM Size: 4 GiB Channels: 1 Width: 64-bit Data Rate: 3200 MT/s
Heartbeat CPU 0 instructions: 10000003 cycles: 2500412 heartbeat IPC: 3.99935 cumulative IPC: 3.99935 (Simulation time: 0 hr 0 min 37 sec) 
Heartbeat CPU 0 instructions: 20000002 cycles: 5000677 heartbeat IPC: 3.99958 cumulative IPC: 3.99946 (Simulation time: 0 hr 1 min 16 sec) 
Heartbeat CPU 0 instructions: 30000002 cycles: 7582514 heartbeat IPC: 3.87322 cumulative IPC: 3.95648 (Simulation time: 0 hr 1 min 56 sec) 
Heartbeat CPU 0 instructions: 40000001 cycles: 10124098 heartbeat IPC: 3.93456 cumulative IPC: 3.95097 (Simulation time: 0 hr 2 min 37 sec) 
Heartbeat CPU 0 instructions: 50000001 cycles: 12648099 heartbeat IPC: 3.96197 cumulative IPC: 3.95317 (Simulation time: 0 hr 3 min 18 sec) 
Warmup finished CPU 0 instructions: 50000001 cycles: 12648100 cumulative IPC: 3.95317 (Simulation time: 0 hr 3 min 18 sec) 

Warmup complete CPU 0 instructions: 50000001 cycles: 12648100 (Simulation time: 0 hr 3 min 18 sec) 

Heartbeat CPU 0 instructions: 60000002 cycles: 38953537 heartbeat IPC: 0.38015 cumulative IPC: 0.38015 (Simulation time: 0 hr 4 min 36 sec) 
Heartbeat CPU 0 instructions: 70000004 cycles: 66270419 heartbeat IPC: 0.366075 cumulative IPC: 0.37298 (Simulation time: 0 hr 5 min 56 sec) 
Heartbeat CPU 0 instructions: 80000003 cycles: 92649715 heartbeat IPC: 0.379086 cumulative IPC: 0.374993 (Simulation time: 0 hr 7 min 15 sec) 
Heartbeat CPU 0 instructions: 90000000 cycles: 118295564 heartbeat IPC: 0.389927 cumulative IPC: 0.378618 (Simulation time: 0 hr 8 min 33 sec) 
Heartbeat CPU 0 instructions: 100000000 cycles: 144743243 heartbeat IPC: 0.378106 cumulative IPC: 0.378516 (Simulation time: 0 hr 9 min 52 sec) 
Heartbeat CPU 0 instructions: 110000000 cycles: 172241634 heartbeat IPC: 0.363658 cumulative IPC: 0.375956 (Simulation time: 0 hr 11 min 12 sec) 
Heartbeat CPU 0 instructions: 120000000 cycles: 198042238 heartbeat IPC: 0.387588 cumulative IPC: 0.377574 (Simulation time: 0 hr 12 min 30 sec) 
Heartbeat CPU 0 instructions: 130000002 cycles: 223806112 heartbeat IPC: 0.388141 cumulative IPC: 0.378864 (Simulation time: 0 hr 13 min 48 sec) 
Heartbeat CPU 0 instructions: 140000001 cycles: 250541112 heartbeat IPC: 0.374042 cumulative IPC: 0.378322 (Simulation time: 0 hr 15 min 8 sec) 
Heartbeat CPU 0 instructions: 150000002 cycles: 278029906 heartbeat IPC: 0.363785 cumulative IPC: 0.376816 (Simulation time: 0 hr 16 min 29 sec) 
Simulation finished CPU 0 instructions: 100000001 cycles: 265381807 cumulative IPC: 0.376816 (Simulation time: 0 hr 16 min 29 sec) 

Simulation complete CPU 0 instructions: 100000001 cycles: 265381807 (Simulation time: 0 hr 16 min 29 sec) 


ChampSim completed all CPUs

Saving instructions large page distribution to /home/bsc/bsc018186/scratch/itp_asplos25_AE/dump/smt_srv537_ap_srv526_ap_1024i.pdst...
Saving data large page distribution to /home/bsc/bsc018186/scratch/itp_asplos25_AE/dump/smt_srv537_ap_srv526_ap_1024i.pdst...
=== Simulation ===
CPU 0 runs /gpfs/projects/bsc18/MN4/bsc18/romol/ChampSim/traces/qualcomm_srv/smt_srv537_ap_srv526_ap_1024i.champsimtrace.xz

Region of Interest Statistics

CPU 0 cumulative IPC: 0.376816 instructions: 100000001 cycles: 265381807
CPU 0 Branch Prediction Accuracy: 75.7102% MPKI: 43.8363 Average ROB Occupancy at Mispredict: 10.764
Branch type MPKI
BRANCH_DIRECT_JUMP: 1.42956
BRANCH_INDIRECT: 22.5855
BRANCH_CONDITIONAL: 12.6334
BRANCH_DIRECT_CALL: 2.6387
BRANCH_INDIRECT_CALL: 0.99801
BRANCH_RETURN: 3.55119

Instructions large pages: 0
Instructions small pages: 13979
Large page distribution for instructions: 0%

Data large pages: 0
Data small pages: 12573
Large page distribution for data: 0%

cpu0_L1I TOTAL       ACCESS:   39063727  HIT:   30073459  MISS:    8990268  iACCESS:   39063727  iHIT:   30073459  iMISS:    8990268  dACCESS:          0  dHIT:          0  dMISS:          0  itACCESS:          0  itHIT:          0  itMISS:          0  dtACCESS:          0  dtHIT:          0  dtMISS:          0
cpu0_L1I LOAD         ACCESS:   11632528  HIT:    9170026  MISS:    2462502  iACCESS:   11632528  iHIT:    9170026  iMISS:    2462502  dACCESS:          0  dHIT:          0  dMISS:          0  itACCESS:          0  itHIT:          0  itMISS:          0  dtACCESS:          0  dtHIT:          0  dtMISS:          0
cpu0_L1I RFO          ACCESS:          0  HIT:          0  MISS:          0  iACCESS:          0  iHIT:          0  iMISS:          0  dACCESS:          0  dHIT:          0  dMISS:          0  itACCESS:          0  itHIT:          0  itMISS:          0  dtACCESS:          0  dtHIT:          0  dtMISS:          0
cpu0_L1I PREFETCH     ACCESS:   27431199  HIT:   20903433  MISS:    6527766  iACCESS:   27431199  iHIT:   20903433  iMISS:    6527766  dACCESS:          0  dHIT:          0  dMISS:          0  itACCESS:          0  itHIT:          0  itMISS:          0  dtACCESS:          0  dtHIT:          0  dtMISS:          0
cpu0_L1I WRITE        ACCESS:          0  HIT:          0  MISS:          0  iACCESS:          0  iHIT:          0  iMISS:          0  dACCESS:          0  dHIT:          0  dMISS:          0  itACCESS:          0  itHIT:          0  itMISS:          0  dtACCESS:          0  dtHIT:          0  dtMISS:          0
cpu0_L1I TRANSLATION  ACCESS:          0  HIT:          0  MISS:          0  iACCESS:          0  iHIT:          0  iMISS:          0  dACCESS:          0  dHIT:          0  dMISS:          0  itACCESS:          0  itHIT:          0  itMISS:          0  dtACCESS:          0  dtHIT:          0  dtMISS:          0
cpu0_L1I PREFETCH  REQUESTED:   30119824  ISSUED:   30119526  CROSSED:          0  USEFUL:    2207996  USELESS:     767058
cpu0_L1I AVERAGE iMISS LATENCY: 22.2915 cycles
cpu0_L1I AVERAGE dMISS LATENCY: 0 cycles
cpu0_L1I AVERAGE itMISS LATENCY: 0 cycles
cpu0_L1I AVERAGE dtMISS LATENCY: 0 cycles
cpu0_L1I PAGE CROSSINGS (TLB HIT):         0 
cpu0_L1I PAGE CROSSINGS (TLB MISS):         0 
cpu0_L1I AVERAGE MISS LATENCY: 22.2915 cycles
cpu0_ITLB TOTAL       ACCESS:   33011887  HIT:   30747034  MISS:    2264853  iACCESS:   33011887  iHIT:   30747034  iMISS:    2264853  dACCESS:          0  dHIT:          0  dMISS:          0  itACCESS:          0  itHIT:          0  itMISS:          0  dtACCESS:          0  dtHIT:          0  dtMISS:          0
cpu0_ITLB LOAD         ACCESS:   33011887  HIT:   30747034  MISS:    2264853  iACCESS:   33011887  iHIT:   30747034  iMISS:    2264853  dACCESS:          0  dHIT:          0  dMISS:          0  itACCESS:          0  itHIT:          0  itMISS:          0  dtACCESS:          0  dtHIT:          0  dtMISS:          0
cpu0_ITLB RFO          ACCESS:          0  HIT:          0  MISS:          0  iACCESS:          0  iHIT:          0  iMISS:          0  dACCESS:          0  dHIT:          0  dMISS:          0  itACCESS:          0  itHIT:          0  itMISS:          0  dtACCESS:          0  dtHIT:          0  dtMISS:          0
cpu0_ITLB PREFETCH     ACCESS:          0  HIT:          0  MISS:          0  iACCESS:          0  iHIT:          0  iMISS:          0  dACCESS:          0  dHIT:          0  dMISS:          0  itACCESS:          0  itHIT:          0  itMISS:          0  dtACCESS:          0  dtHIT:          0  dtMISS:          0
cpu0_ITLB WRITE        ACCESS:          0  HIT:          0  MISS:          0  iACCESS:          0  iHIT:          0  iMISS:          0  dACCESS:          0  dHIT:          0  dMISS:          0  itACCESS:          0  itHIT:          0  itMISS:          0  dtACCESS:          0  dtHIT:          0  dtMISS:          0
cpu0_ITLB TRANSLATION  ACCESS:          0  HIT:          0  MISS:          0  iACCESS:          0  iHIT:          0  iMISS:          0  dACCESS:          0  dHIT:          0  dMISS:          0  itACCESS:          0  itHIT:          0  itMISS:          0  dtACCESS:          0  dtHIT:          0  dtMISS:          0
cpu0_ITLB PREFETCH  REQUESTED:          0  ISSUED:          0  CROSSED:          0  USEFUL:     395340  USELESS:      83549
cpu0_ITLB AVERAGE iMISS LATENCY: 6.11501 cycles
cpu0_ITLB AVERAGE dMISS LATENCY: 0 cycles
cpu0_ITLB AVERAGE itMISS LATENCY: 0 cycles
cpu0_ITLB AVERAGE dtMISS LATENCY: 0 cycles
cpu0_ITLB PAGE CROSSINGS (TLB HIT):         0 
cpu0_ITLB PAGE CROSSINGS (TLB MISS):         0 
cpu0_ITLB AVERAGE MISS LATENCY: 6.11501 cycles
cpu0_DTLB TOTAL       ACCESS:   28904558  HIT:   25464267  MISS:    3440291  iACCESS:          0  iHIT:          0  iMISS:          0  dACCESS:   28904558  dHIT:   25464267  dMISS:    3440291  itACCESS:          0  itHIT:          0  itMISS:          0  dtACCESS:          0  dtHIT:          0  dtMISS:          0
cpu0_DTLB LOAD         ACCESS:   28904558  HIT:   25464267  MISS:    3440291  iACCESS:          0  iHIT:          0  iMISS:          0  dACCESS:   28904558  dHIT:   25464267  dMISS:    3440291  itACCESS:          0  itHIT:          0  itMISS:          0  dtACCESS:          0  dtHIT:          0  dtMISS:          0
cpu0_DTLB RFO          ACCESS:          0  HIT:          0  MISS:          0  iACCESS:          0  iHIT:          0  iMISS:          0  dACCESS:          0  dHIT:          0  dMISS:          0  itACCESS:          0  itHIT:          0  itMISS:          0  dtACCESS:          0  dtHIT:          0  dtMISS:          0
cpu0_DTLB PREFETCH     ACCESS:          0  HIT:          0  MISS:          0  iACCESS:          0  iHIT:          0  iMISS:          0  dACCESS:          0  dHIT:          0  dMISS:          0  itACCESS:          0  itHIT:          0  itMISS:          0  dtACCESS:          0  dtHIT:          0  dtMISS:          0
cpu0_DTLB WRITE        ACCESS:          0  HIT:          0  MISS:          0  iACCESS:          0  iHIT:          0  iMISS:          0  dACCESS:          0  dHIT:          0  dMISS:          0  itACCESS:          0  itHIT:          0  itMISS:          0  dtACCESS:          0  dtHIT:          0  dtMISS:          0
cpu0_DTLB TRANSLATION  ACCESS:          0  HIT:          0  MISS:          0  iACCESS:          0  iHIT:          0  iMISS:          0  dACCESS:          0  dHIT:          0  dMISS:          0  itACCESS:          0  itHIT:          0  itMISS:          0  dtACCESS:          0  dtHIT:          0  dtMISS:          0
cpu0_DTLB PREFETCH  REQUESTED:          0  ISSUED:          0  CROSSED:          0  USEFUL:          0  USELESS:          0
cpu0_DTLB AVERAGE iMISS LATENCY: 0 cycles
cpu0_DTLB AVERAGE dMISS LATENCY: 19.0524 cycles
cpu0_DTLB AVERAGE itMISS LATENCY: 0 cycles
cpu0_DTLB AVERAGE dtMISS LATENCY: 0 cycles
cpu0_DTLB PAGE CROSSINGS (TLB HIT):         0 
cpu0_DTLB PAGE CROSSINGS (TLB MISS):         0 
cpu0_DTLB AVERAGE MISS LATENCY: 19.0524 cycles
cpu0_STLB TOTAL       ACCESS:    2434188  HIT:    2066799  MISS:     367389  iACCESS:     478899  iHIT:     415564  iMISS:      63335  dACCESS:    1955289  dHIT:    1651235  dMISS:     304054  itACCESS:          0  itHIT:          0  itMISS:          0  dtACCESS:          0  dtHIT:          0  dtMISS:          0
cpu0_STLB LOAD         ACCESS:    2434188  HIT:    2066799  MISS:     367389  iACCESS:     478899  iHIT:     415564  iMISS:      63335  dACCESS:    1955289  dHIT:    1651235  dMISS:     304054  itACCESS:          0  itHIT:          0  itMISS:          0  dtACCESS:          0  dtHIT:          0  dtMISS:          0
cpu0_STLB RFO          ACCESS:          0  HIT:          0  MISS:          0  iACCESS:          0  iHIT:          0  iMISS:          0  dACCESS:          0  dHIT:          0  dMISS:          0  itACCESS:          0  itHIT:          0  itMISS:          0  dtACCESS:          0  dtHIT:          0  dtMISS:          0
cpu0_STLB PREFETCH     ACCESS:          0  HIT:          0  MISS:          0  iACCESS:          0  iHIT:          0  iMISS:          0  dACCESS:          0  dHIT:          0  dMISS:          0  itACCESS:          0  itHIT:          0  itMISS:          0  dtACCESS:          0  dtHIT:          0  dtMISS:          0
cpu0_STLB WRITE        ACCESS:          0  HIT:          0  MISS:          0  iACCESS:          0  iHIT:          0  iMISS:          0  dACCESS:          0  dHIT:          0  dMISS:          0  itACCESS:          0  itHIT:          0  itMISS:          0  dtACCESS:          0  dtHIT:          0  dtMISS:          0
cpu0_STLB TRANSLATION  ACCESS:          0  HIT:          0  MISS:          0  iACCESS:          0  iHIT:          0  iMISS:          0  dACCESS:          0  dHIT:          0  dMISS:          0  itACCESS:          0  itHIT:          0  itMISS:          0  dtACCESS:          0  dtHIT:          0  dtMISS:          0
cpu0_STLB PREFETCH  REQUESTED:          0  ISSUED:          0  CROSSED:          0  USEFUL:          0  USELESS:          0
cpu0_STLB AVERAGE iMISS LATENCY: 27.4359 cycles
cpu0_STLB AVERAGE dMISS LATENCY: 135.529 cycles
cpu0_STLB AVERAGE itMISS LATENCY: 0 cycles
cpu0_STLB AVERAGE dtMISS LATENCY: 0 cycles
cpu0_STLB PAGE CROSSINGS (TLB HIT):         0 
cpu0_STLB PAGE CROSSINGS (TLB MISS):         0 
cpu0_STLB AVERAGE MISS LATENCY: 162.965 cycles
cpu0_L1D TOTAL       ACCESS:   44704384  HIT:   39253551  MISS:    5450833  iACCESS:          0  iHIT:          0  iMISS:          0  dACCESS:   44137661  dHIT:   39223249  dMISS:    4914412  itACCESS:      74412  itHIT:       6311  itMISS:      68101  dtACCESS:     492311  dtHIT:      23991  dtMISS:     468320
cpu0_L1D LOAD         ACCESS:   20089176  HIT:   17897877  MISS:    2191299  iACCESS:          0  iHIT:          0  iMISS:          0  dACCESS:   20089176  dHIT:   17897877  dMISS:    2191299  itACCESS:          0  itHIT:          0  itMISS:          0  dtACCESS:          0  dtHIT:          0  dtMISS:          0
cpu0_L1D RFO          ACCESS:          0  HIT:          0  MISS:          0  iACCESS:          0  iHIT:          0  iMISS:          0  dACCESS:          0  dHIT:          0  dMISS:          0  itACCESS:          0  itHIT:          0  itMISS:          0  dtACCESS:          0  dtHIT:          0  dtMISS:          0
cpu0_L1D PREFETCH     ACCESS:   13787949  HIT:   11646566  MISS:    2141383  iACCESS:          0  iHIT:          0  iMISS:          0  dACCESS:   13787949  dHIT:   11646566  dMISS:    2141383  itACCESS:          0  itHIT:          0  itMISS:          0  dtACCESS:          0  dtHIT:          0  dtMISS:          0
cpu0_L1D WRITE        ACCESS:   10260536  HIT:    9678806  MISS:     581730  iACCESS:          0  iHIT:          0  iMISS:          0  dACCESS:   10260536  dHIT:    9678806  dMISS:     581730  itACCESS:          0  itHIT:          0  itMISS:          0  dtACCESS:          0  dtHIT:          0  dtMISS:          0
cpu0_L1D TRANSLATION  ACCESS:     566723  HIT:      30302  MISS:     536421  iACCESS:          0  iHIT:          0  iMISS:          0  dACCESS:          0  dHIT:          0  dMISS:          0  itACCESS:      74412  itHIT:       6311  itMISS:      68101  dtACCESS:     492311  dtHIT:      23991  dtMISS:     468320
cpu0_L1D PREFETCH  REQUESTED:   20089176  ISSUED:   18384607  CROSSED:          0  USEFUL:     366360  USELESS:     918228
cpu0_L1D AVERAGE iMISS LATENCY: 0 cycles
cpu0_L1D AVERAGE dMISS LATENCY: 49.2004 cycles
cpu0_L1D AVERAGE itMISS LATENCY: 1.73023 cycles
cpu0_L1D AVERAGE dtMISS LATENCY: 8.04482 cycles
cpu0_L1D PAGE CROSSINGS (TLB HIT):         0 
cpu0_L1D PAGE CROSSINGS (TLB MISS):         0 
cpu0_L1D AVERAGE MISS LATENCY: 58.9755 cycles
cpu0_L2C TOTAL       ACCESS:    8588080  HIT:    2473298  MISS:    6114782  iACCESS:    3788941  iHIT:    1416342  iMISS:    2372599  dACCESS:    4292148  dHIT:     828639  dMISS:    3463509  itACCESS:      67963  itHIT:      15063  itMISS:      52900  dtACCESS:     439028  dtHIT:     213254  dtMISS:     225774
cpu0_L2C LOAD         ACCESS:    2053147  HIT:     481937  MISS:    1571210  iACCESS:     848435  iHIT:     287406  iMISS:     561029  dACCESS:    1204712  dHIT:     194531  dMISS:    1010181  itACCESS:          0  itHIT:          0  itMISS:          0  dtACCESS:          0  dtHIT:          0  dtMISS:          0
cpu0_L2C RFO          ACCESS:     219486  HIT:      30742  MISS:     188744  iACCESS:          0  iHIT:          0  iMISS:          0  dACCESS:     219486  dHIT:      30742  dMISS:     188744  itACCESS:          0  itHIT:          0  itMISS:          0  dtACCESS:          0  dtHIT:          0  dtMISS:          0
cpu0_L2C PREFETCH     ACCESS:    5460600  HIT:    1609845  MISS:    3850755  iACCESS:    2940506  iHIT:    1128936  iMISS:    1811570  dACCESS:    2520094  dHIT:     480909  dMISS:    2039185  itACCESS:          0  itHIT:          0  itMISS:          0  dtACCESS:          0  dtHIT:          0  dtMISS:          0
cpu0_L2C WRITE        ACCESS:     347856  HIT:     122457  MISS:     225399  iACCESS:          0  iHIT:          0  iMISS:          0  dACCESS:     347856  dHIT:     122457  dMISS:     225399  itACCESS:          0  itHIT:          0  itMISS:          0  dtACCESS:          0  dtHIT:          0  dtMISS:          0
cpu0_L2C TRANSLATION  ACCESS:     506991  HIT:     228317  MISS:     278674  iACCESS:          0  iHIT:          0  iMISS:          0  dACCESS:          0  dHIT:          0  dMISS:          0  itACCESS:      67963  itHIT:      15063  itMISS:      52900  dtACCESS:     439028  dtHIT:     213254  dtMISS:     225774
cpu0_L2C PREFETCH  REQUESTED:    1469540  ISSUED:    1469540  CROSSED:          0  USEFUL:     372487  USELESS:     433208
cpu0_L2C AVERAGE iMISS LATENCY: 27.4722 cycles
cpu0_L2C AVERAGE dMISS LATENCY: 53.5618 cycles
cpu0_L2C AVERAGE itMISS LATENCY: 1.43337 cycles
cpu0_L2C AVERAGE dtMISS LATENCY: 6.48488 cycles
cpu0_L2C PAGE CROSSINGS (TLB HIT):         0 
cpu0_L2C PAGE CROSSINGS (TLB MISS):         0 
cpu0_L2C AVERAGE MISS LATENCY: 88.9522 cycles
LLC TOTAL       ACCESS:    5965901  HIT:    3421971  MISS:    2543930  iACCESS:    2285262  iHIT:    1498427  iMISS:     786835  dACCESS:    3401965  dHIT:    1875671  dMISS:    1526294  itACCESS:      52900  itHIT:       9274  itMISS:      43626  dtACCESS:     225774  dtHIT:      38599  dtMISS:     187175
LLC LOAD         ACCESS:    1565343  HIT:     957338  MISS:     608005  iACCESS:     559641  iHIT:     395735  iMISS:     163906  dACCESS:    1005702  dHIT:     561603  dMISS:     444099  itACCESS:          0  itHIT:          0  itMISS:          0  dtACCESS:          0  dtHIT:          0  dtMISS:          0
LLC RFO          ACCESS:     188720  HIT:      95776  MISS:      92944  iACCESS:          0  iHIT:          0  iMISS:          0  dACCESS:     188720  dHIT:      95776  dMISS:      92944  itACCESS:          0  itHIT:          0  itMISS:          0  dtACCESS:          0  dtHIT:          0  dtMISS:          0
LLC PREFETCH     ACCESS:    3651414  HIT:    2043518  MISS:    1607896  iACCESS:    1725621  iHIT:    1102692  iMISS:     622929  dACCESS:    1925793  dHIT:     940826  dMISS:     984967  itACCESS:          0  itHIT:          0  itMISS:          0  dtACCESS:          0  dtHIT:          0  dtMISS:          0
LLC WRITE        ACCESS:     281750  HIT:     277466  MISS:       4284  iACCESS:          0  iHIT:          0  iMISS:          0  dACCESS:     281750  dHIT:     277466  dMISS:       4284  itACCESS:          0  itHIT:          0  itMISS:          0  dtACCESS:          0  dtHIT:          0  dtMISS:          0
LLC TRANSLATION  ACCESS:     278674  HIT:      47873  MISS:     230801  iACCESS:          0  iHIT:          0  iMISS:          0  dACCESS:          0  dHIT:          0  dMISS:          0  itACCESS:      52900  itHIT:       9274  itMISS:      43626  dtACCESS:     225774  dtHIT:      38599  dtMISS:     187175
LLC PREFETCH  REQUESTED:          0  ISSUED:          0  CROSSED:          0  USEFUL:          0  USELESS:          0
LLC AVERAGE iMISS LATENCY: 48.5668 cycles
LLC AVERAGE dMISS LATENCY: 105.468 cycles
LLC AVERAGE itMISS LATENCY: 3.03463 cycles
LLC AVERAGE dtMISS LATENCY: 13.8351 cycles
LLC PAGE CROSSINGS (TLB HIT):         0 
LLC PAGE CROSSINGS (TLB MISS):         0 
LLC AVERAGE MISS LATENCY: 170.905 cycles

PageTableWalker TOTAL       ACCESS:     128398  
PageTableWalker AVERAGE LATENCY: 6.08889 cycles
PageTableWalker TOTAL LATENCY: 781801 cycles

DRAM Statistics
Channel 0
 RQ ROW_BUFFER_HIT:     572315
  ROW_BUFFER_MISS:    1956958
 AVG DBUS CONGESTED CYCLE:    3.65588
 WQ ROW_BUFFER_HIT:      63146
  ROW_BUFFER_MISS:      65427  FULL:          0

