last_page:0x200000000000000
VMEM_RES_CAP:0x100000
PAGE_SIZE:4096
LOG2_PAGE_SIZE:12
LOG2_PAGE_TABLE_SIZE:9
page_table_levels:5
WARNING: physical memory size is smaller than virtual memory size
FDiP enabled with aggresivity 16

*** ChampSim Multicore Out-of-Order Simulator ***

Warmup Instructions: 50000000
Simulation Instructions: 100000000
Number of CPUs: 1
Small page size: 4096
Large page size: 2097152

CPU 0 Bimodal branch predictor
Basic BTB sets: 1024 ways: 8 indirect buffer size: 4096 RAS size: 64
Instruction page size distrubution: 0
Loading instruction page size distribution from /home/bsc/bsc018186/scratch/itp_asplos25_AE/dump/smt_srv85_ap_srv442_ap_1024i.pdst
Data page size distrubution: 0
Loading data page size distribution from /home/bsc/bsc018186/scratch/itp_asplos25_AE/dump/smt_srv85_ap_srv442_ap_1024i.pdst
cpu0_L2C IP-based stride prefetcher
cpu0_L1D next line prefetcher
cpu0_STLB using iTP with max lru@8
cpu0_STLB using iTP with instr@0 and data@2
Init sat counter with 3 bits (max:50).
cpu0_L1I next line prefetcher
Off-chip DRAM Size: 4 GiB Channels: 1 Width: 64-bit Data Rate: 3200 MT/s
Heartbeat CPU 0 instructions: 10000003 cycles: 2500337 heartbeat IPC: 3.99947 cumulative IPC: 3.99947 (Simulation time: 0 hr 0 min 38 sec) 
Heartbeat CPU 0 instructions: 20000002 cycles: 5000428 heartbeat IPC: 3.99986 cumulative IPC: 3.99966 (Simulation time: 0 hr 1 min 17 sec) 
Heartbeat CPU 0 instructions: 30000000 cycles: 7500540 heartbeat IPC: 3.99983 cumulative IPC: 3.99972 (Simulation time: 0 hr 1 min 57 sec) 
Heartbeat CPU 0 instructions: 40000002 cycles: 10000718 heartbeat IPC: 3.99972 cumulative IPC: 3.99972 (Simulation time: 0 hr 2 min 37 sec) 
Heartbeat CPU 0 instructions: 50000003 cycles: 12500946 heartbeat IPC: 3.99964 cumulative IPC: 3.9997 (Simulation time: 0 hr 3 min 18 sec) 
Warmup finished CPU 0 instructions: 50000003 cycles: 12500947 cumulative IPC: 3.9997 (Simulation time: 0 hr 3 min 18 sec) 

Warmup complete CPU 0 instructions: 50000003 cycles: 12500947 (Simulation time: 0 hr 3 min 18 sec) 

Heartbeat CPU 0 instructions: 60000000 cycles: 40689525 heartbeat IPC: 0.354754 cumulative IPC: 0.354754 (Simulation time: 0 hr 4 min 39 sec) 
Heartbeat CPU 0 instructions: 70000004 cycles: 68889238 heartbeat IPC: 0.354614 cumulative IPC: 0.354684 (Simulation time: 0 hr 6 min 0 sec) 
Heartbeat CPU 0 instructions: 80000000 cycles: 98586070 heartbeat IPC: 0.336737 cumulative IPC: 0.348493 (Simulation time: 0 hr 7 min 24 sec) 
Heartbeat CPU 0 instructions: 90000002 cycles: 127559995 heartbeat IPC: 0.345138 cumulative IPC: 0.347648 (Simulation time: 0 hr 8 min 47 sec) 
Heartbeat CPU 0 instructions: 100000000 cycles: 156234621 heartbeat IPC: 0.348741 cumulative IPC: 0.347866 (Simulation time: 0 hr 10 min 9 sec) 
Heartbeat CPU 0 instructions: 110000002 cycles: 185566292 heartbeat IPC: 0.340929 cumulative IPC: 0.34669 (Simulation time: 0 hr 11 min 32 sec) 
Heartbeat CPU 0 instructions: 120000002 cycles: 213782048 heartbeat IPC: 0.354412 cumulative IPC: 0.347773 (Simulation time: 0 hr 12 min 54 sec) 
Heartbeat CPU 0 instructions: 130000000 cycles: 243343924 heartbeat IPC: 0.338274 cumulative IPC: 0.346556 (Simulation time: 0 hr 14 min 17 sec) 
Heartbeat CPU 0 instructions: 140000004 cycles: 271488085 heartbeat IPC: 0.355314 cumulative IPC: 0.347508 (Simulation time: 0 hr 15 min 39 sec) 
Heartbeat CPU 0 instructions: 150000000 cycles: 300825635 heartbeat IPC: 0.34086 cumulative IPC: 0.346832 (Simulation time: 0 hr 17 min 2 sec) 
Simulation finished CPU 0 instructions: 100000002 cycles: 288324690 cumulative IPC: 0.346832 (Simulation time: 0 hr 17 min 2 sec) 

Simulation complete CPU 0 instructions: 100000002 cycles: 288324690 (Simulation time: 0 hr 17 min 2 sec) 


ChampSim completed all CPUs

Saving instructions large page distribution to /home/bsc/bsc018186/scratch/itp_asplos25_AE/dump/smt_srv85_ap_srv442_ap_1024i.pdst...
Saving data large page distribution to /home/bsc/bsc018186/scratch/itp_asplos25_AE/dump/smt_srv85_ap_srv442_ap_1024i.pdst...
=== Simulation ===
CPU 0 runs /gpfs/projects/bsc18/MN4/bsc18/romol/ChampSim/traces/qualcomm_srv/smt_srv85_ap_srv442_ap_1024i.champsimtrace.xz

Region of Interest Statistics

CPU 0 cumulative IPC: 0.346832 instructions: 100000002 cycles: 288324690
CPU 0 Branch Prediction Accuracy: 76.4168% MPKI: 42.5144 Average ROB Occupancy at Mispredict: 11.5954
Branch type MPKI
BRANCH_DIRECT_JUMP: 1.30149
BRANCH_INDIRECT: 22.8738
BRANCH_CONDITIONAL: 11.5762
BRANCH_DIRECT_CALL: 2.38344
BRANCH_INDIRECT_CALL: 0.99014
BRANCH_RETURN: 3.38931

Instructions large pages: 0
Instructions small pages: 10002
Large page distribution for instructions: 0%

Data large pages: 0
Data small pages: 8864
Large page distribution for data: 0%

cpu0_L1I TOTAL       ACCESS:   38880378  HIT:   30004731  MISS:    8875647  iACCESS:   38880378  iHIT:   30004731  iMISS:    8875647  dACCESS:          0  dHIT:          0  dMISS:          0  itACCESS:          0  itHIT:          0  itMISS:          0  dtACCESS:          0  dtHIT:          0  dtMISS:          0
cpu0_L1I LOAD         ACCESS:   11670874  HIT:    9220411  MISS:    2450463  iACCESS:   11670874  iHIT:    9220411  iMISS:    2450463  dACCESS:          0  dHIT:          0  dMISS:          0  itACCESS:          0  itHIT:          0  itMISS:          0  dtACCESS:          0  dtHIT:          0  dtMISS:          0
cpu0_L1I RFO          ACCESS:          0  HIT:          0  MISS:          0  iACCESS:          0  iHIT:          0  iMISS:          0  dACCESS:          0  dHIT:          0  dMISS:          0  itACCESS:          0  itHIT:          0  itMISS:          0  dtACCESS:          0  dtHIT:          0  dtMISS:          0
cpu0_L1I PREFETCH     ACCESS:   27209504  HIT:   20784320  MISS:    6425184  iACCESS:   27209504  iHIT:   20784320  iMISS:    6425184  dACCESS:          0  dHIT:          0  dMISS:          0  itACCESS:          0  itHIT:          0  itMISS:          0  dtACCESS:          0  dtHIT:          0  dtMISS:          0
cpu0_L1I WRITE        ACCESS:          0  HIT:          0  MISS:          0  iACCESS:          0  iHIT:          0  iMISS:          0  dACCESS:          0  dHIT:          0  dMISS:          0  itACCESS:          0  itHIT:          0  itMISS:          0  dtACCESS:          0  dtHIT:          0  dtMISS:          0
cpu0_L1I TRANSLATION  ACCESS:          0  HIT:          0  MISS:          0  iACCESS:          0  iHIT:          0  iMISS:          0  dACCESS:          0  dHIT:          0  dMISS:          0  itACCESS:          0  itHIT:          0  itMISS:          0  dtACCESS:          0  dtHIT:          0  dtMISS:          0
cpu0_L1I PREFETCH  REQUESTED:   30064797  ISSUED:   30064711  CROSSED:          0  USEFUL:    2221204  USELESS:     781229
cpu0_L1I AVERAGE iMISS LATENCY: 21.4699 cycles
cpu0_L1I AVERAGE dMISS LATENCY: 0 cycles
cpu0_L1I AVERAGE itMISS LATENCY: 0 cycles
cpu0_L1I AVERAGE dtMISS LATENCY: 0 cycles
cpu0_L1I PAGE CROSSINGS (TLB HIT):         0 
cpu0_L1I PAGE CROSSINGS (TLB MISS):         0 
cpu0_L1I AVERAGE MISS LATENCY: 21.4699 cycles
cpu0_ITLB TOTAL       ACCESS:   32835219  HIT:   30526512  MISS:    2308707  iACCESS:   32835219  iHIT:   30526512  iMISS:    2308707  dACCESS:          0  dHIT:          0  dMISS:          0  itACCESS:          0  itHIT:          0  itMISS:          0  dtACCESS:          0  dtHIT:          0  dtMISS:          0
cpu0_ITLB LOAD         ACCESS:   32835219  HIT:   30526512  MISS:    2308707  iACCESS:   32835219  iHIT:   30526512  iMISS:    2308707  dACCESS:          0  dHIT:          0  dMISS:          0  itACCESS:          0  itHIT:          0  itMISS:          0  dtACCESS:          0  dtHIT:          0  dtMISS:          0
cpu0_ITLB RFO          ACCESS:          0  HIT:          0  MISS:          0  iACCESS:          0  iHIT:          0  iMISS:          0  dACCESS:          0  dHIT:          0  dMISS:          0  itACCESS:          0  itHIT:          0  itMISS:          0  dtACCESS:          0  dtHIT:          0  dtMISS:          0
cpu0_ITLB PREFETCH     ACCESS:          0  HIT:          0  MISS:          0  iACCESS:          0  iHIT:          0  iMISS:          0  dACCESS:          0  dHIT:          0  dMISS:          0  itACCESS:          0  itHIT:          0  itMISS:          0  dtACCESS:          0  dtHIT:          0  dtMISS:          0
cpu0_ITLB WRITE        ACCESS:          0  HIT:          0  MISS:          0  iACCESS:          0  iHIT:          0  iMISS:          0  dACCESS:          0  dHIT:          0  dMISS:          0  itACCESS:          0  itHIT:          0  itMISS:          0  dtACCESS:          0  dtHIT:          0  dtMISS:          0
cpu0_ITLB TRANSLATION  ACCESS:          0  HIT:          0  MISS:          0  iACCESS:          0  iHIT:          0  iMISS:          0  dACCESS:          0  dHIT:          0  dMISS:          0  itACCESS:          0  itHIT:          0  itMISS:          0  dtACCESS:          0  dtHIT:          0  dtMISS:          0
cpu0_ITLB PREFETCH  REQUESTED:          0  ISSUED:          0  CROSSED:          0  USEFUL:     391335  USELESS:      84487
cpu0_ITLB AVERAGE iMISS LATENCY: 5.53406 cycles
cpu0_ITLB AVERAGE dMISS LATENCY: 0 cycles
cpu0_ITLB AVERAGE itMISS LATENCY: 0 cycles
cpu0_ITLB AVERAGE dtMISS LATENCY: 0 cycles
cpu0_ITLB PAGE CROSSINGS (TLB HIT):         0 
cpu0_ITLB PAGE CROSSINGS (TLB MISS):         0 
cpu0_ITLB AVERAGE MISS LATENCY: 5.53406 cycles
cpu0_DTLB TOTAL       ACCESS:   28826467  HIT:   25119397  MISS:    3707070  iACCESS:          0  iHIT:          0  iMISS:          0  dACCESS:   28826467  dHIT:   25119397  dMISS:    3707070  itACCESS:          0  itHIT:          0  itMISS:          0  dtACCESS:          0  dtHIT:          0  dtMISS:          0
cpu0_DTLB LOAD         ACCESS:   28826467  HIT:   25119397  MISS:    3707070  iACCESS:          0  iHIT:          0  iMISS:          0  dACCESS:   28826467  dHIT:   25119397  dMISS:    3707070  itACCESS:          0  itHIT:          0  itMISS:          0  dtACCESS:          0  dtHIT:          0  dtMISS:          0
cpu0_DTLB RFO          ACCESS:          0  HIT:          0  MISS:          0  iACCESS:          0  iHIT:          0  iMISS:          0  dACCESS:          0  dHIT:          0  dMISS:          0  itACCESS:          0  itHIT:          0  itMISS:          0  dtACCESS:          0  dtHIT:          0  dtMISS:          0
cpu0_DTLB PREFETCH     ACCESS:          0  HIT:          0  MISS:          0  iACCESS:          0  iHIT:          0  iMISS:          0  dACCESS:          0  dHIT:          0  dMISS:          0  itACCESS:          0  itHIT:          0  itMISS:          0  dtACCESS:          0  dtHIT:          0  dtMISS:          0
cpu0_DTLB WRITE        ACCESS:          0  HIT:          0  MISS:          0  iACCESS:          0  iHIT:          0  iMISS:          0  dACCESS:          0  dHIT:          0  dMISS:          0  itACCESS:          0  itHIT:          0  itMISS:          0  dtACCESS:          0  dtHIT:          0  dtMISS:          0
cpu0_DTLB TRANSLATION  ACCESS:          0  HIT:          0  MISS:          0  iACCESS:          0  iHIT:          0  iMISS:          0  dACCESS:          0  dHIT:          0  dMISS:          0  itACCESS:          0  itHIT:          0  itMISS:          0  dtACCESS:          0  dtHIT:          0  dtMISS:          0
cpu0_DTLB PREFETCH  REQUESTED:          0  ISSUED:          0  CROSSED:          0  USEFUL:          0  USELESS:          0
cpu0_DTLB AVERAGE iMISS LATENCY: 0 cycles
cpu0_DTLB AVERAGE dMISS LATENCY: 27.9597 cycles
cpu0_DTLB AVERAGE itMISS LATENCY: 0 cycles
cpu0_DTLB AVERAGE dtMISS LATENCY: 0 cycles
cpu0_DTLB PAGE CROSSINGS (TLB HIT):         0 
cpu0_DTLB PAGE CROSSINGS (TLB MISS):         0 
cpu0_DTLB AVERAGE MISS LATENCY: 27.9597 cycles
cpu0_STLB TOTAL       ACCESS:    2618887  HIT:    2252389  MISS:     366498  iACCESS:     475820  iHIT:     430342  iMISS:      45478  dACCESS:    2143067  dHIT:    1822047  dMISS:     321020  itACCESS:          0  itHIT:          0  itMISS:          0  dtACCESS:          0  dtHIT:          0  dtMISS:          0
cpu0_STLB LOAD         ACCESS:    2618887  HIT:    2252389  MISS:     366498  iACCESS:     475820  iHIT:     430342  iMISS:      45478  dACCESS:    2143067  dHIT:    1822047  dMISS:     321020  itACCESS:          0  itHIT:          0  itMISS:          0  dtACCESS:          0  dtHIT:          0  dtMISS:          0
cpu0_STLB RFO          ACCESS:          0  HIT:          0  MISS:          0  iACCESS:          0  iHIT:          0  iMISS:          0  dACCESS:          0  dHIT:          0  dMISS:          0  itACCESS:          0  itHIT:          0  itMISS:          0  dtACCESS:          0  dtHIT:          0  dtMISS:          0
cpu0_STLB PREFETCH     ACCESS:          0  HIT:          0  MISS:          0  iACCESS:          0  iHIT:          0  iMISS:          0  dACCESS:          0  dHIT:          0  dMISS:          0  itACCESS:          0  itHIT:          0  itMISS:          0  dtACCESS:          0  dtHIT:          0  dtMISS:          0
cpu0_STLB WRITE        ACCESS:          0  HIT:          0  MISS:          0  iACCESS:          0  iHIT:          0  iMISS:          0  dACCESS:          0  dHIT:          0  dMISS:          0  itACCESS:          0  itHIT:          0  itMISS:          0  dtACCESS:          0  dtHIT:          0  dtMISS:          0
cpu0_STLB TRANSLATION  ACCESS:          0  HIT:          0  MISS:          0  iACCESS:          0  iHIT:          0  iMISS:          0  dACCESS:          0  dHIT:          0  dMISS:          0  itACCESS:          0  itHIT:          0  itMISS:          0  dtACCESS:          0  dtHIT:          0  dtMISS:          0
cpu0_STLB PREFETCH  REQUESTED:          0  ISSUED:          0  CROSSED:          0  USEFUL:          0  USELESS:          0
cpu0_STLB AVERAGE iMISS LATENCY: 24.6872 cycles
cpu0_STLB AVERAGE dMISS LATENCY: 235.602 cycles
cpu0_STLB AVERAGE itMISS LATENCY: 0 cycles
cpu0_STLB AVERAGE dtMISS LATENCY: 0 cycles
cpu0_STLB PAGE CROSSINGS (TLB HIT):         0 
cpu0_STLB PAGE CROSSINGS (TLB MISS):         0 
cpu0_STLB AVERAGE MISS LATENCY: 260.289 cycles
cpu0_L1D TOTAL       ACCESS:   45058822  HIT:   39057455  MISS:    6001367  iACCESS:          0  iHIT:          0  iMISS:          0  dACCESS:   44484364  dHIT:   39030412  dMISS:    5453952  itACCESS:      55804  itHIT:       3763  itMISS:      52041  dtACCESS:     518654  dtHIT:      23280  dtMISS:     495374
cpu0_L1D LOAD         ACCESS:   20299179  HIT:   17838186  MISS:    2460993  iACCESS:          0  iHIT:          0  iMISS:          0  dACCESS:   20299179  dHIT:   17838186  dMISS:    2460993  itACCESS:          0  itHIT:          0  itMISS:          0  dtACCESS:          0  dtHIT:          0  dtMISS:          0
cpu0_L1D RFO          ACCESS:          0  HIT:          0  MISS:          0  iACCESS:          0  iHIT:          0  iMISS:          0  dACCESS:          0  dHIT:          0  dMISS:          0  itACCESS:          0  itHIT:          0  itMISS:          0  dtACCESS:          0  dtHIT:          0  dtMISS:          0
cpu0_L1D PREFETCH     ACCESS:   14037378  HIT:   11631241  MISS:    2406137  iACCESS:          0  iHIT:          0  iMISS:          0  dACCESS:   14037378  dHIT:   11631241  dMISS:    2406137  itACCESS:          0  itHIT:          0  itMISS:          0  dtACCESS:          0  dtHIT:          0  dtMISS:          0
cpu0_L1D WRITE        ACCESS:   10147807  HIT:    9560985  MISS:     586822  iACCESS:          0  iHIT:          0  iMISS:          0  dACCESS:   10147807  dHIT:    9560985  dMISS:     586822  itACCESS:          0  itHIT:          0  itMISS:          0  dtACCESS:          0  dtHIT:          0  dtMISS:          0
cpu0_L1D TRANSLATION  ACCESS:     574458  HIT:      27043  MISS:     547415  iACCESS:          0  iHIT:          0  iMISS:          0  dACCESS:          0  dHIT:          0  dMISS:          0  itACCESS:      55804  itHIT:       3763  itMISS:      52041  dtACCESS:     518654  dtHIT:      23280  dtMISS:     495374
cpu0_L1D PREFETCH  REQUESTED:   20299179  ISSUED:   18466369  CROSSED:          0  USEFUL:     358588  USELESS:     948540
cpu0_L1D AVERAGE iMISS LATENCY: 0 cycles
cpu0_L1D AVERAGE dMISS LATENCY: 49.0949 cycles
cpu0_L1D AVERAGE itMISS LATENCY: 1.42593 cycles
cpu0_L1D AVERAGE dtMISS LATENCY: 13.4974 cycles
cpu0_L1D PAGE CROSSINGS (TLB HIT):         0 
cpu0_L1D PAGE CROSSINGS (TLB MISS):         0 
cpu0_L1D AVERAGE MISS LATENCY: 64.0181 cycles
cpu0_L2C TOTAL       ACCESS:    8719151  HIT:    4350162  MISS:    4368989  iACCESS:    3844010  iHIT:    2423153  iMISS:    1420857  dACCESS:    4364859  dHIT:    1861531  dMISS:    2503328  itACCESS:      51263  itHIT:       7393  itMISS:      43870  dtACCESS:     459019  dtHIT:      58085  dtMISS:     400934
cpu0_L2C LOAD         ACCESS:    2116583  HIT:    1052870  MISS:    1063713  iACCESS:     879494  iHIT:     579388  iMISS:     300106  dACCESS:    1237089  dHIT:     473482  dMISS:     763607  itACCESS:          0  itHIT:          0  itMISS:          0  dtACCESS:          0  dtHIT:          0  dtMISS:          0
cpu0_L2C RFO          ACCESS:     218628  HIT:      85625  MISS:     133003  iACCESS:          0  iHIT:          0  iMISS:          0  dACCESS:     218628  dHIT:      85625  dMISS:     133003  itACCESS:          0  itHIT:          0  itMISS:          0  dtACCESS:          0  dtHIT:          0  dtMISS:          0
cpu0_L2C PREFETCH     ACCESS:    5524722  HIT:    2801102  MISS:    2723620  iACCESS:    2964516  iHIT:    1843765  iMISS:    1120751  dACCESS:    2560206  dHIT:     957337  dMISS:    1602869  itACCESS:          0  itHIT:          0  itMISS:          0  dtACCESS:          0  dtHIT:          0  dtMISS:          0
cpu0_L2C WRITE        ACCESS:     348936  HIT:     345087  MISS:       3849  iACCESS:          0  iHIT:          0  iMISS:          0  dACCESS:     348936  dHIT:     345087  dMISS:       3849  itACCESS:          0  itHIT:          0  itMISS:          0  dtACCESS:          0  dtHIT:          0  dtMISS:          0
cpu0_L2C TRANSLATION  ACCESS:     510282  HIT:      65478  MISS:     444804  iACCESS:          0  iHIT:          0  iMISS:          0  dACCESS:          0  dHIT:          0  dMISS:          0  itACCESS:      51263  itHIT:       7393  itMISS:      43870  dtACCESS:     459019  dtHIT:      58085  dtMISS:     400934
cpu0_L2C PREFETCH  REQUESTED:    1517012  ISSUED:    1517004  CROSSED:          0  USEFUL:     350201  USELESS:     296991
cpu0_L2C AVERAGE iMISS LATENCY: 36.0676 cycles
cpu0_L2C AVERAGE dMISS LATENCY: 80.204 cycles
cpu0_L2C AVERAGE itMISS LATENCY: 1.84264 cycles
cpu0_L2C AVERAGE dtMISS LATENCY: 17.4965 cycles
cpu0_L2C PAGE CROSSINGS (TLB HIT):         0 
cpu0_L2C PAGE CROSSINGS (TLB MISS):         0 
cpu0_L2C AVERAGE MISS LATENCY: 135.611 cycles
LLC TOTAL       ACCESS:    4393967  HIT:    1493072  MISS:    2900895  iACCESS:    1342935  iHIT:     521940  iMISS:     820995  dACCESS:    2606228  dHIT:     917503  dMISS:    1688725  itACCESS:      43870  itHIT:       3622  itMISS:      40248  dtACCESS:     400934  dtHIT:      50007  dtMISS:     350927
LLC LOAD         ACCESS:    1055309  HIT:     356621  MISS:     698688  iACCESS:     298836  iHIT:     122424  iMISS:     176412  dACCESS:     756473  dHIT:     234197  dMISS:     522276  itACCESS:          0  itHIT:          0  itMISS:          0  dtACCESS:          0  dtHIT:          0  dtMISS:          0
LLC RFO          ACCESS:     132997  HIT:      40242  MISS:      92755  iACCESS:          0  iHIT:          0  iMISS:          0  dACCESS:     132997  dHIT:      40242  dMISS:      92755  itACCESS:          0  itHIT:          0  itMISS:          0  dtACCESS:          0  dtHIT:          0  dtMISS:          0
LLC PREFETCH     ACCESS:    2544980  HIT:     836758  MISS:    1708222  iACCESS:    1044099  iHIT:     399516  iMISS:     644583  dACCESS:    1500881  dHIT:     437242  dMISS:    1063639  itACCESS:          0  itHIT:          0  itMISS:          0  dtACCESS:          0  dtHIT:          0  dtMISS:          0
LLC WRITE        ACCESS:     215877  HIT:     205822  MISS:      10055  iACCESS:          0  iHIT:          0  iMISS:          0  dACCESS:     215877  dHIT:     205822  dMISS:      10055  itACCESS:          0  itHIT:          0  itMISS:          0  dtACCESS:          0  dtHIT:          0  dtMISS:          0
LLC TRANSLATION  ACCESS:     444804  HIT:      53629  MISS:     391175  iACCESS:          0  iHIT:          0  iMISS:          0  dACCESS:          0  dHIT:          0  dMISS:          0  itACCESS:      43870  itHIT:       3622  itMISS:      40248  dtACCESS:     400934  dtHIT:      50007  dtMISS:     350927
LLC PREFETCH  REQUESTED:          0  ISSUED:          0  CROSSED:          0  USEFUL:          0  USELESS:          0
LLC AVERAGE iMISS LATENCY: 45.2277 cycles
LLC AVERAGE dMISS LATENCY: 105.662 cycles
LLC AVERAGE itMISS LATENCY: 2.47533 cycles
LLC AVERAGE dtMISS LATENCY: 23.6196 cycles
LLC PAGE CROSSINGS (TLB HIT):         0 
LLC PAGE CROSSINGS (TLB MISS):         0 
LLC AVERAGE MISS LATENCY: 176.984 cycles

PageTableWalker TOTAL       ACCESS:     181438  
PageTableWalker AVERAGE LATENCY: 6.8078 cycles
PageTableWalker TOTAL LATENCY: 1235192 cycles

DRAM Statistics
Channel 0
 RQ ROW_BUFFER_HIT:     581105
  ROW_BUFFER_MISS:    2290120
 AVG DBUS CONGESTED CYCLE:    3.65002
 WQ ROW_BUFFER_HIT:      66895
  ROW_BUFFER_MISS:      58114  FULL:          0

