last_page:0x200000000000000
VMEM_RES_CAP:0x100000
PAGE_SIZE:4096
LOG2_PAGE_SIZE:12
LOG2_PAGE_TABLE_SIZE:9
page_table_levels:5
WARNING: physical memory size is smaller than virtual memory size
FDiP enabled with aggresivity 16

*** ChampSim Multicore Out-of-Order Simulator ***

Warmup Instructions: 50000000
Simulation Instructions: 100000000
Number of CPUs: 1
Small page size: 4096
Large page size: 2097152

CPU 0 Bimodal branch predictor
Basic BTB sets: 1024 ways: 8 indirect buffer size: 4096 RAS size: 64
Instruction page size distrubution: 0
Loading instruction page size distribution from /home/bsc/bsc018186/scratch/itp_asplos25_AE/dump/smt_srv537_ap_srv582_ap_1024i.pdst
Data page size distrubution: 0
Loading data page size distribution from /home/bsc/bsc018186/scratch/itp_asplos25_AE/dump/smt_srv537_ap_srv582_ap_1024i.pdst
cpu0_L2C IP-based stride prefetcher
cpu0_L2C is using PTP replacement policy:
	TLB_STRESS_THRESHOLD:0
	PTE_EVICTION_RATIO:0
cpu0_L1D next line prefetcher
CHiRPing...
cpu0_L1I next line prefetcher
Off-chip DRAM Size: 4 GiB Channels: 1 Width: 64-bit Data Rate: 3200 MT/s
Heartbeat CPU 0 instructions: 10000001 cycles: 2500641 heartbeat IPC: 3.99898 cumulative IPC: 3.99898 (Simulation time: 0 hr 0 min 36 sec) 
Heartbeat CPU 0 instructions: 20000002 cycles: 5000906 heartbeat IPC: 3.99958 cumulative IPC: 3.99928 (Simulation time: 0 hr 1 min 14 sec) 
Heartbeat CPU 0 instructions: 30000000 cycles: 7501215 heartbeat IPC: 3.99951 cumulative IPC: 3.99936 (Simulation time: 0 hr 1 min 53 sec) 
Heartbeat CPU 0 instructions: 40000003 cycles: 10001416 heartbeat IPC: 3.99968 cumulative IPC: 3.99944 (Simulation time: 0 hr 2 min 31 sec) 
Heartbeat CPU 0 instructions: 50000000 cycles: 12501730 heartbeat IPC: 3.9995 cumulative IPC: 3.99945 (Simulation time: 0 hr 3 min 10 sec) 
Warmup finished CPU 0 instructions: 50000000 cycles: 12501731 cumulative IPC: 3.99945 (Simulation time: 0 hr 3 min 10 sec) 

Warmup complete CPU 0 instructions: 50000000 cycles: 12501731 (Simulation time: 0 hr 3 min 10 sec) 

Heartbeat CPU 0 instructions: 60000000 cycles: 42443973 heartbeat IPC: 0.333977 cumulative IPC: 0.333977 (Simulation time: 0 hr 4 min 31 sec) 
Heartbeat CPU 0 instructions: 70000000 cycles: 73180581 heartbeat IPC: 0.325345 cumulative IPC: 0.329605 (Simulation time: 0 hr 5 min 54 sec) 
Heartbeat CPU 0 instructions: 80000002 cycles: 102395790 heartbeat IPC: 0.342288 cumulative IPC: 0.333727 (Simulation time: 0 hr 7 min 14 sec) 
Heartbeat CPU 0 instructions: 90000000 cycles: 132124953 heartbeat IPC: 0.33637 cumulative IPC: 0.334384 (Simulation time: 0 hr 8 min 36 sec) 
Heartbeat CPU 0 instructions: 100000003 cycles: 162651362 heartbeat IPC: 0.327586 cumulative IPC: 0.333002 (Simulation time: 0 hr 9 min 58 sec) 
Heartbeat CPU 0 instructions: 110000000 cycles: 193531488 heartbeat IPC: 0.323833 cumulative IPC: 0.331438 (Simulation time: 0 hr 11 min 22 sec) 
Heartbeat CPU 0 instructions: 120000002 cycles: 223086554 heartbeat IPC: 0.338352 cumulative IPC: 0.332408 (Simulation time: 0 hr 12 min 43 sec) 
Heartbeat CPU 0 instructions: 130000003 cycles: 252365001 heartbeat IPC: 0.341549 cumulative IPC: 0.333524 (Simulation time: 0 hr 14 min 5 sec) 
Heartbeat CPU 0 instructions: 140000003 cycles: 282324636 heartbeat IPC: 0.333783 cumulative IPC: 0.333553 (Simulation time: 0 hr 15 min 27 sec) 
Heartbeat CPU 0 instructions: 150000002 cycles: 311601610 heartbeat IPC: 0.341566 cumulative IPC: 0.334337 (Simulation time: 0 hr 16 min 48 sec) 
Simulation finished CPU 0 instructions: 100000002 cycles: 299099880 cumulative IPC: 0.334337 (Simulation time: 0 hr 16 min 48 sec) 

Simulation complete CPU 0 instructions: 100000002 cycles: 299099880 (Simulation time: 0 hr 16 min 48 sec) 


ChampSim completed all CPUs

Saving instructions large page distribution to /home/bsc/bsc018186/scratch/itp_asplos25_AE/dump/smt_srv537_ap_srv582_ap_1024i.pdst...
Saving data large page distribution to /home/bsc/bsc018186/scratch/itp_asplos25_AE/dump/smt_srv537_ap_srv582_ap_1024i.pdst...
=== Simulation ===
CPU 0 runs /gpfs/projects/bsc18/MN4/bsc18/romol/ChampSim/traces/qualcomm_srv/smt_srv537_ap_srv582_ap_1024i.champsimtrace.xz

Region of Interest Statistics

CPU 0 cumulative IPC: 0.334337 instructions: 100000002 cycles: 299099880
CPU 0 Branch Prediction Accuracy: 75.196% MPKI: 44.8115 Average ROB Occupancy at Mispredict: 10.6246
Branch type MPKI
BRANCH_DIRECT_JUMP: 1.38827
BRANCH_INDIRECT: 23.1194
BRANCH_CONDITIONAL: 13.0578
BRANCH_DIRECT_CALL: 2.67901
BRANCH_INDIRECT_CALL: 1.03441
BRANCH_RETURN: 3.5327

Instructions large pages: 0
Instructions small pages: 10288
Large page distribution for instructions: 0%

Data large pages: 0
Data small pages: 8888
Large page distribution for data: 0%

cpu0_L1I TOTAL       ACCESS:   39370541  HIT:   30606487  MISS:    8764054  iACCESS:   39370541  iHIT:   30606487  iMISS:    8764054  dACCESS:          0  dHIT:          0  dMISS:          0  itACCESS:          0  itHIT:          0  itMISS:          0  dtACCESS:          0  dtHIT:          0  dtMISS:          0
cpu0_L1I LOAD         ACCESS:   11789446  HIT:    9404676  MISS:    2384770  iACCESS:   11789446  iHIT:    9404676  iMISS:    2384770  dACCESS:          0  dHIT:          0  dMISS:          0  itACCESS:          0  itHIT:          0  itMISS:          0  dtACCESS:          0  dtHIT:          0  dtMISS:          0
cpu0_L1I RFO          ACCESS:          0  HIT:          0  MISS:          0  iACCESS:          0  iHIT:          0  iMISS:          0  dACCESS:          0  dHIT:          0  dMISS:          0  itACCESS:          0  itHIT:          0  itMISS:          0  dtACCESS:          0  dtHIT:          0  dtMISS:          0
cpu0_L1I PREFETCH     ACCESS:   27581095  HIT:   21201811  MISS:    6379284  iACCESS:   27581095  iHIT:   21201811  iMISS:    6379284  dACCESS:          0  dHIT:          0  dMISS:          0  itACCESS:          0  itHIT:          0  itMISS:          0  dtACCESS:          0  dtHIT:          0  dtMISS:          0
cpu0_L1I WRITE        ACCESS:          0  HIT:          0  MISS:          0  iACCESS:          0  iHIT:          0  iMISS:          0  dACCESS:          0  dHIT:          0  dMISS:          0  itACCESS:          0  itHIT:          0  itMISS:          0  dtACCESS:          0  dtHIT:          0  dtMISS:          0
cpu0_L1I TRANSLATION  ACCESS:          0  HIT:          0  MISS:          0  iACCESS:          0  iHIT:          0  iMISS:          0  dACCESS:          0  dHIT:          0  dMISS:          0  itACCESS:          0  itHIT:          0  itMISS:          0  dtACCESS:          0  dtHIT:          0  dtMISS:          0
cpu0_L1I PREFETCH  REQUESTED:   30417148  ISSUED:   30417088  CROSSED:          0  USEFUL:    2224213  USELESS:     774428
cpu0_L1I AVERAGE iMISS LATENCY: 24.2786 cycles
cpu0_L1I AVERAGE dMISS LATENCY: 0 cycles
cpu0_L1I AVERAGE itMISS LATENCY: 0 cycles
cpu0_L1I AVERAGE dtMISS LATENCY: 0 cycles
cpu0_L1I PAGE CROSSINGS (TLB HIT):         0 
cpu0_L1I PAGE CROSSINGS (TLB MISS):         0 
cpu0_L1I AVERAGE MISS LATENCY: 24.2786 cycles
cpu0_ITLB TOTAL       ACCESS:   33328873  HIT:   31069480  MISS:    2259393  iACCESS:   33328873  iHIT:   31069480  iMISS:    2259393  dACCESS:          0  dHIT:          0  dMISS:          0  itACCESS:          0  itHIT:          0  itMISS:          0  dtACCESS:          0  dtHIT:          0  dtMISS:          0
cpu0_ITLB LOAD         ACCESS:   33328873  HIT:   31069480  MISS:    2259393  iACCESS:   33328873  iHIT:   31069480  iMISS:    2259393  dACCESS:          0  dHIT:          0  dMISS:          0  itACCESS:          0  itHIT:          0  itMISS:          0  dtACCESS:          0  dtHIT:          0  dtMISS:          0
cpu0_ITLB RFO          ACCESS:          0  HIT:          0  MISS:          0  iACCESS:          0  iHIT:          0  iMISS:          0  dACCESS:          0  dHIT:          0  dMISS:          0  itACCESS:          0  itHIT:          0  itMISS:          0  dtACCESS:          0  dtHIT:          0  dtMISS:          0
cpu0_ITLB PREFETCH     ACCESS:          0  HIT:          0  MISS:          0  iACCESS:          0  iHIT:          0  iMISS:          0  dACCESS:          0  dHIT:          0  dMISS:          0  itACCESS:          0  itHIT:          0  itMISS:          0  dtACCESS:          0  dtHIT:          0  dtMISS:          0
cpu0_ITLB WRITE        ACCESS:          0  HIT:          0  MISS:          0  iACCESS:          0  iHIT:          0  iMISS:          0  dACCESS:          0  dHIT:          0  dMISS:          0  itACCESS:          0  itHIT:          0  itMISS:          0  dtACCESS:          0  dtHIT:          0  dtMISS:          0
cpu0_ITLB TRANSLATION  ACCESS:          0  HIT:          0  MISS:          0  iACCESS:          0  iHIT:          0  iMISS:          0  dACCESS:          0  dHIT:          0  dMISS:          0  itACCESS:          0  itHIT:          0  itMISS:          0  dtACCESS:          0  dtHIT:          0  dtMISS:          0
cpu0_ITLB PREFETCH  REQUESTED:          0  ISSUED:          0  CROSSED:          0  USEFUL:     393617  USELESS:      80524
cpu0_ITLB AVERAGE iMISS LATENCY: 10.093 cycles
cpu0_ITLB AVERAGE dMISS LATENCY: 0 cycles
cpu0_ITLB AVERAGE itMISS LATENCY: 0 cycles
cpu0_ITLB AVERAGE dtMISS LATENCY: 0 cycles
cpu0_ITLB PAGE CROSSINGS (TLB HIT):         0 
cpu0_ITLB PAGE CROSSINGS (TLB MISS):         0 
cpu0_ITLB AVERAGE MISS LATENCY: 10.093 cycles
cpu0_DTLB TOTAL       ACCESS:   28849942  HIT:   25470301  MISS:    3379641  iACCESS:          0  iHIT:          0  iMISS:          0  dACCESS:   28849942  dHIT:   25470301  dMISS:    3379641  itACCESS:          0  itHIT:          0  itMISS:          0  dtACCESS:          0  dtHIT:          0  dtMISS:          0
cpu0_DTLB LOAD         ACCESS:   28849942  HIT:   25470301  MISS:    3379641  iACCESS:          0  iHIT:          0  iMISS:          0  dACCESS:   28849942  dHIT:   25470301  dMISS:    3379641  itACCESS:          0  itHIT:          0  itMISS:          0  dtACCESS:          0  dtHIT:          0  dtMISS:          0
cpu0_DTLB RFO          ACCESS:          0  HIT:          0  MISS:          0  iACCESS:          0  iHIT:          0  iMISS:          0  dACCESS:          0  dHIT:          0  dMISS:          0  itACCESS:          0  itHIT:          0  itMISS:          0  dtACCESS:          0  dtHIT:          0  dtMISS:          0
cpu0_DTLB PREFETCH     ACCESS:          0  HIT:          0  MISS:          0  iACCESS:          0  iHIT:          0  iMISS:          0  dACCESS:          0  dHIT:          0  dMISS:          0  itACCESS:          0  itHIT:          0  itMISS:          0  dtACCESS:          0  dtHIT:          0  dtMISS:          0
cpu0_DTLB WRITE        ACCESS:          0  HIT:          0  MISS:          0  iACCESS:          0  iHIT:          0  iMISS:          0  dACCESS:          0  dHIT:          0  dMISS:          0  itACCESS:          0  itHIT:          0  itMISS:          0  dtACCESS:          0  dtHIT:          0  dtMISS:          0
cpu0_DTLB TRANSLATION  ACCESS:          0  HIT:          0  MISS:          0  iACCESS:          0  iHIT:          0  iMISS:          0  dACCESS:          0  dHIT:          0  dMISS:          0  itACCESS:          0  itHIT:          0  itMISS:          0  dtACCESS:          0  dtHIT:          0  dtMISS:          0
cpu0_DTLB PREFETCH  REQUESTED:          0  ISSUED:          0  CROSSED:          0  USEFUL:          0  USELESS:          0
cpu0_DTLB AVERAGE iMISS LATENCY: 0 cycles
cpu0_DTLB AVERAGE dMISS LATENCY: 25.5957 cycles
cpu0_DTLB AVERAGE itMISS LATENCY: 0 cycles
cpu0_DTLB AVERAGE dtMISS LATENCY: 0 cycles
cpu0_DTLB PAGE CROSSINGS (TLB HIT):         0 
cpu0_DTLB PAGE CROSSINGS (TLB MISS):         0 
cpu0_DTLB AVERAGE MISS LATENCY: 25.5957 cycles
cpu0_STLB TOTAL       ACCESS:    2416847  HIT:    2048263  MISS:     368584  iACCESS:     474143  iHIT:     356661  iMISS:     117482  dACCESS:    1942704  dHIT:    1691602  dMISS:     251102  itACCESS:          0  itHIT:          0  itMISS:          0  dtACCESS:          0  dtHIT:          0  dtMISS:          0
cpu0_STLB LOAD         ACCESS:    2416847  HIT:    2048263  MISS:     368584  iACCESS:     474143  iHIT:     356661  iMISS:     117482  dACCESS:    1942704  dHIT:    1691602  dMISS:     251102  itACCESS:          0  itHIT:          0  itMISS:          0  dtACCESS:          0  dtHIT:          0  dtMISS:          0
cpu0_STLB RFO          ACCESS:          0  HIT:          0  MISS:          0  iACCESS:          0  iHIT:          0  iMISS:          0  dACCESS:          0  dHIT:          0  dMISS:          0  itACCESS:          0  itHIT:          0  itMISS:          0  dtACCESS:          0  dtHIT:          0  dtMISS:          0
cpu0_STLB PREFETCH     ACCESS:          0  HIT:          0  MISS:          0  iACCESS:          0  iHIT:          0  iMISS:          0  dACCESS:          0  dHIT:          0  dMISS:          0  itACCESS:          0  itHIT:          0  itMISS:          0  dtACCESS:          0  dtHIT:          0  dtMISS:          0
cpu0_STLB WRITE        ACCESS:          0  HIT:          0  MISS:          0  iACCESS:          0  iHIT:          0  iMISS:          0  dACCESS:          0  dHIT:          0  dMISS:          0  itACCESS:          0  itHIT:          0  itMISS:          0  dtACCESS:          0  dtHIT:          0  dtMISS:          0
cpu0_STLB TRANSLATION  ACCESS:          0  HIT:          0  MISS:          0  iACCESS:          0  iHIT:          0  iMISS:          0  dACCESS:          0  dHIT:          0  dMISS:          0  itACCESS:          0  itHIT:          0  itMISS:          0  dtACCESS:          0  dtHIT:          0  dtMISS:          0
cpu0_STLB PREFETCH  REQUESTED:          0  ISSUED:          0  CROSSED:          0  USEFUL:          0  USELESS:          0
cpu0_STLB AVERAGE iMISS LATENCY: 51.5671 cycles
cpu0_STLB AVERAGE dMISS LATENCY: 192.305 cycles
cpu0_STLB AVERAGE itMISS LATENCY: 0 cycles
cpu0_STLB AVERAGE dtMISS LATENCY: 0 cycles
cpu0_STLB PAGE CROSSINGS (TLB HIT):         0 
cpu0_STLB PAGE CROSSINGS (TLB MISS):         0 
cpu0_STLB AVERAGE MISS LATENCY: 243.872 cycles
cpu0_L1D TOTAL       ACCESS:   44867838  HIT:   39252233  MISS:    5615605  iACCESS:          0  iHIT:          0  iMISS:          0  dACCESS:   44327959  dHIT:   39219560  dMISS:    5108399  itACCESS:     130070  itHIT:      15800  itMISS:     114270  dtACCESS:     409809  dtHIT:      16873  dtMISS:     392936
cpu0_L1D LOAD         ACCESS:   20213711  HIT:   17917929  MISS:    2295782  iACCESS:          0  iHIT:          0  iMISS:          0  dACCESS:   20213711  dHIT:   17917929  dMISS:    2295782  itACCESS:          0  itHIT:          0  itMISS:          0  dtACCESS:          0  dtHIT:          0  dtMISS:          0
cpu0_L1D RFO          ACCESS:          0  HIT:          0  MISS:          0  iACCESS:          0  iHIT:          0  iMISS:          0  dACCESS:          0  dHIT:          0  dMISS:          0  itACCESS:          0  itHIT:          0  itMISS:          0  dtACCESS:          0  dtHIT:          0  dtMISS:          0
cpu0_L1D PREFETCH     ACCESS:   13932172  HIT:   11681697  MISS:    2250475  iACCESS:          0  iHIT:          0  iMISS:          0  dACCESS:   13932172  dHIT:   11681697  dMISS:    2250475  itACCESS:          0  itHIT:          0  itMISS:          0  dtACCESS:          0  dtHIT:          0  dtMISS:          0
cpu0_L1D WRITE        ACCESS:   10182076  HIT:    9619934  MISS:     562142  iACCESS:          0  iHIT:          0  iMISS:          0  dACCESS:   10182076  dHIT:    9619934  dMISS:     562142  itACCESS:          0  itHIT:          0  itMISS:          0  dtACCESS:          0  dtHIT:          0  dtMISS:          0
cpu0_L1D TRANSLATION  ACCESS:     539879  HIT:      32673  MISS:     507206  iACCESS:          0  iHIT:          0  iMISS:          0  dACCESS:          0  dHIT:          0  dMISS:          0  itACCESS:     130070  itHIT:      15800  itMISS:     114270  dtACCESS:     409809  dtHIT:      16873  dtMISS:     392936
cpu0_L1D PREFETCH  REQUESTED:   20213711  ISSUED:   18404721  CROSSED:          0  USEFUL:     371608  USELESS:     911537
cpu0_L1D AVERAGE iMISS LATENCY: 0 cycles
cpu0_L1D AVERAGE dMISS LATENCY: 50.1781 cycles
cpu0_L1D AVERAGE itMISS LATENCY: 3.1876 cycles
cpu0_L1D AVERAGE dtMISS LATENCY: 11.805 cycles
cpu0_L1D PAGE CROSSINGS (TLB HIT):         0 
cpu0_L1D PAGE CROSSINGS (TLB MISS):         0 
cpu0_L1D AVERAGE MISS LATENCY: 65.1706 cycles
cpu0_L2C TOTAL       ACCESS:    8634614  HIT:    4128848  MISS:    4505766  iACCESS:    3815966  iHIT:    2282489  iMISS:    1533477  dACCESS:    4345804  dHIT:    1786866  dMISS:    2558938  itACCESS:     114128  itHIT:      20813  itMISS:      93315  dtACCESS:     358716  dtHIT:      38680  dtMISS:     320036
cpu0_L2C LOAD         ACCESS:    2059770  HIT:     989109  MISS:    1070661  iACCESS:     855473  iHIT:     530992  iMISS:     324481  dACCESS:    1204297  dHIT:     458117  dMISS:     746180  itACCESS:          0  itHIT:          0  itMISS:          0  dtACCESS:          0  dtHIT:          0  dtMISS:          0
cpu0_L2C RFO          ACCESS:     214232  HIT:      76475  MISS:     137757  iACCESS:          0  iHIT:          0  iMISS:          0  dACCESS:     214232  dHIT:      76475  dMISS:     137757  itACCESS:          0  itHIT:          0  itMISS:          0  dtACCESS:          0  dtHIT:          0  dtMISS:          0
cpu0_L2C PREFETCH     ACCESS:    5543076  HIT:    2671217  MISS:    2871859  iACCESS:    2960493  iHIT:    1751497  iMISS:    1208996  dACCESS:    2582583  dHIT:     919720  dMISS:    1662863  itACCESS:          0  itHIT:          0  itMISS:          0  dtACCESS:          0  dtHIT:          0  dtMISS:          0
cpu0_L2C WRITE        ACCESS:     344692  HIT:     332554  MISS:      12138  iACCESS:          0  iHIT:          0  iMISS:          0  dACCESS:     344692  dHIT:     332554  dMISS:      12138  itACCESS:          0  itHIT:          0  itMISS:          0  dtACCESS:          0  dtHIT:          0  dtMISS:          0
cpu0_L2C TRANSLATION  ACCESS:     472844  HIT:      59493  MISS:     413351  iACCESS:          0  iHIT:          0  iMISS:          0  dACCESS:          0  dHIT:          0  dMISS:          0  itACCESS:     114128  itHIT:      20813  itMISS:      93315  dtACCESS:     358716  dtHIT:      38680  dtMISS:     320036
cpu0_L2C PREFETCH  REQUESTED:    1543038  ISSUED:    1543036  CROSSED:          0  USEFUL:     361317  USELESS:     332047
cpu0_L2C AVERAGE iMISS LATENCY: 40.0851 cycles
cpu0_L2C AVERAGE dMISS LATENCY: 78.1385 cycles
cpu0_L2C AVERAGE itMISS LATENCY: 3.72333 cycles
cpu0_L2C AVERAGE dtMISS LATENCY: 13.9208 cycles
cpu0_L2C PAGE CROSSINGS (TLB HIT):         0 
cpu0_L2C PAGE CROSSINGS (TLB MISS):         0 
cpu0_L2C AVERAGE MISS LATENCY: 135.868 cycles
LLC TOTAL       ACCESS:    4487090  HIT:    1392212  MISS:    3094878  iACCESS:    1440967  iHIT:     472018  iMISS:     968949  dACCESS:    2632772  dHIT:     880713  dMISS:    1752059  itACCESS:      93315  itHIT:       9591  itMISS:      83724  dtACCESS:     320036  dtHIT:      29890  dtMISS:     290146
LLC LOAD         ACCESS:    1063312  HIT:     350697  MISS:     712615  iACCESS:     323290  iHIT:     115650  iMISS:     207640  dACCESS:     740022  dHIT:     235047  dMISS:     504975  itACCESS:          0  itHIT:          0  itMISS:          0  dtACCESS:          0  dtHIT:          0  dtMISS:          0
LLC RFO          ACCESS:     137747  HIT:      43125  MISS:      94622  iACCESS:          0  iHIT:          0  iMISS:          0  dACCESS:     137747  dHIT:      43125  dMISS:      94622  itACCESS:          0  itHIT:          0  itMISS:          0  dtACCESS:          0  dtHIT:          0  dtMISS:          0
LLC PREFETCH     ACCESS:    2653446  HIT:     750372  MISS:    1903074  iACCESS:    1117677  iHIT:     356368  iMISS:     761309  dACCESS:    1535769  dHIT:     394004  dMISS:    1141765  itACCESS:          0  itHIT:          0  itMISS:          0  dtACCESS:          0  dtHIT:          0  dtMISS:          0
LLC WRITE        ACCESS:     219234  HIT:     208537  MISS:      10697  iACCESS:          0  iHIT:          0  iMISS:          0  dACCESS:     219234  dHIT:     208537  dMISS:      10697  itACCESS:          0  itHIT:          0  itMISS:          0  dtACCESS:          0  dtHIT:          0  dtMISS:          0
LLC TRANSLATION  ACCESS:     413351  HIT:      39481  MISS:     373870  iACCESS:          0  iHIT:          0  iMISS:          0  dACCESS:          0  dHIT:          0  dMISS:          0  itACCESS:      93315  itHIT:       9591  itMISS:      83724  dtACCESS:     320036  dtHIT:      29890  dtMISS:     290146
LLC PREFETCH  REQUESTED:          0  ISSUED:          0  CROSSED:          0  USEFUL:          0  USELESS:          0
LLC AVERAGE iMISS LATENCY: 49.1919 cycles
LLC AVERAGE dMISS LATENCY: 99.1974 cycles
LLC AVERAGE itMISS LATENCY: 4.82342 cycles
LLC AVERAGE dtMISS LATENCY: 18.2217 cycles
LLC PAGE CROSSINGS (TLB HIT):         0 
LLC PAGE CROSSINGS (TLB MISS):         0 
LLC AVERAGE MISS LATENCY: 171.435 cycles

PageTableWalker TOTAL       ACCESS:     186642  
PageTableWalker AVERAGE LATENCY: 6.33804 cycles
PageTableWalker TOTAL LATENCY: 1182943 cycles

DRAM Statistics
Channel 0
 RQ ROW_BUFFER_HIT:     660208
  ROW_BUFFER_MISS:    2406006
 AVG DBUS CONGESTED CYCLE:    3.65141
 WQ ROW_BUFFER_HIT:      67134
  ROW_BUFFER_MISS:      58182  FULL:          0

