last_page:0x200000000000000
VMEM_RES_CAP:0x100000
PAGE_SIZE:4096
LOG2_PAGE_SIZE:12
LOG2_PAGE_TABLE_SIZE:9
page_table_levels:5
WARNING: physical memory size is smaller than virtual memory size
FDiP enabled with aggresivity 16

*** ChampSim Multicore Out-of-Order Simulator ***

Warmup Instructions: 50000000
Simulation Instructions: 100000000
Number of CPUs: 1
Small page size: 4096
Large page size: 2097152

CPU 0 Bimodal branch predictor
Basic BTB sets: 1024 ways: 8 indirect buffer size: 4096 RAS size: 64
Instruction page size distrubution: 0
Loading instruction page size distribution from /home/bsc/bsc018186/scratch/itp_asplos25_AE/dump/smt_srv207_ap_srv551_ap_1024i.pdst
Data page size distrubution: 0
Loading data page size distribution from /home/bsc/bsc018186/scratch/itp_asplos25_AE/dump/smt_srv207_ap_srv551_ap_1024i.pdst
cpu0_L2C IP-based stride prefetcher
cpu0_L1D next line prefetcher
cpu0_L1I next line prefetcher
Off-chip DRAM Size: 4 GiB Channels: 1 Width: 64-bit Data Rate: 3200 MT/s
Heartbeat CPU 0 instructions: 10000003 cycles: 2500782 heartbeat IPC: 3.99876 cumulative IPC: 3.99876 (Simulation time: 0 hr 0 min 43 sec) 
Heartbeat CPU 0 instructions: 20000000 cycles: 5001612 heartbeat IPC: 3.99868 cumulative IPC: 3.99872 (Simulation time: 0 hr 1 min 25 sec) 
Heartbeat CPU 0 instructions: 30000001 cycles: 7501941 heartbeat IPC: 3.99948 cumulative IPC: 3.99897 (Simulation time: 0 hr 2 min 9 sec) 
Heartbeat CPU 0 instructions: 40000003 cycles: 10002220 heartbeat IPC: 3.99956 cumulative IPC: 3.99912 (Simulation time: 0 hr 2 min 55 sec) 
Heartbeat CPU 0 instructions: 50000000 cycles: 12502623 heartbeat IPC: 3.99936 cumulative IPC: 3.99917 (Simulation time: 0 hr 3 min 42 sec) 
Warmup finished CPU 0 instructions: 50000000 cycles: 12502624 cumulative IPC: 3.99917 (Simulation time: 0 hr 3 min 42 sec) 

Warmup complete CPU 0 instructions: 50000000 cycles: 12502624 (Simulation time: 0 hr 3 min 42 sec) 

Heartbeat CPU 0 instructions: 60000000 cycles: 43662979 heartbeat IPC: 0.320921 cumulative IPC: 0.320921 (Simulation time: 0 hr 5 min 18 sec) 
Heartbeat CPU 0 instructions: 70000000 cycles: 76300217 heartbeat IPC: 0.306399 cumulative IPC: 0.313492 (Simulation time: 0 hr 6 min 55 sec) 
Heartbeat CPU 0 instructions: 80000001 cycles: 108052368 heartbeat IPC: 0.31494 cumulative IPC: 0.313973 (Simulation time: 0 hr 8 min 31 sec) 
Heartbeat CPU 0 instructions: 90000000 cycles: 139830946 heartbeat IPC: 0.314678 cumulative IPC: 0.314149 (Simulation time: 0 hr 10 min 5 sec) 
Heartbeat CPU 0 instructions: 100000000 cycles: 171030739 heartbeat IPC: 0.320515 cumulative IPC: 0.315402 (Simulation time: 0 hr 11 min 34 sec) 
Heartbeat CPU 0 instructions: 110000000 cycles: 200915238 heartbeat IPC: 0.334622 cumulative IPC: 0.318451 (Simulation time: 0 hr 13 min 2 sec) 
Heartbeat CPU 0 instructions: 120000002 cycles: 226689945 heartbeat IPC: 0.387978 cumulative IPC: 0.326817 (Simulation time: 0 hr 14 min 24 sec) 
Heartbeat CPU 0 instructions: 130000000 cycles: 243435785 heartbeat IPC: 0.597164 cumulative IPC: 0.346421 (Simulation time: 0 hr 15 min 37 sec) 
Heartbeat CPU 0 instructions: 140000002 cycles: 262747090 heartbeat IPC: 0.517832 cumulative IPC: 0.359649 (Simulation time: 0 hr 16 min 50 sec) 
Heartbeat CPU 0 instructions: 150000000 cycles: 294861193 heartbeat IPC: 0.31139 cumulative IPC: 0.35416 (Simulation time: 0 hr 18 min 22 sec) 
Simulation finished CPU 0 instructions: 100000000 cycles: 282358570 cumulative IPC: 0.35416 (Simulation time: 0 hr 18 min 22 sec) 

Simulation complete CPU 0 instructions: 100000000 cycles: 282358570 (Simulation time: 0 hr 18 min 22 sec) 


ChampSim completed all CPUs

Saving instructions large page distribution to /home/bsc/bsc018186/scratch/itp_asplos25_AE/dump/smt_srv207_ap_srv551_ap_1024i.pdst...
Saving data large page distribution to /home/bsc/bsc018186/scratch/itp_asplos25_AE/dump/smt_srv207_ap_srv551_ap_1024i.pdst...
=== Simulation ===
CPU 0 runs /gpfs/projects/bsc18/MN4/bsc18/romol/ChampSim/traces/qualcomm_srv/smt_srv207_ap_srv551_ap_1024i.champsimtrace.xz

Region of Interest Statistics

CPU 0 cumulative IPC: 0.35416 instructions: 100000000 cycles: 282358570
CPU 0 Branch Prediction Accuracy: 77.4636% MPKI: 43.4302 Average ROB Occupancy at Mispredict: 11.2624
Branch type MPKI
BRANCH_DIRECT_JUMP: 1.27779
BRANCH_INDIRECT: 23.718
BRANCH_CONDITIONAL: 11.5725
BRANCH_DIRECT_CALL: 2.41065
BRANCH_INDIRECT_CALL: 1.08264
BRANCH_RETURN: 3.36874

Instructions large pages: 0
Instructions small pages: 11910
Large page distribution for instructions: 0%

Data large pages: 0
Data small pages: 10385
Large page distribution for data: 0%

cpu0_L1I TOTAL       ACCESS:   39648905  HIT:   31908162  MISS:    7740743  iACCESS:   39648905  iHIT:   31908162  iMISS:    7740743  dACCESS:          0  dHIT:          0  dMISS:          0  itACCESS:          0  itHIT:          0  itMISS:          0  dtACCESS:          0  dtHIT:          0  dtMISS:          0
cpu0_L1I LOAD         ACCESS:   11213877  HIT:    9101722  MISS:    2112155  iACCESS:   11213877  iHIT:    9101722  iMISS:    2112155  dACCESS:          0  dHIT:          0  dMISS:          0  itACCESS:          0  itHIT:          0  itMISS:          0  dtACCESS:          0  dtHIT:          0  dtMISS:          0
cpu0_L1I RFO          ACCESS:          0  HIT:          0  MISS:          0  iACCESS:          0  iHIT:          0  iMISS:          0  dACCESS:          0  dHIT:          0  dMISS:          0  itACCESS:          0  itHIT:          0  itMISS:          0  dtACCESS:          0  dtHIT:          0  dtMISS:          0
cpu0_L1I PREFETCH     ACCESS:   28435028  HIT:   22806440  MISS:    5628588  iACCESS:   28435028  iHIT:   22806440  iMISS:    5628588  dACCESS:          0  dHIT:          0  dMISS:          0  itACCESS:          0  itHIT:          0  itMISS:          0  dtACCESS:          0  dtHIT:          0  dtMISS:          0
cpu0_L1I WRITE        ACCESS:          0  HIT:          0  MISS:          0  iACCESS:          0  iHIT:          0  iMISS:          0  dACCESS:          0  dHIT:          0  dMISS:          0  itACCESS:          0  itHIT:          0  itMISS:          0  dtACCESS:          0  dtHIT:          0  dtMISS:          0
cpu0_L1I TRANSLATION  ACCESS:          0  HIT:          0  MISS:          0  iACCESS:          0  iHIT:          0  iMISS:          0  dACCESS:          0  dHIT:          0  dMISS:          0  itACCESS:          0  itHIT:          0  itMISS:          0  dtACCESS:          0  dtHIT:          0  dtMISS:          0
cpu0_L1I PREFETCH  REQUESTED:   31046252  ISSUED:   31046226  CROSSED:          0  USEFUL:    1962872  USELESS:     709742
cpu0_L1I AVERAGE iMISS LATENCY: 24.8379 cycles
cpu0_L1I AVERAGE dMISS LATENCY: 0 cycles
cpu0_L1I AVERAGE itMISS LATENCY: 0 cycles
cpu0_L1I AVERAGE dtMISS LATENCY: 0 cycles
cpu0_L1I PAGE CROSSINGS (TLB HIT):         0 
cpu0_L1I PAGE CROSSINGS (TLB MISS):         0 
cpu0_L1I AVERAGE MISS LATENCY: 24.8379 cycles
cpu0_ITLB TOTAL       ACCESS:   33452122  HIT:   31433466  MISS:    2018656  iACCESS:   33452122  iHIT:   31433466  iMISS:    2018656  dACCESS:          0  dHIT:          0  dMISS:          0  itACCESS:          0  itHIT:          0  itMISS:          0  dtACCESS:          0  dtHIT:          0  dtMISS:          0
cpu0_ITLB LOAD         ACCESS:   33452122  HIT:   31433466  MISS:    2018656  iACCESS:   33452122  iHIT:   31433466  iMISS:    2018656  dACCESS:          0  dHIT:          0  dMISS:          0  itACCESS:          0  itHIT:          0  itMISS:          0  dtACCESS:          0  dtHIT:          0  dtMISS:          0
cpu0_ITLB RFO          ACCESS:          0  HIT:          0  MISS:          0  iACCESS:          0  iHIT:          0  iMISS:          0  dACCESS:          0  dHIT:          0  dMISS:          0  itACCESS:          0  itHIT:          0  itMISS:          0  dtACCESS:          0  dtHIT:          0  dtMISS:          0
cpu0_ITLB PREFETCH     ACCESS:          0  HIT:          0  MISS:          0  iACCESS:          0  iHIT:          0  iMISS:          0  dACCESS:          0  dHIT:          0  dMISS:          0  itACCESS:          0  itHIT:          0  itMISS:          0  dtACCESS:          0  dtHIT:          0  dtMISS:          0
cpu0_ITLB WRITE        ACCESS:          0  HIT:          0  MISS:          0  iACCESS:          0  iHIT:          0  iMISS:          0  dACCESS:          0  dHIT:          0  dMISS:          0  itACCESS:          0  itHIT:          0  itMISS:          0  dtACCESS:          0  dtHIT:          0  dtMISS:          0
cpu0_ITLB TRANSLATION  ACCESS:          0  HIT:          0  MISS:          0  iACCESS:          0  iHIT:          0  iMISS:          0  dACCESS:          0  dHIT:          0  dMISS:          0  itACCESS:          0  itHIT:          0  itMISS:          0  dtACCESS:          0  dtHIT:          0  dtMISS:          0
cpu0_ITLB PREFETCH  REQUESTED:          0  ISSUED:          0  CROSSED:          0  USEFUL:     355639  USELESS:      74313
cpu0_ITLB AVERAGE iMISS LATENCY: 10.6673 cycles
cpu0_ITLB AVERAGE dMISS LATENCY: 0 cycles
cpu0_ITLB AVERAGE itMISS LATENCY: 0 cycles
cpu0_ITLB AVERAGE dtMISS LATENCY: 0 cycles
cpu0_ITLB PAGE CROSSINGS (TLB HIT):         0 
cpu0_ITLB PAGE CROSSINGS (TLB MISS):         0 
cpu0_ITLB AVERAGE MISS LATENCY: 10.6673 cycles
cpu0_DTLB TOTAL       ACCESS:   31102845  HIT:   25031157  MISS:    6071688  iACCESS:          0  iHIT:          0  iMISS:          0  dACCESS:   31102845  dHIT:   25031157  dMISS:    6071688  itACCESS:          0  itHIT:          0  itMISS:          0  dtACCESS:          0  dtHIT:          0  dtMISS:          0
cpu0_DTLB LOAD         ACCESS:   31102845  HIT:   25031157  MISS:    6071688  iACCESS:          0  iHIT:          0  iMISS:          0  dACCESS:   31102845  dHIT:   25031157  dMISS:    6071688  itACCESS:          0  itHIT:          0  itMISS:          0  dtACCESS:          0  dtHIT:          0  dtMISS:          0
cpu0_DTLB RFO          ACCESS:          0  HIT:          0  MISS:          0  iACCESS:          0  iHIT:          0  iMISS:          0  dACCESS:          0  dHIT:          0  dMISS:          0  itACCESS:          0  itHIT:          0  itMISS:          0  dtACCESS:          0  dtHIT:          0  dtMISS:          0
cpu0_DTLB PREFETCH     ACCESS:          0  HIT:          0  MISS:          0  iACCESS:          0  iHIT:          0  iMISS:          0  dACCESS:          0  dHIT:          0  dMISS:          0  itACCESS:          0  itHIT:          0  itMISS:          0  dtACCESS:          0  dtHIT:          0  dtMISS:          0
cpu0_DTLB WRITE        ACCESS:          0  HIT:          0  MISS:          0  iACCESS:          0  iHIT:          0  iMISS:          0  dACCESS:          0  dHIT:          0  dMISS:          0  itACCESS:          0  itHIT:          0  itMISS:          0  dtACCESS:          0  dtHIT:          0  dtMISS:          0
cpu0_DTLB TRANSLATION  ACCESS:          0  HIT:          0  MISS:          0  iACCESS:          0  iHIT:          0  iMISS:          0  dACCESS:          0  dHIT:          0  dMISS:          0  itACCESS:          0  itHIT:          0  itMISS:          0  dtACCESS:          0  dtHIT:          0  dtMISS:          0
cpu0_DTLB PREFETCH  REQUESTED:          0  ISSUED:          0  CROSSED:          0  USEFUL:          0  USELESS:          0
cpu0_DTLB AVERAGE iMISS LATENCY: 0 cycles
cpu0_DTLB AVERAGE dMISS LATENCY: 14.9485 cycles
cpu0_DTLB AVERAGE itMISS LATENCY: 0 cycles
cpu0_DTLB AVERAGE dtMISS LATENCY: 0 cycles
cpu0_DTLB PAGE CROSSINGS (TLB HIT):         0 
cpu0_DTLB PAGE CROSSINGS (TLB MISS):         0 
cpu0_DTLB AVERAGE MISS LATENCY: 14.9485 cycles
cpu0_STLB TOTAL       ACCESS:    3659695  HIT:    3321573  MISS:     338122  iACCESS:     429955  iHIT:     324391  iMISS:     105564  dACCESS:    3229740  dHIT:    2997182  dMISS:     232558  itACCESS:          0  itHIT:          0  itMISS:          0  dtACCESS:          0  dtHIT:          0  dtMISS:          0
cpu0_STLB LOAD         ACCESS:    3659695  HIT:    3321573  MISS:     338122  iACCESS:     429955  iHIT:     324391  iMISS:     105564  dACCESS:    3229740  dHIT:    2997182  dMISS:     232558  itACCESS:          0  itHIT:          0  itMISS:          0  dtACCESS:          0  dtHIT:          0  dtMISS:          0
cpu0_STLB RFO          ACCESS:          0  HIT:          0  MISS:          0  iACCESS:          0  iHIT:          0  iMISS:          0  dACCESS:          0  dHIT:          0  dMISS:          0  itACCESS:          0  itHIT:          0  itMISS:          0  dtACCESS:          0  dtHIT:          0  dtMISS:          0
cpu0_STLB PREFETCH     ACCESS:          0  HIT:          0  MISS:          0  iACCESS:          0  iHIT:          0  iMISS:          0  dACCESS:          0  dHIT:          0  dMISS:          0  itACCESS:          0  itHIT:          0  itMISS:          0  dtACCESS:          0  dtHIT:          0  dtMISS:          0
cpu0_STLB WRITE        ACCESS:          0  HIT:          0  MISS:          0  iACCESS:          0  iHIT:          0  iMISS:          0  dACCESS:          0  dHIT:          0  dMISS:          0  itACCESS:          0  itHIT:          0  itMISS:          0  dtACCESS:          0  dtHIT:          0  dtMISS:          0
cpu0_STLB TRANSLATION  ACCESS:          0  HIT:          0  MISS:          0  iACCESS:          0  iHIT:          0  iMISS:          0  dACCESS:          0  dHIT:          0  dMISS:          0  itACCESS:          0  itHIT:          0  itMISS:          0  dtACCESS:          0  dtHIT:          0  dtMISS:          0
cpu0_STLB PREFETCH  REQUESTED:          0  ISSUED:          0  CROSSED:          0  USEFUL:          0  USELESS:          0
cpu0_STLB AVERAGE iMISS LATENCY: 53.5077 cycles
cpu0_STLB AVERAGE dMISS LATENCY: 191.154 cycles
cpu0_STLB AVERAGE itMISS LATENCY: 0 cycles
cpu0_STLB AVERAGE dtMISS LATENCY: 0 cycles
cpu0_STLB PAGE CROSSINGS (TLB HIT):         0 
cpu0_STLB PAGE CROSSINGS (TLB MISS):         0 
cpu0_STLB AVERAGE MISS LATENCY: 244.662 cycles
cpu0_L1D TOTAL       ACCESS:   48480493  HIT:   40078619  MISS:    8401874  iACCESS:          0  iHIT:          0  iMISS:          0  dACCESS:   47989575  dHIT:   40050947  dMISS:    7938628  itACCESS:     117876  itHIT:      12144  itMISS:     105732  dtACCESS:     373042  dtHIT:      15528  dtMISS:     357514
cpu0_L1D LOAD         ACCESS:   23102058  HIT:   18649487  MISS:    4452571  iACCESS:          0  iHIT:          0  iMISS:          0  dACCESS:   23102058  dHIT:   18649487  dMISS:    4452571  itACCESS:          0  itHIT:          0  itMISS:          0  dtACCESS:          0  dtHIT:          0  dtMISS:          0
cpu0_L1D RFO          ACCESS:          0  HIT:          0  MISS:          0  iACCESS:          0  iHIT:          0  iMISS:          0  dACCESS:          0  dHIT:          0  dMISS:          0  itACCESS:          0  itHIT:          0  itMISS:          0  dtACCESS:          0  dtHIT:          0  dtMISS:          0
cpu0_L1D PREFETCH     ACCESS:   15140820  HIT:   12238737  MISS:    2902083  iACCESS:          0  iHIT:          0  iMISS:          0  dACCESS:   15140820  dHIT:   12238737  dMISS:    2902083  itACCESS:          0  itHIT:          0  itMISS:          0  dtACCESS:          0  dtHIT:          0  dtMISS:          0
cpu0_L1D WRITE        ACCESS:    9746697  HIT:    9162723  MISS:     583974  iACCESS:          0  iHIT:          0  iMISS:          0  dACCESS:    9746697  dHIT:    9162723  dMISS:     583974  itACCESS:          0  itHIT:          0  itMISS:          0  dtACCESS:          0  dtHIT:          0  dtMISS:          0
cpu0_L1D TRANSLATION  ACCESS:     490918  HIT:      27672  MISS:     463246  iACCESS:          0  iHIT:          0  iMISS:          0  dACCESS:          0  dHIT:          0  dMISS:          0  itACCESS:     117876  itHIT:      12144  itMISS:     105732  dtACCESS:     373042  dtHIT:      15528  dtMISS:     357514
cpu0_L1D PREFETCH  REQUESTED:   23102058  ISSUED:   19287188  CROSSED:          0  USEFUL:     346252  USELESS:    1187453
cpu0_L1D AVERAGE iMISS LATENCY: 0 cycles
cpu0_L1D AVERAGE dMISS LATENCY: 34.1538 cycles
cpu0_L1D AVERAGE itMISS LATENCY: 2.035 cycles
cpu0_L1D AVERAGE dtMISS LATENCY: 7.18976 cycles
cpu0_L1D PAGE CROSSINGS (TLB HIT):         0 
cpu0_L1D PAGE CROSSINGS (TLB MISS):         0 
cpu0_L1D AVERAGE MISS LATENCY: 43.3786 cycles
cpu0_L2C TOTAL       ACCESS:   10050402  HIT:    6076695  MISS:    3973707  iACCESS:    3399701  iHIT:    2056460  iMISS:    1343241  dACCESS:    6218089  dHIT:    3968054  dMISS:    2250035  itACCESS:     105606  itHIT:      18530  itMISS:      87076  dtACCESS:     327006  dtHIT:      33651  dtMISS:     293355
cpu0_L2C LOAD         ACCESS:    3710119  HIT:    2758252  MISS:     951867  iACCESS:     757103  iHIT:     476965  iMISS:     280138  dACCESS:    2953016  dHIT:    2281287  dMISS:     671729  itACCESS:          0  itHIT:          0  itMISS:          0  dtACCESS:          0  dtHIT:          0  dtMISS:          0
cpu0_L2C RFO          ACCESS:     233219  HIT:     117092  MISS:     116127  iACCESS:          0  iHIT:          0  iMISS:          0  dACCESS:     233219  dHIT:     117092  dMISS:     116127  itACCESS:          0  itHIT:          0  itMISS:          0  dtACCESS:          0  dtHIT:          0  dtMISS:          0
cpu0_L2C PREFETCH     ACCESS:    5347311  HIT:    2825201  MISS:    2522110  iACCESS:    2642598  iHIT:    1579495  iMISS:    1063103  dACCESS:    2704713  dHIT:    1245706  dMISS:    1459007  itACCESS:          0  itHIT:          0  itMISS:          0  dtACCESS:          0  dtHIT:          0  dtMISS:          0
cpu0_L2C WRITE        ACCESS:     327141  HIT:     323969  MISS:       3172  iACCESS:          0  iHIT:          0  iMISS:          0  dACCESS:     327141  dHIT:     323969  dMISS:       3172  itACCESS:          0  itHIT:          0  itMISS:          0  dtACCESS:          0  dtHIT:          0  dtMISS:          0
cpu0_L2C TRANSLATION  ACCESS:     432612  HIT:      52181  MISS:     380431  iACCESS:          0  iHIT:          0  iMISS:          0  dACCESS:          0  dHIT:          0  dMISS:          0  itACCESS:     105606  itHIT:      18530  itMISS:      87076  dtACCESS:     327006  dtHIT:      33651  dtMISS:     293355
cpu0_L2C PREFETCH  REQUESTED:    1380415  ISSUED:    1380303  CROSSED:          0  USEFUL:     308376  USELESS:     289585
cpu0_L2C AVERAGE iMISS LATENCY: 41.2602 cycles
cpu0_L2C AVERAGE dMISS LATENCY: 80.4409 cycles
cpu0_L2C AVERAGE itMISS LATENCY: 4.04087 cycles
cpu0_L2C AVERAGE dtMISS LATENCY: 14.3828 cycles
cpu0_L2C PAGE CROSSINGS (TLB HIT):         0 
cpu0_L2C PAGE CROSSINGS (TLB MISS):         0 
cpu0_L2C AVERAGE MISS LATENCY: 140.125 cycles
LLC TOTAL       ACCESS:    3965168  HIT:    1151776  MISS:    2813392  iACCESS:    1267294  iHIT:     386177  iMISS:     881117  dACCESS:    2317443  dHIT:     730173  dMISS:    1587270  itACCESS:      87076  itHIT:       6684  itMISS:      80392  dtACCESS:     293355  dtHIT:      28742  dtMISS:     264613
LLC LOAD         ACCESS:     944435  HIT:     288294  MISS:     656141  iACCESS:     279052  iHIT:      91218  iMISS:     187834  dACCESS:     665383  dHIT:     197076  dMISS:     468307  itACCESS:          0  itHIT:          0  itMISS:          0  dtACCESS:          0  dtHIT:          0  dtMISS:          0
LLC RFO          ACCESS:     116123  HIT:      33129  MISS:      82994  iACCESS:          0  iHIT:          0  iMISS:          0  dACCESS:     116123  dHIT:      33129  dMISS:      82994  itACCESS:          0  itHIT:          0  itMISS:          0  dtACCESS:          0  dtHIT:          0  dtMISS:          0
LLC PREFETCH     ACCESS:    2342237  HIT:     622559  MISS:    1719678  iACCESS:     988242  iHIT:     294959  iMISS:     693283  dACCESS:    1353995  dHIT:     327600  dMISS:    1026395  itACCESS:          0  itHIT:          0  itMISS:          0  dtACCESS:          0  dtHIT:          0  dtMISS:          0
LLC WRITE        ACCESS:     181942  HIT:     172368  MISS:       9574  iACCESS:          0  iHIT:          0  iMISS:          0  dACCESS:     181942  dHIT:     172368  dMISS:       9574  itACCESS:          0  itHIT:          0  itMISS:          0  dtACCESS:          0  dtHIT:          0  dtMISS:          0
LLC TRANSLATION  ACCESS:     380431  HIT:      35426  MISS:     345005  iACCESS:          0  iHIT:          0  iMISS:          0  dACCESS:          0  dHIT:          0  dMISS:          0  itACCESS:      87076  itHIT:       6684  itMISS:      80392  dtACCESS:     293355  dtHIT:      28742  dtMISS:     264613
LLC PREFETCH  REQUESTED:          0  ISSUED:          0  CROSSED:          0  USEFUL:          0  USELESS:          0
LLC AVERAGE iMISS LATENCY: 49.3995 cycles
LLC AVERAGE dMISS LATENCY: 99.5744 cycles
LLC AVERAGE itMISS LATENCY: 5.09369 cycles
LLC AVERAGE dtMISS LATENCY: 18.2525 cycles
LLC PAGE CROSSINGS (TLB HIT):         0 
LLC PAGE CROSSINGS (TLB MISS):         0 
LLC AVERAGE MISS LATENCY: 172.32 cycles

PageTableWalker TOTAL       ACCESS:     194120  
PageTableWalker AVERAGE LATENCY: 6.50969 cycles
PageTableWalker TOTAL LATENCY: 1263660 cycles

DRAM Statistics
Channel 0
 RQ ROW_BUFFER_HIT:     605159
  ROW_BUFFER_MISS:    2181459
 AVG DBUS CONGESTED CYCLE:    3.65003
 WQ ROW_BUFFER_HIT:      58587
  ROW_BUFFER_MISS:      49074  FULL:          0

