last_page:0x200000000000000
VMEM_RES_CAP:0x100000
PAGE_SIZE:4096
LOG2_PAGE_SIZE:12
LOG2_PAGE_TABLE_SIZE:9
page_table_levels:5
WARNING: physical memory size is smaller than virtual memory size
FDiP enabled with aggresivity 16

*** ChampSim Multicore Out-of-Order Simulator ***

Warmup Instructions: 50000000
Simulation Instructions: 100000000
Number of CPUs: 1
Small page size: 4096
Large page size: 2097152

CPU 0 Bimodal branch predictor
Basic BTB sets: 1024 ways: 8 indirect buffer size: 4096 RAS size: 64
Instruction page size distrubution: 0
Loading instruction page size distribution from /home/bsc/bsc018186/scratch/itp_asplos25_AE/dump/smt_srv537_ap_srv551_ap_1024i.pdst
Data page size distrubution: 0
Loading data page size distribution from /home/bsc/bsc018186/scratch/itp_asplos25_AE/dump/smt_srv537_ap_srv551_ap_1024i.pdst
cpu0_L2C IP-based stride prefetcher
cpu0_L1D next line prefetcher
CHiRPing...
cpu0_L1I next line prefetcher
Off-chip DRAM Size: 4 GiB Channels: 1 Width: 64-bit Data Rate: 3200 MT/s
Heartbeat CPU 0 instructions: 10000003 cycles: 2500665 heartbeat IPC: 3.99894 cumulative IPC: 3.99894 (Simulation time: 0 hr 0 min 46 sec) 
Heartbeat CPU 0 instructions: 20000000 cycles: 5001019 heartbeat IPC: 3.99944 cumulative IPC: 3.99919 (Simulation time: 0 hr 1 min 33 sec) 
Heartbeat CPU 0 instructions: 30000003 cycles: 7501226 heartbeat IPC: 3.99968 cumulative IPC: 3.99935 (Simulation time: 0 hr 2 min 21 sec) 
Heartbeat CPU 0 instructions: 40000003 cycles: 10001569 heartbeat IPC: 3.99946 cumulative IPC: 3.99938 (Simulation time: 0 hr 3 min 10 sec) 
Heartbeat CPU 0 instructions: 50000000 cycles: 12502006 heartbeat IPC: 3.9993 cumulative IPC: 3.99936 (Simulation time: 0 hr 3 min 59 sec) 
Warmup finished CPU 0 instructions: 50000000 cycles: 12502007 cumulative IPC: 3.99936 (Simulation time: 0 hr 3 min 59 sec) 

Warmup complete CPU 0 instructions: 50000000 cycles: 12502007 (Simulation time: 0 hr 3 min 59 sec) 

Heartbeat CPU 0 instructions: 60000000 cycles: 42748923 heartbeat IPC: 0.330613 cumulative IPC: 0.330613 (Simulation time: 0 hr 5 min 37 sec) 
Heartbeat CPU 0 instructions: 70000000 cycles: 74340865 heartbeat IPC: 0.316537 cumulative IPC: 0.323422 (Simulation time: 0 hr 7 min 19 sec) 
Heartbeat CPU 0 instructions: 80000000 cycles: 104736971 heartbeat IPC: 0.32899 cumulative IPC: 0.325257 (Simulation time: 0 hr 9 min 0 sec) 
Heartbeat CPU 0 instructions: 90000000 cycles: 134840727 heartbeat IPC: 0.332185 cumulative IPC: 0.326962 (Simulation time: 0 hr 10 min 41 sec) 
Heartbeat CPU 0 instructions: 100000003 cycles: 165073752 heartbeat IPC: 0.330765 cumulative IPC: 0.327715 (Simulation time: 0 hr 12 min 21 sec) 
Heartbeat CPU 0 instructions: 110000000 cycles: 195121399 heartbeat IPC: 0.332805 cumulative IPC: 0.328553 (Simulation time: 0 hr 14 min 2 sec) 
Heartbeat CPU 0 instructions: 120000001 cycles: 220411701 heartbeat IPC: 0.395409 cumulative IPC: 0.336685 (Simulation time: 0 hr 15 min 37 sec) 
Heartbeat CPU 0 instructions: 130000000 cycles: 236132080 heartbeat IPC: 0.636117 cumulative IPC: 0.357734 (Simulation time: 0 hr 16 min 58 sec) 
Heartbeat CPU 0 instructions: 140000001 cycles: 253501282 heartbeat IPC: 0.575732 cumulative IPC: 0.373446 (Simulation time: 0 hr 18 min 13 sec) 
Heartbeat CPU 0 instructions: 150000002 cycles: 284660604 heartbeat IPC: 0.320932 cumulative IPC: 0.367433 (Simulation time: 0 hr 19 min 43 sec) 
Simulation finished CPU 0 instructions: 100000002 cycles: 272158598 cumulative IPC: 0.367433 (Simulation time: 0 hr 19 min 43 sec) 

Simulation complete CPU 0 instructions: 100000002 cycles: 272158598 (Simulation time: 0 hr 19 min 43 sec) 


ChampSim completed all CPUs

Saving instructions large page distribution to /home/bsc/bsc018186/scratch/itp_asplos25_AE/dump/smt_srv537_ap_srv551_ap_1024i.pdst...
Saving data large page distribution to /home/bsc/bsc018186/scratch/itp_asplos25_AE/dump/smt_srv537_ap_srv551_ap_1024i.pdst...
=== Simulation ===
CPU 0 runs /gpfs/projects/bsc18/MN4/bsc18/romol/ChampSim/traces/qualcomm_srv/smt_srv537_ap_srv551_ap_1024i.champsimtrace.xz

Region of Interest Statistics

CPU 0 cumulative IPC: 0.367433 instructions: 100000002 cycles: 272158598
CPU 0 Branch Prediction Accuracy: 77.9643% MPKI: 42.5818 Average ROB Occupancy at Mispredict: 11.0367
Branch type MPKI
BRANCH_DIRECT_JUMP: 1.24462
BRANCH_INDIRECT: 22.852
BRANCH_CONDITIONAL: 11.7124
BRANCH_DIRECT_CALL: 2.38076
BRANCH_INDIRECT_CALL: 1.08293
BRANCH_RETURN: 3.30916

Instructions large pages: 0
Instructions small pages: 10737
Large page distribution for instructions: 0%

Data large pages: 0
Data small pages: 9299
Large page distribution for data: 0%

cpu0_L1I TOTAL       ACCESS:   39979869  HIT:   32236773  MISS:    7743096  iACCESS:   39979869  iHIT:   32236773  iMISS:    7743096  dACCESS:          0  dHIT:          0  dMISS:          0  itACCESS:          0  itHIT:          0  itMISS:          0  dtACCESS:          0  dtHIT:          0  dtMISS:          0
cpu0_L1I LOAD         ACCESS:   11456469  HIT:    9348368  MISS:    2108101  iACCESS:   11456469  iHIT:    9348368  iMISS:    2108101  dACCESS:          0  dHIT:          0  dMISS:          0  itACCESS:          0  itHIT:          0  itMISS:          0  dtACCESS:          0  dtHIT:          0  dtMISS:          0
cpu0_L1I RFO          ACCESS:          0  HIT:          0  MISS:          0  iACCESS:          0  iHIT:          0  iMISS:          0  dACCESS:          0  dHIT:          0  dMISS:          0  itACCESS:          0  itHIT:          0  itMISS:          0  dtACCESS:          0  dtHIT:          0  dtMISS:          0
cpu0_L1I PREFETCH     ACCESS:   28523400  HIT:   22888405  MISS:    5634995  iACCESS:   28523400  iHIT:   22888405  iMISS:    5634995  dACCESS:          0  dHIT:          0  dMISS:          0  itACCESS:          0  itHIT:          0  itMISS:          0  dtACCESS:          0  dtHIT:          0  dtMISS:          0
cpu0_L1I WRITE        ACCESS:          0  HIT:          0  MISS:          0  iACCESS:          0  iHIT:          0  iMISS:          0  dACCESS:          0  dHIT:          0  dMISS:          0  itACCESS:          0  itHIT:          0  itMISS:          0  dtACCESS:          0  dtHIT:          0  dtMISS:          0
cpu0_L1I TRANSLATION  ACCESS:          0  HIT:          0  MISS:          0  iACCESS:          0  iHIT:          0  iMISS:          0  dACCESS:          0  dHIT:          0  dMISS:          0  itACCESS:          0  itHIT:          0  itMISS:          0  dtACCESS:          0  dtHIT:          0  dtMISS:          0
cpu0_L1I PREFETCH  REQUESTED:   31260494  ISSUED:   31260457  CROSSED:          0  USEFUL:    1978832  USELESS:     685975
cpu0_L1I AVERAGE iMISS LATENCY: 24.0246 cycles
cpu0_L1I AVERAGE dMISS LATENCY: 0 cycles
cpu0_L1I AVERAGE itMISS LATENCY: 0 cycles
cpu0_L1I AVERAGE dtMISS LATENCY: 0 cycles
cpu0_L1I PAGE CROSSINGS (TLB HIT):         0 
cpu0_L1I PAGE CROSSINGS (TLB MISS):         0 
cpu0_L1I AVERAGE MISS LATENCY: 24.0246 cycles
cpu0_ITLB TOTAL       ACCESS:   33616760  HIT:   31622397  MISS:    1994363  iACCESS:   33616760  iHIT:   31622397  iMISS:    1994363  dACCESS:          0  dHIT:          0  dMISS:          0  itACCESS:          0  itHIT:          0  itMISS:          0  dtACCESS:          0  dtHIT:          0  dtMISS:          0
cpu0_ITLB LOAD         ACCESS:   33616760  HIT:   31622397  MISS:    1994363  iACCESS:   33616760  iHIT:   31622397  iMISS:    1994363  dACCESS:          0  dHIT:          0  dMISS:          0  itACCESS:          0  itHIT:          0  itMISS:          0  dtACCESS:          0  dtHIT:          0  dtMISS:          0
cpu0_ITLB RFO          ACCESS:          0  HIT:          0  MISS:          0  iACCESS:          0  iHIT:          0  iMISS:          0  dACCESS:          0  dHIT:          0  dMISS:          0  itACCESS:          0  itHIT:          0  itMISS:          0  dtACCESS:          0  dtHIT:          0  dtMISS:          0
cpu0_ITLB PREFETCH     ACCESS:          0  HIT:          0  MISS:          0  iACCESS:          0  iHIT:          0  iMISS:          0  dACCESS:          0  dHIT:          0  dMISS:          0  itACCESS:          0  itHIT:          0  itMISS:          0  dtACCESS:          0  dtHIT:          0  dtMISS:          0
cpu0_ITLB WRITE        ACCESS:          0  HIT:          0  MISS:          0  iACCESS:          0  iHIT:          0  iMISS:          0  dACCESS:          0  dHIT:          0  dMISS:          0  itACCESS:          0  itHIT:          0  itMISS:          0  dtACCESS:          0  dtHIT:          0  dtMISS:          0
cpu0_ITLB TRANSLATION  ACCESS:          0  HIT:          0  MISS:          0  iACCESS:          0  iHIT:          0  iMISS:          0  dACCESS:          0  dHIT:          0  dMISS:          0  itACCESS:          0  itHIT:          0  itMISS:          0  dtACCESS:          0  dtHIT:          0  dtMISS:          0
cpu0_ITLB PREFETCH  REQUESTED:          0  ISSUED:          0  CROSSED:          0  USEFUL:     349014  USELESS:      71282
cpu0_ITLB AVERAGE iMISS LATENCY: 10.1532 cycles
cpu0_ITLB AVERAGE dMISS LATENCY: 0 cycles
cpu0_ITLB AVERAGE itMISS LATENCY: 0 cycles
cpu0_ITLB AVERAGE dtMISS LATENCY: 0 cycles
cpu0_ITLB PAGE CROSSINGS (TLB HIT):         0 
cpu0_ITLB PAGE CROSSINGS (TLB MISS):         0 
cpu0_ITLB AVERAGE MISS LATENCY: 10.1532 cycles
cpu0_DTLB TOTAL       ACCESS:   30750314  HIT:   24775375  MISS:    5974939  iACCESS:          0  iHIT:          0  iMISS:          0  dACCESS:   30750314  dHIT:   24775375  dMISS:    5974939  itACCESS:          0  itHIT:          0  itMISS:          0  dtACCESS:          0  dtHIT:          0  dtMISS:          0
cpu0_DTLB LOAD         ACCESS:   30750314  HIT:   24775375  MISS:    5974939  iACCESS:          0  iHIT:          0  iMISS:          0  dACCESS:   30750314  dHIT:   24775375  dMISS:    5974939  itACCESS:          0  itHIT:          0  itMISS:          0  dtACCESS:          0  dtHIT:          0  dtMISS:          0
cpu0_DTLB RFO          ACCESS:          0  HIT:          0  MISS:          0  iACCESS:          0  iHIT:          0  iMISS:          0  dACCESS:          0  dHIT:          0  dMISS:          0  itACCESS:          0  itHIT:          0  itMISS:          0  dtACCESS:          0  dtHIT:          0  dtMISS:          0
cpu0_DTLB PREFETCH     ACCESS:          0  HIT:          0  MISS:          0  iACCESS:          0  iHIT:          0  iMISS:          0  dACCESS:          0  dHIT:          0  dMISS:          0  itACCESS:          0  itHIT:          0  itMISS:          0  dtACCESS:          0  dtHIT:          0  dtMISS:          0
cpu0_DTLB WRITE        ACCESS:          0  HIT:          0  MISS:          0  iACCESS:          0  iHIT:          0  iMISS:          0  dACCESS:          0  dHIT:          0  dMISS:          0  itACCESS:          0  itHIT:          0  itMISS:          0  dtACCESS:          0  dtHIT:          0  dtMISS:          0
cpu0_DTLB TRANSLATION  ACCESS:          0  HIT:          0  MISS:          0  iACCESS:          0  iHIT:          0  iMISS:          0  dACCESS:          0  dHIT:          0  dMISS:          0  itACCESS:          0  itHIT:          0  itMISS:          0  dtACCESS:          0  dtHIT:          0  dtMISS:          0
cpu0_DTLB PREFETCH  REQUESTED:          0  ISSUED:          0  CROSSED:          0  USEFUL:          0  USELESS:          0
cpu0_DTLB AVERAGE iMISS LATENCY: 0 cycles
cpu0_DTLB AVERAGE dMISS LATENCY: 14.3967 cycles
cpu0_DTLB AVERAGE itMISS LATENCY: 0 cycles
cpu0_DTLB AVERAGE dtMISS LATENCY: 0 cycles
cpu0_DTLB PAGE CROSSINGS (TLB HIT):         0 
cpu0_DTLB PAGE CROSSINGS (TLB MISS):         0 
cpu0_DTLB AVERAGE MISS LATENCY: 14.3967 cycles
cpu0_STLB TOTAL       ACCESS:    3539170  HIT:    3221445  MISS:     317725  iACCESS:     420302  iHIT:     316932  iMISS:     103370  dACCESS:    3118868  dHIT:    2904513  dMISS:     214355  itACCESS:          0  itHIT:          0  itMISS:          0  dtACCESS:          0  dtHIT:          0  dtMISS:          0
cpu0_STLB LOAD         ACCESS:    3539170  HIT:    3221445  MISS:     317725  iACCESS:     420302  iHIT:     316932  iMISS:     103370  dACCESS:    3118868  dHIT:    2904513  dMISS:     214355  itACCESS:          0  itHIT:          0  itMISS:          0  dtACCESS:          0  dtHIT:          0  dtMISS:          0
cpu0_STLB RFO          ACCESS:          0  HIT:          0  MISS:          0  iACCESS:          0  iHIT:          0  iMISS:          0  dACCESS:          0  dHIT:          0  dMISS:          0  itACCESS:          0  itHIT:          0  itMISS:          0  dtACCESS:          0  dtHIT:          0  dtMISS:          0
cpu0_STLB PREFETCH     ACCESS:          0  HIT:          0  MISS:          0  iACCESS:          0  iHIT:          0  iMISS:          0  dACCESS:          0  dHIT:          0  dMISS:          0  itACCESS:          0  itHIT:          0  itMISS:          0  dtACCESS:          0  dtHIT:          0  dtMISS:          0
cpu0_STLB WRITE        ACCESS:          0  HIT:          0  MISS:          0  iACCESS:          0  iHIT:          0  iMISS:          0  dACCESS:          0  dHIT:          0  dMISS:          0  itACCESS:          0  itHIT:          0  itMISS:          0  dtACCESS:          0  dtHIT:          0  dtMISS:          0
cpu0_STLB TRANSLATION  ACCESS:          0  HIT:          0  MISS:          0  iACCESS:          0  iHIT:          0  iMISS:          0  dACCESS:          0  dHIT:          0  dMISS:          0  itACCESS:          0  itHIT:          0  itMISS:          0  dtACCESS:          0  dtHIT:          0  dtMISS:          0
cpu0_STLB PREFETCH  REQUESTED:          0  ISSUED:          0  CROSSED:          0  USEFUL:          0  USELESS:          0
cpu0_STLB AVERAGE iMISS LATENCY: 53.1428 cycles
cpu0_STLB AVERAGE dMISS LATENCY: 191.333 cycles
cpu0_STLB AVERAGE itMISS LATENCY: 0 cycles
cpu0_STLB AVERAGE dtMISS LATENCY: 0 cycles
cpu0_STLB PAGE CROSSINGS (TLB HIT):         0 
cpu0_STLB PAGE CROSSINGS (TLB MISS):         0 
cpu0_STLB AVERAGE MISS LATENCY: 244.476 cycles
cpu0_L1D TOTAL       ACCESS:   47846241  HIT:   39645823  MISS:    8200418  iACCESS:          0  iHIT:          0  iMISS:          0  dACCESS:   47379108  dHIT:   39618072  dMISS:    7761036  itACCESS:     114536  itHIT:      13581  itMISS:     100955  dtACCESS:     352597  dtHIT:      14170  dtMISS:     338427
cpu0_L1D LOAD         ACCESS:   22724126  HIT:   18347249  MISS:    4376877  iACCESS:          0  iHIT:          0  iMISS:          0  dACCESS:   22724126  dHIT:   18347249  dMISS:    4376877  itACCESS:          0  itHIT:          0  itMISS:          0  dtACCESS:          0  dtHIT:          0  dtMISS:          0
cpu0_L1D RFO          ACCESS:          0  HIT:          0  MISS:          0  iACCESS:          0  iHIT:          0  iMISS:          0  dACCESS:          0  dHIT:          0  dMISS:          0  itACCESS:          0  itHIT:          0  itMISS:          0  dtACCESS:          0  dtHIT:          0  dtMISS:          0
cpu0_L1D PREFETCH     ACCESS:   14847302  HIT:   12020241  MISS:    2827061  iACCESS:          0  iHIT:          0  iMISS:          0  dACCESS:   14847302  dHIT:   12020241  dMISS:    2827061  itACCESS:          0  itHIT:          0  itMISS:          0  dtACCESS:          0  dtHIT:          0  dtMISS:          0
cpu0_L1D WRITE        ACCESS:    9807680  HIT:    9250582  MISS:     557098  iACCESS:          0  iHIT:          0  iMISS:          0  dACCESS:    9807680  dHIT:    9250582  dMISS:     557098  itACCESS:          0  itHIT:          0  itMISS:          0  dtACCESS:          0  dtHIT:          0  dtMISS:          0
cpu0_L1D TRANSLATION  ACCESS:     467133  HIT:      27751  MISS:     439382  iACCESS:          0  iHIT:          0  iMISS:          0  dACCESS:          0  dHIT:          0  dMISS:          0  itACCESS:     114536  itHIT:      13581  itMISS:     100955  dtACCESS:     352597  dtHIT:      14170  dtMISS:     338427
cpu0_L1D PREFETCH  REQUESTED:   22724126  ISSUED:   18849712  CROSSED:          0  USEFUL:     339645  USELESS:    1126957
cpu0_L1D AVERAGE iMISS LATENCY: 0 cycles
cpu0_L1D AVERAGE dMISS LATENCY: 33.2349 cycles
cpu0_L1D AVERAGE itMISS LATENCY: 1.93856 cycles
cpu0_L1D AVERAGE dtMISS LATENCY: 6.90499 cycles
cpu0_L1D PAGE CROSSINGS (TLB HIT):         0 
cpu0_L1D PAGE CROSSINGS (TLB MISS):         0 
cpu0_L1D AVERAGE MISS LATENCY: 42.0785 cycles
cpu0_L2C TOTAL       ACCESS:    9917620  HIT:    6039508  MISS:    3878112  iACCESS:    3382453  iHIT:    2064942  iMISS:    1317511  dACCESS:    6127975  dHIT:    3924795  dMISS:    2203180  itACCESS:     100869  itHIT:      18743  itMISS:      82126  dtACCESS:     306323  dtHIT:      31028  dtMISS:     275295
cpu0_L2C LOAD         ACCESS:    3677812  HIT:    2761910  MISS:     915902  iACCESS:     751049  iHIT:     478220  iMISS:     272829  dACCESS:    2926763  dHIT:    2283690  dMISS:     643073  itACCESS:          0  itHIT:          0  itMISS:          0  dtACCESS:          0  dtHIT:          0  dtMISS:          0
cpu0_L2C RFO          ACCESS:     226957  HIT:     111712  MISS:     115245  iACCESS:          0  iHIT:          0  iMISS:          0  dACCESS:     226957  dHIT:     111712  dMISS:     115245  itACCESS:          0  itHIT:          0  itMISS:          0  dtACCESS:          0  dtHIT:          0  dtMISS:          0
cpu0_L2C PREFETCH     ACCESS:    5277902  HIT:    2791457  MISS:    2486445  iACCESS:    2631404  iHIT:    1586722  iMISS:    1044682  dACCESS:    2646498  dHIT:    1204735  dMISS:    1441763  itACCESS:          0  itHIT:          0  itMISS:          0  dtACCESS:          0  dtHIT:          0  dtMISS:          0
cpu0_L2C WRITE        ACCESS:     327757  HIT:     324658  MISS:       3099  iACCESS:          0  iHIT:          0  iMISS:          0  dACCESS:     327757  dHIT:     324658  dMISS:       3099  itACCESS:          0  itHIT:          0  itMISS:          0  dtACCESS:          0  dtHIT:          0  dtMISS:          0
cpu0_L2C TRANSLATION  ACCESS:     407192  HIT:      49771  MISS:     357421  iACCESS:          0  iHIT:          0  iMISS:          0  dACCESS:          0  dHIT:          0  dMISS:          0  itACCESS:     100869  itHIT:      18743  itMISS:      82126  dtACCESS:     306323  dtHIT:      31028  dtMISS:     275295
cpu0_L2C PREFETCH  REQUESTED:    1395876  ISSUED:    1395768  CROSSED:          0  USEFUL:     319104  USELESS:     287633
cpu0_L2C AVERAGE iMISS LATENCY: 40.6635 cycles
cpu0_L2C AVERAGE dMISS LATENCY: 78.567 cycles
cpu0_L2C AVERAGE itMISS LATENCY: 3.84313 cycles
cpu0_L2C AVERAGE dtMISS LATENCY: 13.8148 cycles
cpu0_L2C PAGE CROSSINGS (TLB HIT):         0 
cpu0_L2C PAGE CROSSINGS (TLB MISS):         0 
cpu0_L2C AVERAGE MISS LATENCY: 136.889 cycles
LLC TOTAL       ACCESS:    3865730  HIT:    1179337  MISS:    2686393  iACCESS:    1238211  iHIT:     389243  iMISS:     848968  dACCESS:    2270098  dHIT:     755742  dMISS:    1514356  itACCESS:      82126  itHIT:       7643  itMISS:      74483  dtACCESS:     275295  dtHIT:      26709  dtMISS:     248586
LLC LOAD         ACCESS:     909010  HIT:     290712  MISS:     618298  iACCESS:     271821  iHIT:      90284  iMISS:     181537  dACCESS:     637189  dHIT:     200428  dMISS:     436761  itACCESS:          0  itHIT:          0  itMISS:          0  dtACCESS:          0  dtHIT:          0  dtMISS:          0
LLC RFO          ACCESS:     115240  HIT:      35101  MISS:      80139  iACCESS:          0  iHIT:          0  iMISS:          0  dACCESS:     115240  dHIT:      35101  dMISS:      80139  itACCESS:          0  itHIT:          0  itMISS:          0  dtACCESS:          0  dtHIT:          0  dtMISS:          0
LLC PREFETCH     ACCESS:    2299837  HIT:     644028  MISS:    1655809  iACCESS:     966390  iHIT:     298959  iMISS:     667431  dACCESS:    1333447  dHIT:     345069  dMISS:     988378  itACCESS:          0  itHIT:          0  itMISS:          0  dtACCESS:          0  dtHIT:          0  dtMISS:          0
LLC WRITE        ACCESS:     184222  HIT:     175144  MISS:       9078  iACCESS:          0  iHIT:          0  iMISS:          0  dACCESS:     184222  dHIT:     175144  dMISS:       9078  itACCESS:          0  itHIT:          0  itMISS:          0  dtACCESS:          0  dtHIT:          0  dtMISS:          0
LLC TRANSLATION  ACCESS:     357421  HIT:      34352  MISS:     323069  iACCESS:          0  iHIT:          0  iMISS:          0  dACCESS:          0  dHIT:          0  dMISS:          0  itACCESS:      82126  itHIT:       7643  itMISS:      74483  dtACCESS:     275295  dtHIT:      26709  dtMISS:     248586
LLC PREFETCH  REQUESTED:          0  ISSUED:          0  CROSSED:          0  USEFUL:          0  USELESS:          0
LLC AVERAGE iMISS LATENCY: 49.6269 cycles
LLC AVERAGE dMISS LATENCY: 98.9317 cycles
LLC AVERAGE itMISS LATENCY: 4.94201 cycles
LLC AVERAGE dtMISS LATENCY: 17.917 cycles
LLC PAGE CROSSINGS (TLB HIT):         0 
LLC PAGE CROSSINGS (TLB MISS):         0 
LLC AVERAGE MISS LATENCY: 171.418 cycles

PageTableWalker TOTAL       ACCESS:     183725  
PageTableWalker AVERAGE LATENCY: 6.48395 cycles
PageTableWalker TOTAL LATENCY: 1191263 cycles

DRAM Statistics
Channel 0
 RQ ROW_BUFFER_HIT:     577543
  ROW_BUFFER_MISS:    2083551
 AVG DBUS CONGESTED CYCLE:    3.65064
 WQ ROW_BUFFER_HIT:      56263
  ROW_BUFFER_MISS:      48407  FULL:          0

