last_page:0x200000000000000
VMEM_RES_CAP:0x100000
PAGE_SIZE:4096
LOG2_PAGE_SIZE:12
LOG2_PAGE_TABLE_SIZE:9
page_table_levels:5
WARNING: physical memory size is smaller than virtual memory size
FDiP enabled with aggresivity 16

*** ChampSim Multicore Out-of-Order Simulator ***

Warmup Instructions: 50000000
Simulation Instructions: 100000000
Number of CPUs: 1
Small page size: 4096
Large page size: 2097152

CPU 0 Bimodal branch predictor
Basic BTB sets: 1024 ways: 8 indirect buffer size: 4096 RAS size: 64
Instruction page size distrubution: 0
Loading instruction page size distribution from /home/bsc/bsc018186/scratch/itp_asplos25_AE/dump/smt_srv537_ap_srv259_ap_1024i.pdst
Data page size distrubution: 0
Loading data page size distribution from /home/bsc/bsc018186/scratch/itp_asplos25_AE/dump/smt_srv537_ap_srv259_ap_1024i.pdst
cpu0_L2C IP-based stride prefetcher
cpu0_L1D next line prefetcher
cpu0_L1I next line prefetcher
Off-chip DRAM Size: 4 GiB Channels: 1 Width: 64-bit Data Rate: 3200 MT/s
Heartbeat CPU 0 instructions: 10000001 cycles: 2500450 heartbeat IPC: 3.99929 cumulative IPC: 3.99929 (Simulation time: 0 hr 0 min 40 sec) 
Heartbeat CPU 0 instructions: 20000000 cycles: 5000631 heartbeat IPC: 3.99972 cumulative IPC: 3.9995 (Simulation time: 0 hr 1 min 22 sec) 
Heartbeat CPU 0 instructions: 30000002 cycles: 7501019 heartbeat IPC: 3.99939 cumulative IPC: 3.99946 (Simulation time: 0 hr 2 min 4 sec) 
Heartbeat CPU 0 instructions: 40000000 cycles: 10001356 heartbeat IPC: 3.99947 cumulative IPC: 3.99946 (Simulation time: 0 hr 2 min 48 sec) 
Heartbeat CPU 0 instructions: 50000002 cycles: 12501656 heartbeat IPC: 3.99953 cumulative IPC: 3.99948 (Simulation time: 0 hr 3 min 32 sec) 
Warmup finished CPU 0 instructions: 50000002 cycles: 12501657 cumulative IPC: 3.99947 (Simulation time: 0 hr 3 min 32 sec) 

Warmup complete CPU 0 instructions: 50000002 cycles: 12501657 (Simulation time: 0 hr 3 min 32 sec) 

Heartbeat CPU 0 instructions: 60000000 cycles: 38652993 heartbeat IPC: 0.38239 cumulative IPC: 0.38239 (Simulation time: 0 hr 4 min 57 sec) 
Heartbeat CPU 0 instructions: 70000002 cycles: 65895955 heartbeat IPC: 0.367068 cumulative IPC: 0.374572 (Simulation time: 0 hr 6 min 25 sec) 
Heartbeat CPU 0 instructions: 80000001 cycles: 92050698 heartbeat IPC: 0.38234 cumulative IPC: 0.377126 (Simulation time: 0 hr 7 min 50 sec) 
Heartbeat CPU 0 instructions: 90000000 cycles: 116979079 heartbeat IPC: 0.40115 cumulative IPC: 0.382858 (Simulation time: 0 hr 9 min 14 sec) 
Heartbeat CPU 0 instructions: 100000003 cycles: 144282561 heartbeat IPC: 0.366254 cumulative IPC: 0.379418 (Simulation time: 0 hr 10 min 41 sec) 
Heartbeat CPU 0 instructions: 110000002 cycles: 170054483 heartbeat IPC: 0.38802 cumulative IPC: 0.380825 (Simulation time: 0 hr 12 min 6 sec) 
Heartbeat CPU 0 instructions: 120000004 cycles: 195529444 heartbeat IPC: 0.392543 cumulative IPC: 0.382456 (Simulation time: 0 hr 13 min 30 sec) 
Heartbeat CPU 0 instructions: 130000002 cycles: 219709688 heartbeat IPC: 0.413561 cumulative IPC: 0.386086 (Simulation time: 0 hr 14 min 54 sec) 
Heartbeat CPU 0 instructions: 140000003 cycles: 244900621 heartbeat IPC: 0.396969 cumulative IPC: 0.387266 (Simulation time: 0 hr 16 min 18 sec) 
Heartbeat CPU 0 instructions: 150000003 cycles: 270561131 heartbeat IPC: 0.389704 cumulative IPC: 0.387508 (Simulation time: 0 hr 17 min 46 sec) 
Simulation finished CPU 0 instructions: 100000001 cycles: 258059475 cumulative IPC: 0.387508 (Simulation time: 0 hr 17 min 46 sec) 

Simulation complete CPU 0 instructions: 100000001 cycles: 258059475 (Simulation time: 0 hr 17 min 46 sec) 


ChampSim completed all CPUs

Saving instructions large page distribution to /home/bsc/bsc018186/scratch/itp_asplos25_AE/dump/smt_srv537_ap_srv259_ap_1024i.pdst...
Saving data large page distribution to /home/bsc/bsc018186/scratch/itp_asplos25_AE/dump/smt_srv537_ap_srv259_ap_1024i.pdst...
=== Simulation ===
CPU 0 runs /gpfs/projects/bsc18/MN4/bsc18/romol/ChampSim/traces/qualcomm_srv/smt_srv537_ap_srv259_ap_1024i.champsimtrace.xz

Region of Interest Statistics

CPU 0 cumulative IPC: 0.387508 instructions: 100000001 cycles: 258059475
CPU 0 Branch Prediction Accuracy: 76.8324% MPKI: 41.8154 Average ROB Occupancy at Mispredict: 11.0844
Branch type MPKI
BRANCH_DIRECT_JUMP: 1.26646
BRANCH_INDIRECT: 22.3034
BRANCH_CONDITIONAL: 11.5263
BRANCH_DIRECT_CALL: 2.36182
BRANCH_INDIRECT_CALL: 0.99882
BRANCH_RETURN: 3.35863

Instructions large pages: 0
Instructions small pages: 10008
Large page distribution for instructions: 0%

Data large pages: 0
Data small pages: 8818
Large page distribution for data: 0%

cpu0_L1I TOTAL       ACCESS:   39176025  HIT:   29856132  MISS:    9319893  iACCESS:   39176025  iHIT:   29856132  iMISS:    9319893  dACCESS:          0  dHIT:          0  dMISS:          0  itACCESS:          0  itHIT:          0  itMISS:          0  dtACCESS:          0  dtHIT:          0  dtMISS:          0
cpu0_L1I LOAD         ACCESS:   11740949  HIT:    9177703  MISS:    2563246  iACCESS:   11740949  iHIT:    9177703  iMISS:    2563246  dACCESS:          0  dHIT:          0  dMISS:          0  itACCESS:          0  itHIT:          0  itMISS:          0  dtACCESS:          0  dtHIT:          0  dtMISS:          0
cpu0_L1I RFO          ACCESS:          0  HIT:          0  MISS:          0  iACCESS:          0  iHIT:          0  iMISS:          0  dACCESS:          0  dHIT:          0  dMISS:          0  itACCESS:          0  itHIT:          0  itMISS:          0  dtACCESS:          0  dtHIT:          0  dtMISS:          0
cpu0_L1I PREFETCH     ACCESS:   27435076  HIT:   20678429  MISS:    6756647  iACCESS:   27435076  iHIT:   20678429  iMISS:    6756647  dACCESS:          0  dHIT:          0  dMISS:          0  itACCESS:          0  itHIT:          0  itMISS:          0  dtACCESS:          0  dtHIT:          0  dtMISS:          0
cpu0_L1I WRITE        ACCESS:          0  HIT:          0  MISS:          0  iACCESS:          0  iHIT:          0  iMISS:          0  dACCESS:          0  dHIT:          0  dMISS:          0  itACCESS:          0  itHIT:          0  itMISS:          0  dtACCESS:          0  dtHIT:          0  dtMISS:          0
cpu0_L1I TRANSLATION  ACCESS:          0  HIT:          0  MISS:          0  iACCESS:          0  iHIT:          0  iMISS:          0  dACCESS:          0  dHIT:          0  dMISS:          0  itACCESS:          0  itHIT:          0  itMISS:          0  dtACCESS:          0  dtHIT:          0  dtMISS:          0
cpu0_L1I PREFETCH  REQUESTED:   30086581  ISSUED:   30085185  CROSSED:          0  USEFUL:    2203748  USELESS:     762359
cpu0_L1I AVERAGE iMISS LATENCY: 21.1822 cycles
cpu0_L1I AVERAGE dMISS LATENCY: 0 cycles
cpu0_L1I AVERAGE itMISS LATENCY: 0 cycles
cpu0_L1I AVERAGE dtMISS LATENCY: 0 cycles
cpu0_L1I PAGE CROSSINGS (TLB HIT):         0 
cpu0_L1I PAGE CROSSINGS (TLB MISS):         0 
cpu0_L1I AVERAGE MISS LATENCY: 21.1822 cycles
cpu0_ITLB TOTAL       ACCESS:   32806003  HIT:   30540382  MISS:    2265621  iACCESS:   32806003  iHIT:   30540382  iMISS:    2265621  dACCESS:          0  dHIT:          0  dMISS:          0  itACCESS:          0  itHIT:          0  itMISS:          0  dtACCESS:          0  dtHIT:          0  dtMISS:          0
cpu0_ITLB LOAD         ACCESS:   32806003  HIT:   30540382  MISS:    2265621  iACCESS:   32806003  iHIT:   30540382  iMISS:    2265621  dACCESS:          0  dHIT:          0  dMISS:          0  itACCESS:          0  itHIT:          0  itMISS:          0  dtACCESS:          0  dtHIT:          0  dtMISS:          0
cpu0_ITLB RFO          ACCESS:          0  HIT:          0  MISS:          0  iACCESS:          0  iHIT:          0  iMISS:          0  dACCESS:          0  dHIT:          0  dMISS:          0  itACCESS:          0  itHIT:          0  itMISS:          0  dtACCESS:          0  dtHIT:          0  dtMISS:          0
cpu0_ITLB PREFETCH     ACCESS:          0  HIT:          0  MISS:          0  iACCESS:          0  iHIT:          0  iMISS:          0  dACCESS:          0  dHIT:          0  dMISS:          0  itACCESS:          0  itHIT:          0  itMISS:          0  dtACCESS:          0  dtHIT:          0  dtMISS:          0
cpu0_ITLB WRITE        ACCESS:          0  HIT:          0  MISS:          0  iACCESS:          0  iHIT:          0  iMISS:          0  dACCESS:          0  dHIT:          0  dMISS:          0  itACCESS:          0  itHIT:          0  itMISS:          0  dtACCESS:          0  dtHIT:          0  dtMISS:          0
cpu0_ITLB TRANSLATION  ACCESS:          0  HIT:          0  MISS:          0  iACCESS:          0  iHIT:          0  iMISS:          0  dACCESS:          0  dHIT:          0  dMISS:          0  itACCESS:          0  itHIT:          0  itMISS:          0  dtACCESS:          0  dtHIT:          0  dtMISS:          0
cpu0_ITLB PREFETCH  REQUESTED:          0  ISSUED:          0  CROSSED:          0  USEFUL:     384958  USELESS:      81758
cpu0_ITLB AVERAGE iMISS LATENCY: 6.82218 cycles
cpu0_ITLB AVERAGE dMISS LATENCY: 0 cycles
cpu0_ITLB AVERAGE itMISS LATENCY: 0 cycles
cpu0_ITLB AVERAGE dtMISS LATENCY: 0 cycles
cpu0_ITLB PAGE CROSSINGS (TLB HIT):         0 
cpu0_ITLB PAGE CROSSINGS (TLB MISS):         0 
cpu0_ITLB AVERAGE MISS LATENCY: 6.82218 cycles
cpu0_DTLB TOTAL       ACCESS:   28794135  HIT:   25367158  MISS:    3426977  iACCESS:          0  iHIT:          0  iMISS:          0  dACCESS:   28794135  dHIT:   25367158  dMISS:    3426977  itACCESS:          0  itHIT:          0  itMISS:          0  dtACCESS:          0  dtHIT:          0  dtMISS:          0
cpu0_DTLB LOAD         ACCESS:   28794135  HIT:   25367158  MISS:    3426977  iACCESS:          0  iHIT:          0  iMISS:          0  dACCESS:   28794135  dHIT:   25367158  dMISS:    3426977  itACCESS:          0  itHIT:          0  itMISS:          0  dtACCESS:          0  dtHIT:          0  dtMISS:          0
cpu0_DTLB RFO          ACCESS:          0  HIT:          0  MISS:          0  iACCESS:          0  iHIT:          0  iMISS:          0  dACCESS:          0  dHIT:          0  dMISS:          0  itACCESS:          0  itHIT:          0  itMISS:          0  dtACCESS:          0  dtHIT:          0  dtMISS:          0
cpu0_DTLB PREFETCH     ACCESS:          0  HIT:          0  MISS:          0  iACCESS:          0  iHIT:          0  iMISS:          0  dACCESS:          0  dHIT:          0  dMISS:          0  itACCESS:          0  itHIT:          0  itMISS:          0  dtACCESS:          0  dtHIT:          0  dtMISS:          0
cpu0_DTLB WRITE        ACCESS:          0  HIT:          0  MISS:          0  iACCESS:          0  iHIT:          0  iMISS:          0  dACCESS:          0  dHIT:          0  dMISS:          0  itACCESS:          0  itHIT:          0  itMISS:          0  dtACCESS:          0  dtHIT:          0  dtMISS:          0
cpu0_DTLB TRANSLATION  ACCESS:          0  HIT:          0  MISS:          0  iACCESS:          0  iHIT:          0  iMISS:          0  dACCESS:          0  dHIT:          0  dMISS:          0  itACCESS:          0  itHIT:          0  itMISS:          0  dtACCESS:          0  dtHIT:          0  dtMISS:          0
cpu0_DTLB PREFETCH  REQUESTED:          0  ISSUED:          0  CROSSED:          0  USEFUL:          0  USELESS:          0
cpu0_DTLB AVERAGE iMISS LATENCY: 0 cycles
cpu0_DTLB AVERAGE dMISS LATENCY: 17.2341 cycles
cpu0_DTLB AVERAGE itMISS LATENCY: 0 cycles
cpu0_DTLB AVERAGE dtMISS LATENCY: 0 cycles
cpu0_DTLB PAGE CROSSINGS (TLB HIT):         0 
cpu0_DTLB PAGE CROSSINGS (TLB MISS):         0 
cpu0_DTLB AVERAGE MISS LATENCY: 17.2341 cycles
cpu0_STLB TOTAL       ACCESS:    2419247  HIT:    2063374  MISS:     355873  iACCESS:     466731  iHIT:     362379  iMISS:     104352  dACCESS:    1952516  dHIT:    1700995  dMISS:     251521  itACCESS:          0  itHIT:          0  itMISS:          0  dtACCESS:          0  dtHIT:          0  dtMISS:          0
cpu0_STLB LOAD         ACCESS:    2419247  HIT:    2063374  MISS:     355873  iACCESS:     466731  iHIT:     362379  iMISS:     104352  dACCESS:    1952516  dHIT:    1700995  dMISS:     251521  itACCESS:          0  itHIT:          0  itMISS:          0  dtACCESS:          0  dtHIT:          0  dtMISS:          0
cpu0_STLB RFO          ACCESS:          0  HIT:          0  MISS:          0  iACCESS:          0  iHIT:          0  iMISS:          0  dACCESS:          0  dHIT:          0  dMISS:          0  itACCESS:          0  itHIT:          0  itMISS:          0  dtACCESS:          0  dtHIT:          0  dtMISS:          0
cpu0_STLB PREFETCH     ACCESS:          0  HIT:          0  MISS:          0  iACCESS:          0  iHIT:          0  iMISS:          0  dACCESS:          0  dHIT:          0  dMISS:          0  itACCESS:          0  itHIT:          0  itMISS:          0  dtACCESS:          0  dtHIT:          0  dtMISS:          0
cpu0_STLB WRITE        ACCESS:          0  HIT:          0  MISS:          0  iACCESS:          0  iHIT:          0  iMISS:          0  dACCESS:          0  dHIT:          0  dMISS:          0  itACCESS:          0  itHIT:          0  itMISS:          0  dtACCESS:          0  dtHIT:          0  dtMISS:          0
cpu0_STLB TRANSLATION  ACCESS:          0  HIT:          0  MISS:          0  iACCESS:          0  iHIT:          0  iMISS:          0  dACCESS:          0  dHIT:          0  dMISS:          0  itACCESS:          0  itHIT:          0  itMISS:          0  dtACCESS:          0  dtHIT:          0  dtMISS:          0
cpu0_STLB PREFETCH  REQUESTED:          0  ISSUED:          0  CROSSED:          0  USEFUL:          0  USELESS:          0
cpu0_STLB AVERAGE iMISS LATENCY: 32.9845 cycles
cpu0_STLB AVERAGE dMISS LATENCY: 121.91 cycles
cpu0_STLB AVERAGE itMISS LATENCY: 0 cycles
cpu0_STLB AVERAGE dtMISS LATENCY: 0 cycles
cpu0_STLB PAGE CROSSINGS (TLB HIT):         0 
cpu0_STLB PAGE CROSSINGS (TLB MISS):         0 
cpu0_STLB AVERAGE MISS LATENCY: 154.895 cycles
cpu0_L1D TOTAL       ACCESS:   44844104  HIT:   39076945  MISS:    5767159  iACCESS:          0  iHIT:          0  iMISS:          0  dACCESS:   44319722  dHIT:   39046627  dMISS:    5273095  itACCESS:     117057  itHIT:      12988  itMISS:     104069  dtACCESS:     407325  dtHIT:      17330  dtMISS:     389995
cpu0_L1D LOAD         ACCESS:   20248198  HIT:   17873756  MISS:    2374442  iACCESS:          0  iHIT:          0  iMISS:          0  dACCESS:   20248198  dHIT:   17873756  dMISS:    2374442  itACCESS:          0  itHIT:          0  itMISS:          0  dtACCESS:          0  dtHIT:          0  dtMISS:          0
cpu0_L1D RFO          ACCESS:          0  HIT:          0  MISS:          0  iACCESS:          0  iHIT:          0  iMISS:          0  dACCESS:          0  dHIT:          0  dMISS:          0  itACCESS:          0  itHIT:          0  itMISS:          0  dtACCESS:          0  dtHIT:          0  dtMISS:          0
cpu0_L1D PREFETCH     ACCESS:   13922159  HIT:   11590229  MISS:    2331930  iACCESS:          0  iHIT:          0  iMISS:          0  dACCESS:   13922159  dHIT:   11590229  dMISS:    2331930  itACCESS:          0  itHIT:          0  itMISS:          0  dtACCESS:          0  dtHIT:          0  dtMISS:          0
cpu0_L1D WRITE        ACCESS:   10149365  HIT:    9582642  MISS:     566723  iACCESS:          0  iHIT:          0  iMISS:          0  dACCESS:   10149365  dHIT:    9582642  dMISS:     566723  itACCESS:          0  itHIT:          0  itMISS:          0  dtACCESS:          0  dtHIT:          0  dtMISS:          0
cpu0_L1D TRANSLATION  ACCESS:     524382  HIT:      30318  MISS:     494064  iACCESS:          0  iHIT:          0  iMISS:          0  dACCESS:          0  dHIT:          0  dMISS:          0  itACCESS:     117057  itHIT:      12988  itMISS:     104069  dtACCESS:     407325  dtHIT:      17330  dtMISS:     389995
cpu0_L1D PREFETCH  REQUESTED:   20248198  ISSUED:   18378930  CROSSED:          0  USEFUL:     368329  USELESS:     904209
cpu0_L1D AVERAGE iMISS LATENCY: 0 cycles
cpu0_L1D AVERAGE dMISS LATENCY: 49.3315 cycles
cpu0_L1D AVERAGE itMISS LATENCY: 1.86159 cycles
cpu0_L1D AVERAGE dtMISS LATENCY: 6.74661 cycles
cpu0_L1D PAGE CROSSINGS (TLB HIT):         0 
cpu0_L1D PAGE CROSSINGS (TLB MISS):         0 
cpu0_L1D AVERAGE MISS LATENCY: 57.9397 cycles
cpu0_L2C TOTAL       ACCESS:    8536071  HIT:    1525645  MISS:    7010426  iACCESS:    3787460  iHIT:     816021  iMISS:    2971439  dACCESS:    4282947  dHIT:     521725  dMISS:    3761222  itACCESS:     103955  itHIT:      41746  itMISS:      62209  dtACCESS:     361709  dtHIT:     146153  dtMISS:     215556
cpu0_L2C LOAD         ACCESS:    2058397  HIT:     207890  MISS:    1850507  iACCESS:     858307  iHIT:     118910  iMISS:     739397  dACCESS:    1200090  dHIT:      88980  dMISS:    1111110  itACCESS:          0  itHIT:          0  itMISS:          0  dtACCESS:          0  dtHIT:          0  dtMISS:          0
cpu0_L2C RFO          ACCESS:     212941  HIT:      24670  MISS:     188271  iACCESS:          0  iHIT:          0  iMISS:          0  dACCESS:     212941  dHIT:      24670  dMISS:     188271  itACCESS:          0  itHIT:          0  itMISS:          0  dtACCESS:          0  dtHIT:          0  dtMISS:          0
cpu0_L2C PREFETCH     ACCESS:    5457474  HIT:    1007433  MISS:    4450041  iACCESS:    2929153  iHIT:     697111  iMISS:    2232042  dACCESS:    2528321  dHIT:     310322  dMISS:    2217999  itACCESS:          0  itHIT:          0  itMISS:          0  dtACCESS:          0  dtHIT:          0  dtMISS:          0
cpu0_L2C WRITE        ACCESS:     341595  HIT:      97753  MISS:     243842  iACCESS:          0  iHIT:          0  iMISS:          0  dACCESS:     341595  dHIT:      97753  dMISS:     243842  itACCESS:          0  itHIT:          0  itMISS:          0  dtACCESS:          0  dtHIT:          0  dtMISS:          0
cpu0_L2C TRANSLATION  ACCESS:     465664  HIT:     187899  MISS:     277765  iACCESS:          0  iHIT:          0  iMISS:          0  dACCESS:          0  dHIT:          0  dMISS:          0  itACCESS:     103955  itHIT:      41746  itMISS:      62209  dtACCESS:     361709  dtHIT:     146153  dtMISS:     215556
cpu0_L2C PREFETCH  REQUESTED:    1522618  ISSUED:    1522610  CROSSED:          0  USEFUL:     419391  USELESS:     467605
cpu0_L2C AVERAGE iMISS LATENCY: 23.3151 cycles
cpu0_L2C AVERAGE dMISS LATENCY: 48.2199 cycles
cpu0_L2C AVERAGE itMISS LATENCY: 1.38873 cycles
cpu0_L2C AVERAGE dtMISS LATENCY: 5.05262 cycles
cpu0_L2C PAGE CROSSINGS (TLB HIT):         0 
cpu0_L2C PAGE CROSSINGS (TLB MISS):         0 
cpu0_L2C AVERAGE MISS LATENCY: 77.9763 cycles
LLC TOTAL       ACCESS:    6848688  HIT:    4412475  MISS:    2436213  iACCESS:    2891125  iHIT:    2200714  iMISS:     690411  dACCESS:    3679798  dHIT:    2145332  dMISS:    1534466  itACCESS:      62209  itHIT:      14362  itMISS:      47847  dtACCESS:     215556  dtHIT:      52067  dtMISS:     163489
LLC LOAD         ACCESS:    1842297  HIT:    1229615  MISS:     612682  iACCESS:     737920  iHIT:     593572  iMISS:     144348  dACCESS:    1104377  dHIT:     636043  dMISS:     468334  itACCESS:          0  itHIT:          0  itMISS:          0  dtACCESS:          0  dtHIT:          0  dtMISS:          0
LLC RFO          ACCESS:     188262  HIT:      96970  MISS:      91292  iACCESS:          0  iHIT:          0  iMISS:          0  dACCESS:     188262  dHIT:      96970  dMISS:      91292  itACCESS:          0  itHIT:          0  itMISS:          0  dtACCESS:          0  dtHIT:          0  dtMISS:          0
LLC PREFETCH     ACCESS:    4265200  HIT:    2750968  MISS:    1514232  iACCESS:    2153205  iHIT:    1607142  iMISS:     546063  dACCESS:    2111995  dHIT:    1143826  dMISS:     968169  itACCESS:          0  itHIT:          0  itMISS:          0  dtACCESS:          0  dtHIT:          0  dtMISS:          0
LLC WRITE        ACCESS:     275164  HIT:     268493  MISS:       6671  iACCESS:          0  iHIT:          0  iMISS:          0  dACCESS:     275164  dHIT:     268493  dMISS:       6671  itACCESS:          0  itHIT:          0  itMISS:          0  dtACCESS:          0  dtHIT:          0  dtMISS:          0
LLC TRANSLATION  ACCESS:     277765  HIT:      66429  MISS:     211336  iACCESS:          0  iHIT:          0  iMISS:          0  dACCESS:          0  dHIT:          0  dMISS:          0  itACCESS:      62209  itHIT:      14362  itMISS:      47847  dtACCESS:     215556  dtHIT:      52067  dtMISS:     163489
LLC PREFETCH  REQUESTED:          0  ISSUED:          0  CROSSED:          0  USEFUL:          0  USELESS:          0
LLC AVERAGE iMISS LATENCY: 44.0919 cycles
LLC AVERAGE dMISS LATENCY: 112.554 cycles
LLC AVERAGE itMISS LATENCY: 3.493 cycles
LLC AVERAGE dtMISS LATENCY: 12.7972 cycles
LLC PAGE CROSSINGS (TLB HIT):         0 
LLC PAGE CROSSINGS (TLB MISS):         0 
LLC AVERAGE MISS LATENCY: 172.936 cycles

PageTableWalker TOTAL       ACCESS:     179939  
PageTableWalker AVERAGE LATENCY: 5.79692 cycles
PageTableWalker TOTAL LATENCY: 1043091 cycles

DRAM Statistics
Channel 0
 RQ ROW_BUFFER_HIT:     541116
  ROW_BUFFER_MISS:    1868808
 AVG DBUS CONGESTED CYCLE:    3.65349
 WQ ROW_BUFFER_HIT:      64431
  ROW_BUFFER_MISS:      64023  FULL:          0

