last_page:0x200000000000000
VMEM_RES_CAP:0x100000
PAGE_SIZE:4096
LOG2_PAGE_SIZE:12
LOG2_PAGE_TABLE_SIZE:9
page_table_levels:5
WARNING: physical memory size is smaller than virtual memory size
FDiP enabled with aggresivity 16

*** ChampSim Multicore Out-of-Order Simulator ***

Warmup Instructions: 50000000
Simulation Instructions: 100000000
Number of CPUs: 1
Small page size: 4096
Large page size: 2097152

CPU 0 Bimodal branch predictor
Basic BTB sets: 1024 ways: 8 indirect buffer size: 4096 RAS size: 64
Instruction page size distrubution: 0
Loading instruction page size distribution from /home/bsc/bsc018186/scratch/itp_asplos25_AE/dump/smt_srv207_ap_srv526_ap_1024i.pdst
Data page size distrubution: 0
Loading data page size distribution from /home/bsc/bsc018186/scratch/itp_asplos25_AE/dump/smt_srv207_ap_srv526_ap_1024i.pdst
cpu0_L2C IP-based stride prefetcher
cpu0_L1D next line prefetcher
cpu0_L1I next line prefetcher
Off-chip DRAM Size: 4 GiB Channels: 1 Width: 64-bit Data Rate: 3200 MT/s
Heartbeat CPU 0 instructions: 10000002 cycles: 2500906 heartbeat IPC: 3.99856 cumulative IPC: 3.99856 (Simulation time: 0 hr 0 min 45 sec) 
Heartbeat CPU 0 instructions: 20000000 cycles: 5001399 heartbeat IPC: 3.99922 cumulative IPC: 3.99889 (Simulation time: 0 hr 1 min 32 sec) 
Heartbeat CPU 0 instructions: 30000000 cycles: 7591530 heartbeat IPC: 3.86081 cumulative IPC: 3.95178 (Simulation time: 0 hr 2 min 19 sec) 
Heartbeat CPU 0 instructions: 40000002 cycles: 10146480 heartbeat IPC: 3.91398 cumulative IPC: 3.94226 (Simulation time: 0 hr 3 min 6 sec) 
Heartbeat CPU 0 instructions: 50000003 cycles: 12674984 heartbeat IPC: 3.95491 cumulative IPC: 3.94478 (Simulation time: 0 hr 3 min 53 sec) 
Warmup finished CPU 0 instructions: 50000003 cycles: 12674985 cumulative IPC: 3.94478 (Simulation time: 0 hr 3 min 53 sec) 

Warmup complete CPU 0 instructions: 50000003 cycles: 12674985 (Simulation time: 0 hr 3 min 53 sec) 

Heartbeat CPU 0 instructions: 60000003 cycles: 43195068 heartbeat IPC: 0.327654 cumulative IPC: 0.327654 (Simulation time: 0 hr 5 min 25 sec) 
Heartbeat CPU 0 instructions: 70000004 cycles: 74213142 heartbeat IPC: 0.322393 cumulative IPC: 0.325002 (Simulation time: 0 hr 7 min 3 sec) 
Heartbeat CPU 0 instructions: 80000003 cycles: 106064771 heartbeat IPC: 0.313956 cumulative IPC: 0.321235 (Simulation time: 0 hr 8 min 38 sec) 
Heartbeat CPU 0 instructions: 90000000 cycles: 136564876 heartbeat IPC: 0.327868 cumulative IPC: 0.322868 (Simulation time: 0 hr 10 min 14 sec) 
Heartbeat CPU 0 instructions: 100000000 cycles: 167116719 heartbeat IPC: 0.327313 cumulative IPC: 0.323747 (Simulation time: 0 hr 11 min 50 sec) 
Heartbeat CPU 0 instructions: 110000000 cycles: 198076304 heartbeat IPC: 0.323002 cumulative IPC: 0.323623 (Simulation time: 0 hr 13 min 23 sec) 
Heartbeat CPU 0 instructions: 120000000 cycles: 227399534 heartbeat IPC: 0.341027 cumulative IPC: 0.326 (Simulation time: 0 hr 14 min 57 sec) 
Heartbeat CPU 0 instructions: 130000002 cycles: 257411237 heartbeat IPC: 0.333204 cumulative IPC: 0.326883 (Simulation time: 0 hr 16 min 32 sec) 
Heartbeat CPU 0 instructions: 140000002 cycles: 289681150 heartbeat IPC: 0.309887 cumulative IPC: 0.324903 (Simulation time: 0 hr 18 min 9 sec) 
Heartbeat CPU 0 instructions: 150000000 cycles: 321178174 heartbeat IPC: 0.317491 cumulative IPC: 0.324146 (Simulation time: 0 hr 19 min 47 sec) 
Simulation finished CPU 0 instructions: 100000002 cycles: 308503191 cumulative IPC: 0.324146 (Simulation time: 0 hr 19 min 47 sec) 

Simulation complete CPU 0 instructions: 100000002 cycles: 308503191 (Simulation time: 0 hr 19 min 47 sec) 


ChampSim completed all CPUs

Saving instructions large page distribution to /home/bsc/bsc018186/scratch/itp_asplos25_AE/dump/smt_srv207_ap_srv526_ap_1024i.pdst...
Saving data large page distribution to /home/bsc/bsc018186/scratch/itp_asplos25_AE/dump/smt_srv207_ap_srv526_ap_1024i.pdst...
=== Simulation ===
CPU 0 runs /gpfs/projects/bsc18/MN4/bsc18/romol/ChampSim/traces/qualcomm_srv/smt_srv207_ap_srv526_ap_1024i.champsimtrace.xz

Region of Interest Statistics

CPU 0 cumulative IPC: 0.324146 instructions: 100000002 cycles: 308503191
CPU 0 Branch Prediction Accuracy: 75.1657% MPKI: 44.6877 Average ROB Occupancy at Mispredict: 11.1193
Branch type MPKI
BRANCH_DIRECT_JUMP: 1.463
BRANCH_INDIRECT: 23.5899
BRANCH_CONDITIONAL: 12.4119
BRANCH_DIRECT_CALL: 2.63153
BRANCH_INDIRECT_CALL: 1.0038
BRANCH_RETURN: 3.58767

Instructions large pages: 0
Instructions small pages: 15154
Large page distribution for instructions: 0%

Data large pages: 0
Data small pages: 13659
Large page distribution for data: 0%

cpu0_L1I TOTAL       ACCESS:   38943733  HIT:   30151493  MISS:    8792240  iACCESS:   38943733  iHIT:   30151493  iMISS:    8792240  dACCESS:          0  dHIT:          0  dMISS:          0  itACCESS:          0  itHIT:          0  itMISS:          0  dtACCESS:          0  dtHIT:          0  dtMISS:          0
cpu0_L1I LOAD         ACCESS:   11533251  HIT:    9117979  MISS:    2415272  iACCESS:   11533251  iHIT:    9117979  iMISS:    2415272  dACCESS:          0  dHIT:          0  dMISS:          0  itACCESS:          0  itHIT:          0  itMISS:          0  dtACCESS:          0  dtHIT:          0  dtMISS:          0
cpu0_L1I RFO          ACCESS:          0  HIT:          0  MISS:          0  iACCESS:          0  iHIT:          0  iMISS:          0  dACCESS:          0  dHIT:          0  dMISS:          0  itACCESS:          0  itHIT:          0  itMISS:          0  dtACCESS:          0  dtHIT:          0  dtMISS:          0
cpu0_L1I PREFETCH     ACCESS:   27410482  HIT:   21033514  MISS:    6376968  iACCESS:   27410482  iHIT:   21033514  iMISS:    6376968  dACCESS:          0  dHIT:          0  dMISS:          0  itACCESS:          0  itHIT:          0  itMISS:          0  dtACCESS:          0  dtHIT:          0  dtMISS:          0
cpu0_L1I WRITE        ACCESS:          0  HIT:          0  MISS:          0  iACCESS:          0  iHIT:          0  iMISS:          0  dACCESS:          0  dHIT:          0  dMISS:          0  itACCESS:          0  itHIT:          0  itMISS:          0  dtACCESS:          0  dtHIT:          0  dtMISS:          0
cpu0_L1I TRANSLATION  ACCESS:          0  HIT:          0  MISS:          0  iACCESS:          0  iHIT:          0  iMISS:          0  dACCESS:          0  dHIT:          0  dMISS:          0  itACCESS:          0  itHIT:          0  itMISS:          0  dtACCESS:          0  dtHIT:          0  dtMISS:          0
cpu0_L1I PREFETCH  REQUESTED:   30153240  ISSUED:   30153033  CROSSED:          0  USEFUL:    2201340  USELESS:     798984
cpu0_L1I AVERAGE iMISS LATENCY: 24.471 cycles
cpu0_L1I AVERAGE dMISS LATENCY: 0 cycles
cpu0_L1I AVERAGE itMISS LATENCY: 0 cycles
cpu0_L1I AVERAGE dtMISS LATENCY: 0 cycles
cpu0_L1I PAGE CROSSINGS (TLB HIT):         0 
cpu0_L1I PAGE CROSSINGS (TLB MISS):         0 
cpu0_L1I AVERAGE MISS LATENCY: 24.471 cycles
cpu0_ITLB TOTAL       ACCESS:   33042701  HIT:   30730101  MISS:    2312600  iACCESS:   33042701  iHIT:   30730101  iMISS:    2312600  dACCESS:          0  dHIT:          0  dMISS:          0  itACCESS:          0  itHIT:          0  itMISS:          0  dtACCESS:          0  dtHIT:          0  dtMISS:          0
cpu0_ITLB LOAD         ACCESS:   33042701  HIT:   30730101  MISS:    2312600  iACCESS:   33042701  iHIT:   30730101  iMISS:    2312600  dACCESS:          0  dHIT:          0  dMISS:          0  itACCESS:          0  itHIT:          0  itMISS:          0  dtACCESS:          0  dtHIT:          0  dtMISS:          0
cpu0_ITLB RFO          ACCESS:          0  HIT:          0  MISS:          0  iACCESS:          0  iHIT:          0  iMISS:          0  dACCESS:          0  dHIT:          0  dMISS:          0  itACCESS:          0  itHIT:          0  itMISS:          0  dtACCESS:          0  dtHIT:          0  dtMISS:          0
cpu0_ITLB PREFETCH     ACCESS:          0  HIT:          0  MISS:          0  iACCESS:          0  iHIT:          0  iMISS:          0  dACCESS:          0  dHIT:          0  dMISS:          0  itACCESS:          0  itHIT:          0  itMISS:          0  dtACCESS:          0  dtHIT:          0  dtMISS:          0
cpu0_ITLB WRITE        ACCESS:          0  HIT:          0  MISS:          0  iACCESS:          0  iHIT:          0  iMISS:          0  dACCESS:          0  dHIT:          0  dMISS:          0  itACCESS:          0  itHIT:          0  itMISS:          0  dtACCESS:          0  dtHIT:          0  dtMISS:          0
cpu0_ITLB TRANSLATION  ACCESS:          0  HIT:          0  MISS:          0  iACCESS:          0  iHIT:          0  iMISS:          0  dACCESS:          0  dHIT:          0  dMISS:          0  itACCESS:          0  itHIT:          0  itMISS:          0  dtACCESS:          0  dtHIT:          0  dtMISS:          0
cpu0_ITLB PREFETCH  REQUESTED:          0  ISSUED:          0  CROSSED:          0  USEFUL:     404514  USELESS:      87201
cpu0_ITLB AVERAGE iMISS LATENCY: 10.9229 cycles
cpu0_ITLB AVERAGE dMISS LATENCY: 0 cycles
cpu0_ITLB AVERAGE itMISS LATENCY: 0 cycles
cpu0_ITLB AVERAGE dtMISS LATENCY: 0 cycles
cpu0_ITLB PAGE CROSSINGS (TLB HIT):         0 
cpu0_ITLB PAGE CROSSINGS (TLB MISS):         0 
cpu0_ITLB AVERAGE MISS LATENCY: 10.9229 cycles
cpu0_DTLB TOTAL       ACCESS:   29243837  HIT:   25679210  MISS:    3564627  iACCESS:          0  iHIT:          0  iMISS:          0  dACCESS:   29243837  dHIT:   25679210  dMISS:    3564627  itACCESS:          0  itHIT:          0  itMISS:          0  dtACCESS:          0  dtHIT:          0  dtMISS:          0
cpu0_DTLB LOAD         ACCESS:   29243837  HIT:   25679210  MISS:    3564627  iACCESS:          0  iHIT:          0  iMISS:          0  dACCESS:   29243837  dHIT:   25679210  dMISS:    3564627  itACCESS:          0  itHIT:          0  itMISS:          0  dtACCESS:          0  dtHIT:          0  dtMISS:          0
cpu0_DTLB RFO          ACCESS:          0  HIT:          0  MISS:          0  iACCESS:          0  iHIT:          0  iMISS:          0  dACCESS:          0  dHIT:          0  dMISS:          0  itACCESS:          0  itHIT:          0  itMISS:          0  dtACCESS:          0  dtHIT:          0  dtMISS:          0
cpu0_DTLB PREFETCH     ACCESS:          0  HIT:          0  MISS:          0  iACCESS:          0  iHIT:          0  iMISS:          0  dACCESS:          0  dHIT:          0  dMISS:          0  itACCESS:          0  itHIT:          0  itMISS:          0  dtACCESS:          0  dtHIT:          0  dtMISS:          0
cpu0_DTLB WRITE        ACCESS:          0  HIT:          0  MISS:          0  iACCESS:          0  iHIT:          0  iMISS:          0  dACCESS:          0  dHIT:          0  dMISS:          0  itACCESS:          0  itHIT:          0  itMISS:          0  dtACCESS:          0  dtHIT:          0  dtMISS:          0
cpu0_DTLB TRANSLATION  ACCESS:          0  HIT:          0  MISS:          0  iACCESS:          0  iHIT:          0  iMISS:          0  dACCESS:          0  dHIT:          0  dMISS:          0  itACCESS:          0  itHIT:          0  itMISS:          0  dtACCESS:          0  dtHIT:          0  dtMISS:          0
cpu0_DTLB PREFETCH  REQUESTED:          0  ISSUED:          0  CROSSED:          0  USEFUL:          0  USELESS:          0
cpu0_DTLB AVERAGE iMISS LATENCY: 0 cycles
cpu0_DTLB AVERAGE dMISS LATENCY: 26.177 cycles
cpu0_DTLB AVERAGE itMISS LATENCY: 0 cycles
cpu0_DTLB AVERAGE dtMISS LATENCY: 0 cycles
cpu0_DTLB PAGE CROSSINGS (TLB HIT):         0 
cpu0_DTLB PAGE CROSSINGS (TLB MISS):         0 
cpu0_DTLB AVERAGE MISS LATENCY: 26.177 cycles
cpu0_STLB TOTAL       ACCESS:    2574605  HIT:    2182302  MISS:     392303  iACCESS:     491718  iHIT:     370536  iMISS:     121182  dACCESS:    2082887  dHIT:    1811766  dMISS:     271121  itACCESS:          0  itHIT:          0  itMISS:          0  dtACCESS:          0  dtHIT:          0  dtMISS:          0
cpu0_STLB LOAD         ACCESS:    2574605  HIT:    2182302  MISS:     392303  iACCESS:     491718  iHIT:     370536  iMISS:     121182  dACCESS:    2082887  dHIT:    1811766  dMISS:     271121  itACCESS:          0  itHIT:          0  itMISS:          0  dtACCESS:          0  dtHIT:          0  dtMISS:          0
cpu0_STLB RFO          ACCESS:          0  HIT:          0  MISS:          0  iACCESS:          0  iHIT:          0  iMISS:          0  dACCESS:          0  dHIT:          0  dMISS:          0  itACCESS:          0  itHIT:          0  itMISS:          0  dtACCESS:          0  dtHIT:          0  dtMISS:          0
cpu0_STLB PREFETCH     ACCESS:          0  HIT:          0  MISS:          0  iACCESS:          0  iHIT:          0  iMISS:          0  dACCESS:          0  dHIT:          0  dMISS:          0  itACCESS:          0  itHIT:          0  itMISS:          0  dtACCESS:          0  dtHIT:          0  dtMISS:          0
cpu0_STLB WRITE        ACCESS:          0  HIT:          0  MISS:          0  iACCESS:          0  iHIT:          0  iMISS:          0  dACCESS:          0  dHIT:          0  dMISS:          0  itACCESS:          0  itHIT:          0  itMISS:          0  dtACCESS:          0  dtHIT:          0  dtMISS:          0
cpu0_STLB TRANSLATION  ACCESS:          0  HIT:          0  MISS:          0  iACCESS:          0  iHIT:          0  iMISS:          0  dACCESS:          0  dHIT:          0  dMISS:          0  itACCESS:          0  itHIT:          0  itMISS:          0  dtACCESS:          0  dtHIT:          0  dtMISS:          0
cpu0_STLB PREFETCH  REQUESTED:          0  ISSUED:          0  CROSSED:          0  USEFUL:          0  USELESS:          0
cpu0_STLB AVERAGE iMISS LATENCY: 54.36 cycles
cpu0_STLB AVERAGE dMISS LATENCY: 195.104 cycles
cpu0_STLB AVERAGE itMISS LATENCY: 0 cycles
cpu0_STLB AVERAGE dtMISS LATENCY: 0 cycles
cpu0_STLB PAGE CROSSINGS (TLB HIT):         0 
cpu0_STLB PAGE CROSSINGS (TLB MISS):         0 
cpu0_STLB AVERAGE MISS LATENCY: 249.464 cycles
cpu0_L1D TOTAL       ACCESS:   45330514  HIT:   39684298  MISS:    5646216  iACCESS:          0  iHIT:          0  iMISS:          0  dACCESS:   44752278  dHIT:   39648957  dMISS:    5103321  itACCESS:     136004  itHIT:      13868  itMISS:     122136  dtACCESS:     442232  dtHIT:      21473  dtMISS:     420759
cpu0_L1D LOAD         ACCESS:   20457694  HIT:   18172498  MISS:    2285196  iACCESS:          0  iHIT:          0  iMISS:          0  dACCESS:   20457694  dHIT:   18172498  dMISS:    2285196  itACCESS:          0  itHIT:          0  itMISS:          0  dtACCESS:          0  dtHIT:          0  dtMISS:          0
cpu0_L1D RFO          ACCESS:          0  HIT:          0  MISS:          0  iACCESS:          0  iHIT:          0  iMISS:          0  dACCESS:          0  dHIT:          0  dMISS:          0  itACCESS:          0  itHIT:          0  itMISS:          0  dtACCESS:          0  dtHIT:          0  dtMISS:          0
cpu0_L1D PREFETCH     ACCESS:   14096492  HIT:   11882668  MISS:    2213824  iACCESS:          0  iHIT:          0  iMISS:          0  dACCESS:   14096492  dHIT:   11882668  dMISS:    2213824  itACCESS:          0  itHIT:          0  itMISS:          0  dtACCESS:          0  dtHIT:          0  dtMISS:          0
cpu0_L1D WRITE        ACCESS:   10198092  HIT:    9593791  MISS:     604301  iACCESS:          0  iHIT:          0  iMISS:          0  dACCESS:   10198092  dHIT:    9593791  dMISS:     604301  itACCESS:          0  itHIT:          0  itMISS:          0  dtACCESS:          0  dtHIT:          0  dtMISS:          0
cpu0_L1D TRANSLATION  ACCESS:     578236  HIT:      35341  MISS:     542895  iACCESS:          0  iHIT:          0  iMISS:          0  dACCESS:          0  dHIT:          0  dMISS:          0  itACCESS:     136004  itHIT:      13868  itMISS:     122136  dtACCESS:     442232  dtHIT:      21473  dtMISS:     420759
cpu0_L1D PREFETCH  REQUESTED:   20457694  ISSUED:   18815493  CROSSED:          0  USEFUL:     372475  USELESS:     964611
cpu0_L1D AVERAGE iMISS LATENCY: 0 cycles
cpu0_L1D AVERAGE dMISS LATENCY: 52.4031 cycles
cpu0_L1D AVERAGE itMISS LATENCY: 3.57691 cycles
cpu0_L1D AVERAGE dtMISS LATENCY: 12.5516 cycles
cpu0_L1D PAGE CROSSINGS (TLB HIT):         0 
cpu0_L1D PAGE CROSSINGS (TLB MISS):         0 
cpu0_L1D AVERAGE MISS LATENCY: 68.5316 cycles
cpu0_L2C TOTAL       ACCESS:    8736025  HIT:    4182115  MISS:    4553910  iACCESS:    3835093  iHIT:    2284555  iMISS:    1550538  dACCESS:    4393947  dHIT:    1839006  dMISS:    2554941  itACCESS:     121750  itHIT:      19669  itMISS:     102081  dtACCESS:     385235  dtHIT:      38885  dtMISS:     346350
cpu0_L2C LOAD         ACCESS:    2122326  HIT:    1018121  MISS:    1104205  iACCESS:     867922  iHIT:     539722  iMISS:     328200  dACCESS:    1254404  dHIT:     478399  dMISS:     776005  itACCESS:          0  itHIT:          0  itMISS:          0  dtACCESS:          0  dtHIT:          0  dtMISS:          0
cpu0_L2C RFO          ACCESS:     229937  HIT:      90590  MISS:     139347  iACCESS:          0  iHIT:          0  iMISS:          0  dACCESS:     229937  dHIT:      90590  dMISS:     139347  itACCESS:          0  itHIT:          0  itMISS:          0  dtACCESS:          0  dtHIT:          0  dtMISS:          0
cpu0_L2C PREFETCH     ACCESS:    5524707  HIT:    2666914  MISS:    2857793  iACCESS:    2967171  iHIT:    1744833  iMISS:    1222338  dACCESS:    2557536  dHIT:     922081  dMISS:    1635455  itACCESS:          0  itHIT:          0  itMISS:          0  dtACCESS:          0  dtHIT:          0  dtMISS:          0
cpu0_L2C WRITE        ACCESS:     352070  HIT:     347936  MISS:       4134  iACCESS:          0  iHIT:          0  iMISS:          0  dACCESS:     352070  dHIT:     347936  dMISS:       4134  itACCESS:          0  itHIT:          0  itMISS:          0  dtACCESS:          0  dtHIT:          0  dtMISS:          0
cpu0_L2C TRANSLATION  ACCESS:     506985  HIT:      58554  MISS:     448431  iACCESS:          0  iHIT:          0  iMISS:          0  dACCESS:          0  dHIT:          0  dMISS:          0  itACCESS:     121750  itHIT:      19669  itMISS:     102081  dtACCESS:     385235  dtHIT:      38885  dtMISS:     346350
cpu0_L2C PREFETCH  REQUESTED:    1450387  ISSUED:    1450382  CROSSED:          0  USEFUL:     339046  USELESS:     323016
cpu0_L2C AVERAGE iMISS LATENCY: 40.1762 cycles
cpu0_L2C AVERAGE dMISS LATENCY: 79.4008 cycles
cpu0_L2C AVERAGE itMISS LATENCY: 4.17108 cycles
cpu0_L2C AVERAGE dtMISS LATENCY: 14.7199 cycles
cpu0_L2C PAGE CROSSINGS (TLB HIT):         0 
cpu0_L2C PAGE CROSSINGS (TLB MISS):         0 
cpu0_L2C AVERAGE MISS LATENCY: 138.468 cycles
LLC TOTAL       ACCESS:    4563458  HIT:    1411721  MISS:    3151737  iACCESS:    1466595  iHIT:     496284  iMISS:     970311  dACCESS:    2648432  dHIT:     873157  dMISS:    1775275  itACCESS:     102081  itHIT:       7247  itMISS:      94834  dtACCESS:     346350  dtHIT:      35033  dtMISS:     311317
LLC LOAD         ACCESS:    1097787  HIT:     356931  MISS:     740856  iACCESS:     326914  iHIT:     118659  iMISS:     208255  dACCESS:     770873  dHIT:     238272  dMISS:     532601  itACCESS:          0  itHIT:          0  itMISS:          0  dtACCESS:          0  dtHIT:          0  dtMISS:          0
LLC RFO          ACCESS:     139334  HIT:      41002  MISS:      98332  iACCESS:          0  iHIT:          0  iMISS:          0  dACCESS:     139334  dHIT:      41002  dMISS:      98332  itACCESS:          0  itHIT:          0  itMISS:          0  dtACCESS:          0  dtHIT:          0  dtMISS:          0
LLC PREFETCH     ACCESS:    2665498  HIT:     769687  MISS:    1895811  iACCESS:    1139681  iHIT:     377625  iMISS:     762056  dACCESS:    1525817  dHIT:     392062  dMISS:    1133755  itACCESS:          0  itHIT:          0  itMISS:          0  dtACCESS:          0  dtHIT:          0  dtMISS:          0
LLC WRITE        ACCESS:     212408  HIT:     201821  MISS:      10587  iACCESS:          0  iHIT:          0  iMISS:          0  dACCESS:     212408  dHIT:     201821  dMISS:      10587  itACCESS:          0  itHIT:          0  itMISS:          0  dtACCESS:          0  dtHIT:          0  dtMISS:          0
LLC TRANSLATION  ACCESS:     448431  HIT:      42280  MISS:     406151  iACCESS:          0  iHIT:          0  iMISS:          0  dACCESS:          0  dHIT:          0  dMISS:          0  itACCESS:     102081  itHIT:       7247  itMISS:      94834  dtACCESS:     346350  dtHIT:      35033  dtMISS:     311317
LLC PREFETCH  REQUESTED:          0  ISSUED:          0  CROSSED:          0  USEFUL:          0  USELESS:          0
LLC AVERAGE iMISS LATENCY: 48.888 cycles
LLC AVERAGE dMISS LATENCY: 100.153 cycles
LLC AVERAGE itMISS LATENCY: 5.38438 cycles
LLC AVERAGE dtMISS LATENCY: 19.0956 cycles
LLC PAGE CROSSINGS (TLB HIT):         0 
LLC PAGE CROSSINGS (TLB MISS):         0 
LLC AVERAGE MISS LATENCY: 173.52 cycles

PageTableWalker TOTAL       ACCESS:     141301  
PageTableWalker AVERAGE LATENCY: 6.51079 cycles
PageTableWalker TOTAL LATENCY: 919981 cycles

DRAM Statistics
Channel 0
 RQ ROW_BUFFER_HIT:     645493
  ROW_BUFFER_MISS:    2485229
 AVG DBUS CONGESTED CYCLE:    3.64735
 WQ ROW_BUFFER_HIT:      67488
  ROW_BUFFER_MISS:      56574  FULL:          0

