last_page:0x200000000000000
VMEM_RES_CAP:0x100000
PAGE_SIZE:4096
LOG2_PAGE_SIZE:12
LOG2_PAGE_TABLE_SIZE:9
page_table_levels:5
WARNING: physical memory size is smaller than virtual memory size
FDiP enabled with aggresivity 16

*** ChampSim Multicore Out-of-Order Simulator ***

Warmup Instructions: 50000000
Simulation Instructions: 100000000
Number of CPUs: 1
Small page size: 4096
Large page size: 2097152

CPU 0 Bimodal branch predictor
Basic BTB sets: 1024 ways: 8 indirect buffer size: 4096 RAS size: 64
Instruction page size distrubution: 0
Loading instruction page size distribution from /home/bsc/bsc018186/scratch/itp_asplos25_AE/dump/smt_srv207_ap_srv697_ap_1024i.pdst
Data page size distrubution: 0
Loading data page size distribution from /home/bsc/bsc018186/scratch/itp_asplos25_AE/dump/smt_srv207_ap_srv697_ap_1024i.pdst
cpu0_L2C IP-based stride prefetcher
cpu0_L1D next line prefetcher
cpu0_L1I next line prefetcher
Off-chip DRAM Size: 4 GiB Channels: 1 Width: 64-bit Data Rate: 3200 MT/s
Heartbeat CPU 0 instructions: 10000002 cycles: 2500754 heartbeat IPC: 3.9988 cumulative IPC: 3.9988 (Simulation time: 0 hr 0 min 43 sec) 
Heartbeat CPU 0 instructions: 20000003 cycles: 5001181 heartbeat IPC: 3.99932 cumulative IPC: 3.99906 (Simulation time: 0 hr 1 min 28 sec) 
Heartbeat CPU 0 instructions: 30000003 cycles: 7501442 heartbeat IPC: 3.99959 cumulative IPC: 3.99924 (Simulation time: 0 hr 2 min 10 sec) 
Heartbeat CPU 0 instructions: 40000001 cycles: 10001851 heartbeat IPC: 3.99935 cumulative IPC: 3.99926 (Simulation time: 0 hr 2 min 54 sec) 
Heartbeat CPU 0 instructions: 50000001 cycles: 12502144 heartbeat IPC: 3.99954 cumulative IPC: 3.99932 (Simulation time: 0 hr 3 min 38 sec) 
Warmup finished CPU 0 instructions: 50000001 cycles: 12502145 cumulative IPC: 3.99932 (Simulation time: 0 hr 3 min 38 sec) 

Warmup complete CPU 0 instructions: 50000001 cycles: 12502145 (Simulation time: 0 hr 3 min 38 sec) 

Heartbeat CPU 0 instructions: 60000003 cycles: 42806100 heartbeat IPC: 0.32999 cumulative IPC: 0.32999 (Simulation time: 0 hr 5 min 8 sec) 
Heartbeat CPU 0 instructions: 70000002 cycles: 71543043 heartbeat IPC: 0.347985 cumulative IPC: 0.338749 (Simulation time: 0 hr 6 min 33 sec) 
Heartbeat CPU 0 instructions: 80000000 cycles: 102129060 heartbeat IPC: 0.326947 cumulative IPC: 0.334721 (Simulation time: 0 hr 8 min 4 sec) 
Heartbeat CPU 0 instructions: 90000000 cycles: 132751726 heartbeat IPC: 0.326556 cumulative IPC: 0.332642 (Simulation time: 0 hr 9 min 35 sec) 
Heartbeat CPU 0 instructions: 100000003 cycles: 162377671 heartbeat IPC: 0.337543 cumulative IPC: 0.333611 (Simulation time: 0 hr 11 min 2 sec) 
Heartbeat CPU 0 instructions: 110000002 cycles: 191811676 heartbeat IPC: 0.339744 cumulative IPC: 0.334617 (Simulation time: 0 hr 12 min 32 sec) 
Heartbeat CPU 0 instructions: 120000001 cycles: 221472433 heartbeat IPC: 0.337146 cumulative IPC: 0.334976 (Simulation time: 0 hr 13 min 59 sec) 
Heartbeat CPU 0 instructions: 130000004 cycles: 250730566 heartbeat IPC: 0.341786 cumulative IPC: 0.335813 (Simulation time: 0 hr 15 min 28 sec) 
Heartbeat CPU 0 instructions: 140000002 cycles: 280439130 heartbeat IPC: 0.336604 cumulative IPC: 0.3359 (Simulation time: 0 hr 16 min 58 sec) 
Heartbeat CPU 0 instructions: 150000000 cycles: 310367733 heartbeat IPC: 0.334129 cumulative IPC: 0.335722 (Simulation time: 0 hr 18 min 29 sec) 
Simulation finished CPU 0 instructions: 100000004 cycles: 297865590 cumulative IPC: 0.335722 (Simulation time: 0 hr 18 min 29 sec) 

Simulation complete CPU 0 instructions: 100000004 cycles: 297865590 (Simulation time: 0 hr 18 min 29 sec) 


ChampSim completed all CPUs

Saving instructions large page distribution to /home/bsc/bsc018186/scratch/itp_asplos25_AE/dump/smt_srv207_ap_srv697_ap_1024i.pdst...
Saving data large page distribution to /home/bsc/bsc018186/scratch/itp_asplos25_AE/dump/smt_srv207_ap_srv697_ap_1024i.pdst...
=== Simulation ===
CPU 0 runs /gpfs/projects/bsc18/MN4/bsc18/romol/ChampSim/traces/qualcomm_srv/smt_srv207_ap_srv697_ap_1024i.champsimtrace.xz

Region of Interest Statistics

CPU 0 cumulative IPC: 0.335722 instructions: 100000004 cycles: 297865590
CPU 0 Branch Prediction Accuracy: 75.3513% MPKI: 44.268 Average ROB Occupancy at Mispredict: 11.3273
Branch type MPKI
BRANCH_DIRECT_JUMP: 1.35476
BRANCH_INDIRECT: 23.4079
BRANCH_CONDITIONAL: 12.5038
BRANCH_DIRECT_CALL: 2.54273
BRANCH_INDIRECT_CALL: 0.94822
BRANCH_RETURN: 3.51059

Instructions large pages: 0
Instructions small pages: 14748
Large page distribution for instructions: 0%

Data large pages: 0
Data small pages: 13364
Large page distribution for data: 0%

cpu0_L1I TOTAL       ACCESS:   39021585  HIT:   30302094  MISS:    8719491  iACCESS:   39021585  iHIT:   30302094  iMISS:    8719491  dACCESS:          0  dHIT:          0  dMISS:          0  itACCESS:          0  itHIT:          0  itMISS:          0  dtACCESS:          0  dtHIT:          0  dtMISS:          0
cpu0_L1I LOAD         ACCESS:   11634679  HIT:    9248184  MISS:    2386495  iACCESS:   11634679  iHIT:    9248184  iMISS:    2386495  dACCESS:          0  dHIT:          0  dMISS:          0  itACCESS:          0  itHIT:          0  itMISS:          0  dtACCESS:          0  dtHIT:          0  dtMISS:          0
cpu0_L1I RFO          ACCESS:          0  HIT:          0  MISS:          0  iACCESS:          0  iHIT:          0  iMISS:          0  dACCESS:          0  dHIT:          0  dMISS:          0  itACCESS:          0  itHIT:          0  itMISS:          0  dtACCESS:          0  dtHIT:          0  dtMISS:          0
cpu0_L1I PREFETCH     ACCESS:   27386906  HIT:   21053910  MISS:    6332996  iACCESS:   27386906  iHIT:   21053910  iMISS:    6332996  dACCESS:          0  dHIT:          0  dMISS:          0  itACCESS:          0  itHIT:          0  itMISS:          0  dtACCESS:          0  dtHIT:          0  dtMISS:          0
cpu0_L1I WRITE        ACCESS:          0  HIT:          0  MISS:          0  iACCESS:          0  iHIT:          0  iMISS:          0  dACCESS:          0  dHIT:          0  dMISS:          0  itACCESS:          0  itHIT:          0  itMISS:          0  dtACCESS:          0  dtHIT:          0  dtMISS:          0
cpu0_L1I TRANSLATION  ACCESS:          0  HIT:          0  MISS:          0  iACCESS:          0  iHIT:          0  iMISS:          0  dACCESS:          0  dHIT:          0  dMISS:          0  itACCESS:          0  itHIT:          0  itMISS:          0  dtACCESS:          0  dtHIT:          0  dtMISS:          0
cpu0_L1I PREFETCH  REQUESTED:   30187756  ISSUED:   30187749  CROSSED:          0  USEFUL:    2194790  USELESS:     780886
cpu0_L1I AVERAGE iMISS LATENCY: 23.9898 cycles
cpu0_L1I AVERAGE dMISS LATENCY: 0 cycles
cpu0_L1I AVERAGE itMISS LATENCY: 0 cycles
cpu0_L1I AVERAGE dtMISS LATENCY: 0 cycles
cpu0_L1I PAGE CROSSINGS (TLB HIT):         0 
cpu0_L1I PAGE CROSSINGS (TLB MISS):         0 
cpu0_L1I AVERAGE MISS LATENCY: 23.9898 cycles
cpu0_ITLB TOTAL       ACCESS:   33002407  HIT:   30769339  MISS:    2233068  iACCESS:   33002407  iHIT:   30769339  iMISS:    2233068  dACCESS:          0  dHIT:          0  dMISS:          0  itACCESS:          0  itHIT:          0  itMISS:          0  dtACCESS:          0  dtHIT:          0  dtMISS:          0
cpu0_ITLB LOAD         ACCESS:   33002407  HIT:   30769339  MISS:    2233068  iACCESS:   33002407  iHIT:   30769339  iMISS:    2233068  dACCESS:          0  dHIT:          0  dMISS:          0  itACCESS:          0  itHIT:          0  itMISS:          0  dtACCESS:          0  dtHIT:          0  dtMISS:          0
cpu0_ITLB RFO          ACCESS:          0  HIT:          0  MISS:          0  iACCESS:          0  iHIT:          0  iMISS:          0  dACCESS:          0  dHIT:          0  dMISS:          0  itACCESS:          0  itHIT:          0  itMISS:          0  dtACCESS:          0  dtHIT:          0  dtMISS:          0
cpu0_ITLB PREFETCH     ACCESS:          0  HIT:          0  MISS:          0  iACCESS:          0  iHIT:          0  iMISS:          0  dACCESS:          0  dHIT:          0  dMISS:          0  itACCESS:          0  itHIT:          0  itMISS:          0  dtACCESS:          0  dtHIT:          0  dtMISS:          0
cpu0_ITLB WRITE        ACCESS:          0  HIT:          0  MISS:          0  iACCESS:          0  iHIT:          0  iMISS:          0  dACCESS:          0  dHIT:          0  dMISS:          0  itACCESS:          0  itHIT:          0  itMISS:          0  dtACCESS:          0  dtHIT:          0  dtMISS:          0
cpu0_ITLB TRANSLATION  ACCESS:          0  HIT:          0  MISS:          0  iACCESS:          0  iHIT:          0  iMISS:          0  dACCESS:          0  dHIT:          0  dMISS:          0  itACCESS:          0  itHIT:          0  itMISS:          0  dtACCESS:          0  dtHIT:          0  dtMISS:          0
cpu0_ITLB PREFETCH  REQUESTED:          0  ISSUED:          0  CROSSED:          0  USEFUL:     392663  USELESS:      80053
cpu0_ITLB AVERAGE iMISS LATENCY: 10.1222 cycles
cpu0_ITLB AVERAGE dMISS LATENCY: 0 cycles
cpu0_ITLB AVERAGE itMISS LATENCY: 0 cycles
cpu0_ITLB AVERAGE dtMISS LATENCY: 0 cycles
cpu0_ITLB PAGE CROSSINGS (TLB HIT):         0 
cpu0_ITLB PAGE CROSSINGS (TLB MISS):         0 
cpu0_ITLB AVERAGE MISS LATENCY: 10.1222 cycles
cpu0_DTLB TOTAL       ACCESS:   29109380  HIT:   25486641  MISS:    3622739  iACCESS:          0  iHIT:          0  iMISS:          0  dACCESS:   29109380  dHIT:   25486641  dMISS:    3622739  itACCESS:          0  itHIT:          0  itMISS:          0  dtACCESS:          0  dtHIT:          0  dtMISS:          0
cpu0_DTLB LOAD         ACCESS:   29109380  HIT:   25486641  MISS:    3622739  iACCESS:          0  iHIT:          0  iMISS:          0  dACCESS:   29109380  dHIT:   25486641  dMISS:    3622739  itACCESS:          0  itHIT:          0  itMISS:          0  dtACCESS:          0  dtHIT:          0  dtMISS:          0
cpu0_DTLB RFO          ACCESS:          0  HIT:          0  MISS:          0  iACCESS:          0  iHIT:          0  iMISS:          0  dACCESS:          0  dHIT:          0  dMISS:          0  itACCESS:          0  itHIT:          0  itMISS:          0  dtACCESS:          0  dtHIT:          0  dtMISS:          0
cpu0_DTLB PREFETCH     ACCESS:          0  HIT:          0  MISS:          0  iACCESS:          0  iHIT:          0  iMISS:          0  dACCESS:          0  dHIT:          0  dMISS:          0  itACCESS:          0  itHIT:          0  itMISS:          0  dtACCESS:          0  dtHIT:          0  dtMISS:          0
cpu0_DTLB WRITE        ACCESS:          0  HIT:          0  MISS:          0  iACCESS:          0  iHIT:          0  iMISS:          0  dACCESS:          0  dHIT:          0  dMISS:          0  itACCESS:          0  itHIT:          0  itMISS:          0  dtACCESS:          0  dtHIT:          0  dtMISS:          0
cpu0_DTLB TRANSLATION  ACCESS:          0  HIT:          0  MISS:          0  iACCESS:          0  iHIT:          0  iMISS:          0  dACCESS:          0  dHIT:          0  dMISS:          0  itACCESS:          0  itHIT:          0  itMISS:          0  dtACCESS:          0  dtHIT:          0  dtMISS:          0
cpu0_DTLB PREFETCH  REQUESTED:          0  ISSUED:          0  CROSSED:          0  USEFUL:          0  USELESS:          0
cpu0_DTLB AVERAGE iMISS LATENCY: 0 cycles
cpu0_DTLB AVERAGE dMISS LATENCY: 24.8572 cycles
cpu0_DTLB AVERAGE itMISS LATENCY: 0 cycles
cpu0_DTLB AVERAGE dtMISS LATENCY: 0 cycles
cpu0_DTLB PAGE CROSSINGS (TLB HIT):         0 
cpu0_DTLB PAGE CROSSINGS (TLB MISS):         0 
cpu0_DTLB AVERAGE MISS LATENCY: 24.8572 cycles
cpu0_STLB TOTAL       ACCESS:    2586914  HIT:    2216036  MISS:     370878  iACCESS:     472716  iHIT:     362436  iMISS:     110280  dACCESS:    2114198  dHIT:    1853600  dMISS:     260598  itACCESS:          0  itHIT:          0  itMISS:          0  dtACCESS:          0  dtHIT:          0  dtMISS:          0
cpu0_STLB LOAD         ACCESS:    2586914  HIT:    2216036  MISS:     370878  iACCESS:     472716  iHIT:     362436  iMISS:     110280  dACCESS:    2114198  dHIT:    1853600  dMISS:     260598  itACCESS:          0  itHIT:          0  itMISS:          0  dtACCESS:          0  dtHIT:          0  dtMISS:          0
cpu0_STLB RFO          ACCESS:          0  HIT:          0  MISS:          0  iACCESS:          0  iHIT:          0  iMISS:          0  dACCESS:          0  dHIT:          0  dMISS:          0  itACCESS:          0  itHIT:          0  itMISS:          0  dtACCESS:          0  dtHIT:          0  dtMISS:          0
cpu0_STLB PREFETCH     ACCESS:          0  HIT:          0  MISS:          0  iACCESS:          0  iHIT:          0  iMISS:          0  dACCESS:          0  dHIT:          0  dMISS:          0  itACCESS:          0  itHIT:          0  itMISS:          0  dtACCESS:          0  dtHIT:          0  dtMISS:          0
cpu0_STLB WRITE        ACCESS:          0  HIT:          0  MISS:          0  iACCESS:          0  iHIT:          0  iMISS:          0  dACCESS:          0  dHIT:          0  dMISS:          0  itACCESS:          0  itHIT:          0  itMISS:          0  dtACCESS:          0  dtHIT:          0  dtMISS:          0
cpu0_STLB TRANSLATION  ACCESS:          0  HIT:          0  MISS:          0  iACCESS:          0  iHIT:          0  iMISS:          0  dACCESS:          0  dHIT:          0  dMISS:          0  itACCESS:          0  itHIT:          0  itMISS:          0  dtACCESS:          0  dtHIT:          0  dtMISS:          0
cpu0_STLB PREFETCH  REQUESTED:          0  ISSUED:          0  CROSSED:          0  USEFUL:          0  USELESS:          0
cpu0_STLB AVERAGE iMISS LATENCY: 50.7689 cycles
cpu0_STLB AVERAGE dMISS LATENCY: 196.938 cycles
cpu0_STLB AVERAGE itMISS LATENCY: 0 cycles
cpu0_STLB AVERAGE dtMISS LATENCY: 0 cycles
cpu0_STLB PAGE CROSSINGS (TLB HIT):         0 
cpu0_STLB PAGE CROSSINGS (TLB MISS):         0 
cpu0_STLB AVERAGE MISS LATENCY: 247.707 cycles
cpu0_L1D TOTAL       ACCESS:   44961883  HIT:   39551712  MISS:    5410171  iACCESS:          0  iHIT:          0  iMISS:          0  dACCESS:   44423950  dHIT:   39517349  dMISS:    4906601  itACCESS:     123654  itHIT:      14339  itMISS:     109315  dtACCESS:     414279  dtHIT:      20024  dtMISS:     394255
cpu0_L1D LOAD         ACCESS:   20343241  HIT:   18139267  MISS:    2203974  iACCESS:          0  iHIT:          0  iMISS:          0  dACCESS:   20343241  dHIT:   18139267  dMISS:    2203974  itACCESS:          0  itHIT:          0  itMISS:          0  dtACCESS:          0  dtHIT:          0  dtMISS:          0
cpu0_L1D RFO          ACCESS:          0  HIT:          0  MISS:          0  iACCESS:          0  iHIT:          0  iMISS:          0  dACCESS:          0  dHIT:          0  dMISS:          0  itACCESS:          0  itHIT:          0  itMISS:          0  dtACCESS:          0  dtHIT:          0  dtMISS:          0
cpu0_L1D PREFETCH     ACCESS:   13972157  HIT:   11838448  MISS:    2133709  iACCESS:          0  iHIT:          0  iMISS:          0  dACCESS:   13972157  dHIT:   11838448  dMISS:    2133709  itACCESS:          0  itHIT:          0  itMISS:          0  dtACCESS:          0  dtHIT:          0  dtMISS:          0
cpu0_L1D WRITE        ACCESS:   10108552  HIT:    9539634  MISS:     568918  iACCESS:          0  iHIT:          0  iMISS:          0  dACCESS:   10108552  dHIT:    9539634  dMISS:     568918  itACCESS:          0  itHIT:          0  itMISS:          0  dtACCESS:          0  dtHIT:          0  dtMISS:          0
cpu0_L1D TRANSLATION  ACCESS:     537933  HIT:      34363  MISS:     503570  iACCESS:          0  iHIT:          0  iMISS:          0  dACCESS:          0  dHIT:          0  dMISS:          0  itACCESS:     123654  itHIT:      14339  itMISS:     109315  dtACCESS:     414279  dtHIT:      20024  dtMISS:     394255
cpu0_L1D PREFETCH  REQUESTED:   20343241  ISSUED:   18709856  CROSSED:          0  USEFUL:     375787  USELESS:     948654
cpu0_L1D AVERAGE iMISS LATENCY: 0 cycles
cpu0_L1D AVERAGE dMISS LATENCY: 51.6633 cycles
cpu0_L1D AVERAGE itMISS LATENCY: 3.29187 cycles
cpu0_L1D AVERAGE dtMISS LATENCY: 12.5123 cycles
cpu0_L1D PAGE CROSSINGS (TLB HIT):         0 
cpu0_L1D PAGE CROSSINGS (TLB MISS):         0 
cpu0_L1D AVERAGE MISS LATENCY: 67.4675 cycles
cpu0_L2C TOTAL       ACCESS:    8650458  HIT:    4218305  MISS:    4432153  iACCESS:    3792502  iHIT:    2293819  iMISS:    1498683  dACCESS:    4378152  dHIT:    1867174  dMISS:    2510978  itACCESS:     109105  itHIT:      19124  itMISS:      89981  dtACCESS:     370699  dtHIT:      38188  dtMISS:     332511
cpu0_L2C LOAD         ACCESS:    2089139  HIT:    1022042  MISS:    1067097  iACCESS:     853008  iHIT:     539341  iMISS:     313667  dACCESS:    1236131  dHIT:     482701  dMISS:     753430  itACCESS:          0  itHIT:          0  itMISS:          0  dtACCESS:          0  dtHIT:          0  dtMISS:          0
cpu0_L2C RFO          ACCESS:     218511  HIT:      89875  MISS:     128636  iACCESS:          0  iHIT:          0  iMISS:          0  dACCESS:     218511  dHIT:      89875  dMISS:     128636  itACCESS:          0  itHIT:          0  itMISS:          0  dtACCESS:          0  dtHIT:          0  dtMISS:          0
cpu0_L2C PREFETCH     ACCESS:    5514004  HIT:    2704048  MISS:    2809956  iACCESS:    2939494  iHIT:    1754478  iMISS:    1185016  dACCESS:    2574510  dHIT:     949570  dMISS:    1624940  itACCESS:          0  itHIT:          0  itMISS:          0  dtACCESS:          0  dtHIT:          0  dtMISS:          0
cpu0_L2C WRITE        ACCESS:     349000  HIT:     345028  MISS:       3972  iACCESS:          0  iHIT:          0  iMISS:          0  dACCESS:     349000  dHIT:     345028  dMISS:       3972  itACCESS:          0  itHIT:          0  itMISS:          0  dtACCESS:          0  dtHIT:          0  dtMISS:          0
cpu0_L2C TRANSLATION  ACCESS:     479804  HIT:      57312  MISS:     422492  iACCESS:          0  iHIT:          0  iMISS:          0  dACCESS:          0  dHIT:          0  dMISS:          0  itACCESS:     109105  itHIT:      19124  itMISS:      89981  dtACCESS:     370699  dtHIT:      38188  dtMISS:     332511
cpu0_L2C PREFETCH  REQUESTED:    1492611  ISSUED:    1492603  CROSSED:          0  USEFUL:     349021  USELESS:     318992
cpu0_L2C AVERAGE iMISS LATENCY: 39.9834 cycles
cpu0_L2C AVERAGE dMISS LATENCY: 77.8599 cycles
cpu0_L2C AVERAGE itMISS LATENCY: 3.77573 cycles
cpu0_L2C AVERAGE dtMISS LATENCY: 14.4405 cycles
cpu0_L2C PAGE CROSSINGS (TLB HIT):         0 
cpu0_L2C PAGE CROSSINGS (TLB MISS):         0 
cpu0_L2C AVERAGE MISS LATENCY: 136.06 cycles
LLC TOTAL       ACCESS:    4438375  HIT:    1412525  MISS:    3025850  iACCESS:    1412147  iHIT:     472374  iMISS:     939773  dACCESS:    2603736  dHIT:     898887  dMISS:    1704849  itACCESS:      89981  itHIT:       6619  itMISS:      83362  dtACCESS:     332511  dtHIT:      34645  dtMISS:     297866
LLC LOAD         ACCESS:    1061359  HIT:     359152  MISS:     702207  iACCESS:     312461  iHIT:     112317  iMISS:     200144  dACCESS:     748898  dHIT:     246835  dMISS:     502063  itACCESS:          0  itHIT:          0  itMISS:          0  dtACCESS:          0  dtHIT:          0  dtMISS:          0
LLC RFO          ACCESS:     128632  HIT:      41175  MISS:      87457  iACCESS:          0  iHIT:          0  iMISS:          0  dACCESS:     128632  dHIT:      41175  dMISS:      87457  itACCESS:          0  itHIT:          0  itMISS:          0  dtACCESS:          0  dtHIT:          0  dtMISS:          0
LLC PREFETCH     ACCESS:    2614097  HIT:     769962  MISS:    1844135  iACCESS:    1099686  iHIT:     360057  iMISS:     739629  dACCESS:    1514411  dHIT:     409905  dMISS:    1104506  itACCESS:          0  itHIT:          0  itMISS:          0  dtACCESS:          0  dtHIT:          0  dtMISS:          0
LLC WRITE        ACCESS:     211795  HIT:     200972  MISS:      10823  iACCESS:          0  iHIT:          0  iMISS:          0  dACCESS:     211795  dHIT:     200972  dMISS:      10823  itACCESS:          0  itHIT:          0  itMISS:          0  dtACCESS:          0  dtHIT:          0  dtMISS:          0
LLC TRANSLATION  ACCESS:     422492  HIT:      41264  MISS:     381228  iACCESS:          0  iHIT:          0  iMISS:          0  dACCESS:          0  dHIT:          0  dMISS:          0  itACCESS:      89981  itHIT:       6619  itMISS:      83362  dtACCESS:     332511  dtHIT:      34645  dtMISS:     297866
LLC PREFETCH  REQUESTED:          0  ISSUED:          0  CROSSED:          0  USEFUL:          0  USELESS:          0
LLC AVERAGE iMISS LATENCY: 49.3756 cycles
LLC AVERAGE dMISS LATENCY: 99.1195 cycles
LLC AVERAGE itMISS LATENCY: 4.94079 cycles
LLC AVERAGE dtMISS LATENCY: 18.9789 cycles
LLC PAGE CROSSINGS (TLB HIT):         0 
LLC PAGE CROSSINGS (TLB MISS):         0 
LLC AVERAGE MISS LATENCY: 172.415 cycles

PageTableWalker TOTAL       ACCESS:     182473  
PageTableWalker AVERAGE LATENCY: 6.54663 cycles
PageTableWalker TOTAL LATENCY: 1194583 cycles

DRAM Statistics
Channel 0
 RQ ROW_BUFFER_HIT:     633402
  ROW_BUFFER_MISS:    2371507
 AVG DBUS CONGESTED CYCLE:    3.64469
 WQ ROW_BUFFER_HIT:      64481
  ROW_BUFFER_MISS:      54173  FULL:          0

