last_page:0x200000000000000
VMEM_RES_CAP:0x100000
PAGE_SIZE:4096
LOG2_PAGE_SIZE:12
LOG2_PAGE_TABLE_SIZE:9
page_table_levels:5
WARNING: physical memory size is smaller than virtual memory size
FDiP enabled with aggresivity 16

*** ChampSim Multicore Out-of-Order Simulator ***

Warmup Instructions: 50000000
Simulation Instructions: 100000000
Number of CPUs: 1
Small page size: 4096
Large page size: 2097152

CPU 0 Bimodal branch predictor
Basic BTB sets: 1024 ways: 8 indirect buffer size: 4096 RAS size: 64
Instruction page size distrubution: 0
Loading instruction page size distribution from /home/bsc/bsc018186/scratch/itp_asplos25_AE/dump/smt_srv207_ap_srv73_ap_1024i.pdst
Data page size distrubution: 0
Loading data page size distribution from /home/bsc/bsc018186/scratch/itp_asplos25_AE/dump/smt_srv207_ap_srv73_ap_1024i.pdst
cpu0_L2C IP-based stride prefetcher
cpu0_L1D next line prefetcher
CHiRPing...
cpu0_L1I next line prefetcher
Off-chip DRAM Size: 4 GiB Channels: 1 Width: 64-bit Data Rate: 3200 MT/s
Heartbeat CPU 0 instructions: 10000003 cycles: 2500988 heartbeat IPC: 3.99843 cumulative IPC: 3.99843 (Simulation time: 0 hr 0 min 41 sec) 
Heartbeat CPU 0 instructions: 20000001 cycles: 5001708 heartbeat IPC: 3.99885 cumulative IPC: 3.99864 (Simulation time: 0 hr 1 min 25 sec) 
Heartbeat CPU 0 instructions: 30000003 cycles: 7502258 heartbeat IPC: 3.99913 cumulative IPC: 3.9988 (Simulation time: 0 hr 2 min 8 sec) 
Heartbeat CPU 0 instructions: 40000001 cycles: 10002801 heartbeat IPC: 3.99914 cumulative IPC: 3.99889 (Simulation time: 0 hr 2 min 51 sec) 
Heartbeat CPU 0 instructions: 50000002 cycles: 12504363 heartbeat IPC: 3.99751 cumulative IPC: 3.99861 (Simulation time: 0 hr 3 min 34 sec) 
Warmup finished CPU 0 instructions: 50000002 cycles: 12504364 cumulative IPC: 3.99861 (Simulation time: 0 hr 3 min 34 sec) 

Warmup complete CPU 0 instructions: 50000002 cycles: 12504364 (Simulation time: 0 hr 3 min 34 sec) 

Heartbeat CPU 0 instructions: 60000004 cycles: 36440166 heartbeat IPC: 0.417785 cumulative IPC: 0.417785 (Simulation time: 0 hr 4 min 52 sec) 
Heartbeat CPU 0 instructions: 70000003 cycles: 58040197 heartbeat IPC: 0.462963 cumulative IPC: 0.439215 (Simulation time: 0 hr 6 min 6 sec) 
Heartbeat CPU 0 instructions: 80000002 cycles: 81741220 heartbeat IPC: 0.421923 cumulative IPC: 0.433296 (Simulation time: 0 hr 7 min 23 sec) 
Heartbeat CPU 0 instructions: 90000003 cycles: 111294347 heartbeat IPC: 0.338374 cumulative IPC: 0.4049 (Simulation time: 0 hr 8 min 49 sec) 
Heartbeat CPU 0 instructions: 100000004 cycles: 140838743 heartbeat IPC: 0.338474 cumulative IPC: 0.389608 (Simulation time: 0 hr 10 min 16 sec) 
Heartbeat CPU 0 instructions: 110000002 cycles: 170342032 heartbeat IPC: 0.338946 cumulative IPC: 0.380138 (Simulation time: 0 hr 11 min 42 sec) 
Heartbeat CPU 0 instructions: 120000001 cycles: 198534288 heartbeat IPC: 0.354708 cumulative IPC: 0.376284 (Simulation time: 0 hr 13 min 8 sec) 
Heartbeat CPU 0 instructions: 130000000 cycles: 215759473 heartbeat IPC: 0.580546 cumulative IPC: 0.393595 (Simulation time: 0 hr 14 min 23 sec) 
Heartbeat CPU 0 instructions: 140000002 cycles: 237590670 heartbeat IPC: 0.458061 cumulative IPC: 0.399847 (Simulation time: 0 hr 15 min 42 sec) 
Heartbeat CPU 0 instructions: 150000000 cycles: 266025473 heartbeat IPC: 0.351682 cumulative IPC: 0.394445 (Simulation time: 0 hr 17 min 8 sec) 
Simulation finished CPU 0 instructions: 100000003 cycles: 253521111 cumulative IPC: 0.394445 (Simulation time: 0 hr 17 min 8 sec) 

Simulation complete CPU 0 instructions: 100000003 cycles: 253521111 (Simulation time: 0 hr 17 min 8 sec) 


ChampSim completed all CPUs

Saving instructions large page distribution to /home/bsc/bsc018186/scratch/itp_asplos25_AE/dump/smt_srv207_ap_srv73_ap_1024i.pdst...
Saving data large page distribution to /home/bsc/bsc018186/scratch/itp_asplos25_AE/dump/smt_srv207_ap_srv73_ap_1024i.pdst...
=== Simulation ===
CPU 0 runs /gpfs/projects/bsc18/MN4/bsc18/romol/ChampSim/traces/qualcomm_srv/smt_srv207_ap_srv73_ap_1024i.champsimtrace.xz

Region of Interest Statistics

CPU 0 cumulative IPC: 0.394445 instructions: 100000003 cycles: 253521111
CPU 0 Branch Prediction Accuracy: 77.5974% MPKI: 43.423 Average ROB Occupancy at Mispredict: 11.2658
Branch type MPKI
BRANCH_DIRECT_JUMP: 1.11372
BRANCH_INDIRECT: 23.5844
BRANCH_CONDITIONAL: 12.0181
BRANCH_DIRECT_CALL: 2.04424
BRANCH_INDIRECT_CALL: 1.68306
BRANCH_RETURN: 2.97949

Instructions large pages: 0
Instructions small pages: 12734
Large page distribution for instructions: 0%

Data large pages: 0
Data small pages: 10893
Large page distribution for data: 0%

cpu0_L1I TOTAL       ACCESS:   38211361  HIT:   30724993  MISS:    7486368  iACCESS:   38211361  iHIT:   30724993  iMISS:    7486368  dACCESS:          0  dHIT:          0  dMISS:          0  itACCESS:          0  itHIT:          0  itMISS:          0  dtACCESS:          0  dtHIT:          0  dtMISS:          0
cpu0_L1I LOAD         ACCESS:   10450620  HIT:    8395257  MISS:    2055363  iACCESS:   10450620  iHIT:    8395257  iMISS:    2055363  dACCESS:          0  dHIT:          0  dMISS:          0  itACCESS:          0  itHIT:          0  itMISS:          0  dtACCESS:          0  dtHIT:          0  dtMISS:          0
cpu0_L1I RFO          ACCESS:          0  HIT:          0  MISS:          0  iACCESS:          0  iHIT:          0  iMISS:          0  dACCESS:          0  dHIT:          0  dMISS:          0  itACCESS:          0  itHIT:          0  itMISS:          0  dtACCESS:          0  dtHIT:          0  dtMISS:          0
cpu0_L1I PREFETCH     ACCESS:   27760741  HIT:   22329736  MISS:    5431005  iACCESS:   27760741  iHIT:   22329736  iMISS:    5431005  dACCESS:          0  dHIT:          0  dMISS:          0  itACCESS:          0  itHIT:          0  itMISS:          0  dtACCESS:          0  dtHIT:          0  dtMISS:          0
cpu0_L1I WRITE        ACCESS:          0  HIT:          0  MISS:          0  iACCESS:          0  iHIT:          0  iMISS:          0  dACCESS:          0  dHIT:          0  dMISS:          0  itACCESS:          0  itHIT:          0  itMISS:          0  dtACCESS:          0  dtHIT:          0  dtMISS:          0
cpu0_L1I TRANSLATION  ACCESS:          0  HIT:          0  MISS:          0  iACCESS:          0  iHIT:          0  iMISS:          0  dACCESS:          0  dHIT:          0  dMISS:          0  itACCESS:          0  itHIT:          0  itMISS:          0  dtACCESS:          0  dtHIT:          0  dtMISS:          0
cpu0_L1I PREFETCH  REQUESTED:   29954272  ISSUED:   29953277  CROSSED:          0  USEFUL:    1783770  USELESS:     664826
cpu0_L1I AVERAGE iMISS LATENCY: 24.4041 cycles
cpu0_L1I AVERAGE dMISS LATENCY: 0 cycles
cpu0_L1I AVERAGE itMISS LATENCY: 0 cycles
cpu0_L1I AVERAGE dtMISS LATENCY: 0 cycles
cpu0_L1I PAGE CROSSINGS (TLB HIT):         0 
cpu0_L1I PAGE CROSSINGS (TLB MISS):         0 
cpu0_L1I AVERAGE MISS LATENCY: 24.4041 cycles
cpu0_ITLB TOTAL       ACCESS:   32241405  HIT:   30384125  MISS:    1857280  iACCESS:   32241405  iHIT:   30384125  iMISS:    1857280  dACCESS:          0  dHIT:          0  dMISS:          0  itACCESS:          0  itHIT:          0  itMISS:          0  dtACCESS:          0  dtHIT:          0  dtMISS:          0
cpu0_ITLB LOAD         ACCESS:   32241405  HIT:   30384125  MISS:    1857280  iACCESS:   32241405  iHIT:   30384125  iMISS:    1857280  dACCESS:          0  dHIT:          0  dMISS:          0  itACCESS:          0  itHIT:          0  itMISS:          0  dtACCESS:          0  dtHIT:          0  dtMISS:          0
cpu0_ITLB RFO          ACCESS:          0  HIT:          0  MISS:          0  iACCESS:          0  iHIT:          0  iMISS:          0  dACCESS:          0  dHIT:          0  dMISS:          0  itACCESS:          0  itHIT:          0  itMISS:          0  dtACCESS:          0  dtHIT:          0  dtMISS:          0
cpu0_ITLB PREFETCH     ACCESS:          0  HIT:          0  MISS:          0  iACCESS:          0  iHIT:          0  iMISS:          0  dACCESS:          0  dHIT:          0  dMISS:          0  itACCESS:          0  itHIT:          0  itMISS:          0  dtACCESS:          0  dtHIT:          0  dtMISS:          0
cpu0_ITLB WRITE        ACCESS:          0  HIT:          0  MISS:          0  iACCESS:          0  iHIT:          0  iMISS:          0  dACCESS:          0  dHIT:          0  dMISS:          0  itACCESS:          0  itHIT:          0  itMISS:          0  dtACCESS:          0  dtHIT:          0  dtMISS:          0
cpu0_ITLB TRANSLATION  ACCESS:          0  HIT:          0  MISS:          0  iACCESS:          0  iHIT:          0  iMISS:          0  dACCESS:          0  dHIT:          0  dMISS:          0  itACCESS:          0  itHIT:          0  itMISS:          0  dtACCESS:          0  dtHIT:          0  dtMISS:          0
cpu0_ITLB PREFETCH  REQUESTED:          0  ISSUED:          0  CROSSED:          0  USEFUL:     330599  USELESS:      69709
cpu0_ITLB AVERAGE iMISS LATENCY: 8.25984 cycles
cpu0_ITLB AVERAGE dMISS LATENCY: 0 cycles
cpu0_ITLB AVERAGE itMISS LATENCY: 0 cycles
cpu0_ITLB AVERAGE dtMISS LATENCY: 0 cycles
cpu0_ITLB PAGE CROSSINGS (TLB HIT):         0 
cpu0_ITLB PAGE CROSSINGS (TLB MISS):         0 
cpu0_ITLB AVERAGE MISS LATENCY: 8.25984 cycles
cpu0_DTLB TOTAL       ACCESS:   31617190  HIT:   26360761  MISS:    5256429  iACCESS:          0  iHIT:          0  iMISS:          0  dACCESS:   31617190  dHIT:   26360761  dMISS:    5256429  itACCESS:          0  itHIT:          0  itMISS:          0  dtACCESS:          0  dtHIT:          0  dtMISS:          0
cpu0_DTLB LOAD         ACCESS:   31617190  HIT:   26360761  MISS:    5256429  iACCESS:          0  iHIT:          0  iMISS:          0  dACCESS:   31617190  dHIT:   26360761  dMISS:    5256429  itACCESS:          0  itHIT:          0  itMISS:          0  dtACCESS:          0  dtHIT:          0  dtMISS:          0
cpu0_DTLB RFO          ACCESS:          0  HIT:          0  MISS:          0  iACCESS:          0  iHIT:          0  iMISS:          0  dACCESS:          0  dHIT:          0  dMISS:          0  itACCESS:          0  itHIT:          0  itMISS:          0  dtACCESS:          0  dtHIT:          0  dtMISS:          0
cpu0_DTLB PREFETCH     ACCESS:          0  HIT:          0  MISS:          0  iACCESS:          0  iHIT:          0  iMISS:          0  dACCESS:          0  dHIT:          0  dMISS:          0  itACCESS:          0  itHIT:          0  itMISS:          0  dtACCESS:          0  dtHIT:          0  dtMISS:          0
cpu0_DTLB WRITE        ACCESS:          0  HIT:          0  MISS:          0  iACCESS:          0  iHIT:          0  iMISS:          0  dACCESS:          0  dHIT:          0  dMISS:          0  itACCESS:          0  itHIT:          0  itMISS:          0  dtACCESS:          0  dtHIT:          0  dtMISS:          0
cpu0_DTLB TRANSLATION  ACCESS:          0  HIT:          0  MISS:          0  iACCESS:          0  iHIT:          0  iMISS:          0  dACCESS:          0  dHIT:          0  dMISS:          0  itACCESS:          0  itHIT:          0  itMISS:          0  dtACCESS:          0  dtHIT:          0  dtMISS:          0
cpu0_DTLB PREFETCH  REQUESTED:          0  ISSUED:          0  CROSSED:          0  USEFUL:          0  USELESS:          0
cpu0_DTLB AVERAGE iMISS LATENCY: 0 cycles
cpu0_DTLB AVERAGE dMISS LATENCY: 11.3568 cycles
cpu0_DTLB AVERAGE itMISS LATENCY: 0 cycles
cpu0_DTLB AVERAGE dtMISS LATENCY: 0 cycles
cpu0_DTLB PAGE CROSSINGS (TLB HIT):         0 
cpu0_DTLB PAGE CROSSINGS (TLB MISS):         0 
cpu0_DTLB AVERAGE MISS LATENCY: 11.3568 cycles
cpu0_STLB TOTAL       ACCESS:    3249590  HIT:    2954332  MISS:     295258  iACCESS:     400317  iHIT:     308887  iMISS:      91430  dACCESS:    2849273  dHIT:    2645445  dMISS:     203828  itACCESS:          0  itHIT:          0  itMISS:          0  dtACCESS:          0  dtHIT:          0  dtMISS:          0
cpu0_STLB LOAD         ACCESS:    3249590  HIT:    2954332  MISS:     295258  iACCESS:     400317  iHIT:     308887  iMISS:      91430  dACCESS:    2849273  dHIT:    2645445  dMISS:     203828  itACCESS:          0  itHIT:          0  itMISS:          0  dtACCESS:          0  dtHIT:          0  dtMISS:          0
cpu0_STLB RFO          ACCESS:          0  HIT:          0  MISS:          0  iACCESS:          0  iHIT:          0  iMISS:          0  dACCESS:          0  dHIT:          0  dMISS:          0  itACCESS:          0  itHIT:          0  itMISS:          0  dtACCESS:          0  dtHIT:          0  dtMISS:          0
cpu0_STLB PREFETCH     ACCESS:          0  HIT:          0  MISS:          0  iACCESS:          0  iHIT:          0  iMISS:          0  dACCESS:          0  dHIT:          0  dMISS:          0  itACCESS:          0  itHIT:          0  itMISS:          0  dtACCESS:          0  dtHIT:          0  dtMISS:          0
cpu0_STLB WRITE        ACCESS:          0  HIT:          0  MISS:          0  iACCESS:          0  iHIT:          0  iMISS:          0  dACCESS:          0  dHIT:          0  dMISS:          0  itACCESS:          0  itHIT:          0  itMISS:          0  dtACCESS:          0  dtHIT:          0  dtMISS:          0
cpu0_STLB TRANSLATION  ACCESS:          0  HIT:          0  MISS:          0  iACCESS:          0  iHIT:          0  iMISS:          0  dACCESS:          0  dHIT:          0  dMISS:          0  itACCESS:          0  itHIT:          0  itMISS:          0  dtACCESS:          0  dtHIT:          0  dtMISS:          0
cpu0_STLB PREFETCH  REQUESTED:          0  ISSUED:          0  CROSSED:          0  USEFUL:          0  USELESS:          0
cpu0_STLB AVERAGE iMISS LATENCY: 41.141 cycles
cpu0_STLB AVERAGE dMISS LATENCY: 124.258 cycles
cpu0_STLB AVERAGE itMISS LATENCY: 0 cycles
cpu0_STLB AVERAGE dtMISS LATENCY: 0 cycles
cpu0_STLB PAGE CROSSINGS (TLB HIT):         0 
cpu0_STLB PAGE CROSSINGS (TLB MISS):         0 
cpu0_STLB AVERAGE MISS LATENCY: 165.399 cycles
cpu0_L1D TOTAL       ACCESS:   50811566  HIT:   41204630  MISS:    9606936  iACCESS:          0  iHIT:          0  iMISS:          0  dACCESS:   50336000  dHIT:   41181781  dMISS:    9154219  itACCESS:     112923  itHIT:       9248  itMISS:     103675  dtACCESS:     362643  dtHIT:      13601  dtMISS:     349042
cpu0_L1D LOAD         ACCESS:   24385578  HIT:   19563506  MISS:    4822072  iACCESS:          0  iHIT:          0  iMISS:          0  dACCESS:   24385578  dHIT:   19563506  dMISS:    4822072  itACCESS:          0  itHIT:          0  itMISS:          0  dtACCESS:          0  dtHIT:          0  dtMISS:          0
cpu0_L1D RFO          ACCESS:          0  HIT:          0  MISS:          0  iACCESS:          0  iHIT:          0  iMISS:          0  dACCESS:          0  dHIT:          0  dMISS:          0  itACCESS:          0  itHIT:          0  itMISS:          0  dtACCESS:          0  dtHIT:          0  dtMISS:          0
cpu0_L1D PREFETCH     ACCESS:   16146784  HIT:   12626660  MISS:    3520124  iACCESS:          0  iHIT:          0  iMISS:          0  dACCESS:   16146784  dHIT:   12626660  dMISS:    3520124  itACCESS:          0  itHIT:          0  itMISS:          0  dtACCESS:          0  dtHIT:          0  dtMISS:          0
cpu0_L1D WRITE        ACCESS:    9803638  HIT:    8991615  MISS:     812023  iACCESS:          0  iHIT:          0  iMISS:          0  dACCESS:    9803638  dHIT:    8991615  dMISS:     812023  itACCESS:          0  itHIT:          0  itMISS:          0  dtACCESS:          0  dtHIT:          0  dtMISS:          0
cpu0_L1D TRANSLATION  ACCESS:     475566  HIT:      22849  MISS:     452717  iACCESS:          0  iHIT:          0  iMISS:          0  dACCESS:          0  dHIT:          0  dMISS:          0  itACCESS:     112923  itHIT:       9248  itMISS:     103675  dtACCESS:     362643  dtHIT:      13601  dtMISS:     349042
cpu0_L1D PREFETCH  REQUESTED:   24385578  ISSUED:   20081737  CROSSED:          0  USEFUL:     359455  USELESS:    1070133
cpu0_L1D AVERAGE iMISS LATENCY: 0 cycles
cpu0_L1D AVERAGE dMISS LATENCY: 31.4961 cycles
cpu0_L1D AVERAGE itMISS LATENCY: 1.16744 cycles
cpu0_L1D AVERAGE dtMISS LATENCY: 3.42958 cycles
cpu0_L1D PAGE CROSSINGS (TLB HIT):         0 
cpu0_L1D PAGE CROSSINGS (TLB MISS):         0 
cpu0_L1D AVERAGE MISS LATENCY: 36.0931 cycles
cpu0_L2C TOTAL       ACCESS:    9190384  HIT:    1909695  MISS:    7280689  iACCESS:    3121551  iHIT:     657894  iMISS:    2463657  dACCESS:    5691174  dHIT:    1117748  dMISS:    4573426  itACCESS:      93295  itHIT:      29149  itMISS:      64146  dtACCESS:     284364  dtHIT:     104904  dtMISS:     179460
cpu0_L2C LOAD         ACCESS:    3356824  HIT:     719948  MISS:    2636876  iACCESS:     697339  iHIT:     100656  iMISS:     596683  dACCESS:    2659485  dHIT:     619292  dMISS:    2040193  itACCESS:          0  itHIT:          0  itMISS:          0  dtACCESS:          0  dtHIT:          0  dtMISS:          0
cpu0_L2C RFO          ACCESS:     243555  HIT:      36883  MISS:     206672  iACCESS:          0  iHIT:          0  iMISS:          0  dACCESS:     243555  dHIT:      36883  dMISS:     206672  itACCESS:          0  itHIT:          0  itMISS:          0  dtACCESS:          0  dtHIT:          0  dtMISS:          0
cpu0_L2C PREFETCH     ACCESS:    4874581  HIT:     910099  MISS:    3964482  iACCESS:    2424212  iHIT:     557238  iMISS:    1866974  dACCESS:    2450369  dHIT:     352861  dMISS:    2097508  itACCESS:          0  itHIT:          0  itMISS:          0  dtACCESS:          0  dtHIT:          0  dtMISS:          0
cpu0_L2C WRITE        ACCESS:     337765  HIT:     108712  MISS:     229053  iACCESS:          0  iHIT:          0  iMISS:          0  dACCESS:     337765  dHIT:     108712  dMISS:     229053  itACCESS:          0  itHIT:          0  itMISS:          0  dtACCESS:          0  dtHIT:          0  dtMISS:          0
cpu0_L2C TRANSLATION  ACCESS:     377659  HIT:     134053  MISS:     243606  iACCESS:          0  iHIT:          0  iMISS:          0  dACCESS:          0  dHIT:          0  dMISS:          0  itACCESS:      93295  itHIT:      29149  itMISS:      64146  dtACCESS:     284364  dtHIT:     104904  dtMISS:     179460
cpu0_L2C PREFETCH  REQUESTED:    1201754  ISSUED:    1201752  CROSSED:          0  USEFUL:     306142  USELESS:     400691
cpu0_L2C AVERAGE iMISS LATENCY: 21.4803 cycles
cpu0_L2C AVERAGE dMISS LATENCY: 45.5437 cycles
cpu0_L2C AVERAGE itMISS LATENCY: 1.41597 cycles
cpu0_L2C AVERAGE dtMISS LATENCY: 4.14747 cycles
cpu0_L2C PAGE CROSSINGS (TLB HIT):         0 
cpu0_L2C PAGE CROSSINGS (TLB MISS):         0 
cpu0_L2C AVERAGE MISS LATENCY: 72.5874 cycles
LLC TOTAL       ACCESS:    7154660  HIT:    4877629  MISS:    2277031  iACCESS:    2400641  iHIT:    1712129  iMISS:     688512  dACCESS:    4510413  dHIT:    3111173  dMISS:    1399240  itACCESS:      64146  itHIT:      13558  itMISS:      50588  dtACCESS:     179460  dtHIT:      40769  dtMISS:     138691
LLC LOAD         ACCESS:    2629801  HIT:    2058224  MISS:     571577  iACCESS:     595686  iHIT:     451630  iMISS:     144056  dACCESS:    2034115  dHIT:    1606594  dMISS:     427521  itACCESS:          0  itHIT:          0  itMISS:          0  dtACCESS:          0  dtHIT:          0  dtMISS:          0
LLC RFO          ACCESS:     206642  HIT:     111860  MISS:      94782  iACCESS:          0  iHIT:          0  iMISS:          0  dACCESS:     206642  dHIT:     111860  dMISS:      94782  itACCESS:          0  itHIT:          0  itMISS:          0  dtACCESS:          0  dtHIT:          0  dtMISS:          0
LLC PREFETCH     ACCESS:    3810124  HIT:    2394218  MISS:    1415906  iACCESS:    1804955  iHIT:    1260499  iMISS:     544456  dACCESS:    2005169  dHIT:    1133719  dMISS:     871450  itACCESS:          0  itHIT:          0  itMISS:          0  dtACCESS:          0  dtHIT:          0  dtMISS:          0
LLC WRITE        ACCESS:     264487  HIT:     259000  MISS:       5487  iACCESS:          0  iHIT:          0  iMISS:          0  dACCESS:     264487  dHIT:     259000  dMISS:       5487  itACCESS:          0  itHIT:          0  itMISS:          0  dtACCESS:          0  dtHIT:          0  dtMISS:          0
LLC TRANSLATION  ACCESS:     243606  HIT:      54327  MISS:     189279  iACCESS:          0  iHIT:          0  iMISS:          0  dACCESS:          0  dHIT:          0  dMISS:          0  itACCESS:      64146  itHIT:      13558  itMISS:      50588  dtACCESS:     179460  dtHIT:      40769  dtMISS:     138691
LLC PREFETCH  REQUESTED:          0  ISSUED:          0  CROSSED:          0  USEFUL:          0  USELESS:          0
LLC AVERAGE iMISS LATENCY: 48.2105 cycles
LLC AVERAGE dMISS LATENCY: 110.199 cycles
LLC AVERAGE itMISS LATENCY: 3.97194 cycles
LLC AVERAGE dtMISS LATENCY: 11.7091 cycles
LLC PAGE CROSSINGS (TLB HIT):         0 
LLC PAGE CROSSINGS (TLB MISS):         0 
LLC AVERAGE MISS LATENCY: 174.09 cycles

PageTableWalker TOTAL       ACCESS:     187721  
PageTableWalker AVERAGE LATENCY: 6.09163 cycles
PageTableWalker TOTAL LATENCY: 1143526 cycles

DRAM Statistics
Channel 0
 RQ ROW_BUFFER_HIT:     482759
  ROW_BUFFER_MISS:    1774229
 AVG DBUS CONGESTED CYCLE:    3.65819
 WQ ROW_BUFFER_HIT:      58549
  ROW_BUFFER_MISS:      61003  FULL:          0

