last_page:0x200000000000000
VMEM_RES_CAP:0x100000
PAGE_SIZE:4096
LOG2_PAGE_SIZE:12
LOG2_PAGE_TABLE_SIZE:9
page_table_levels:5
WARNING: physical memory size is smaller than virtual memory size
FDiP enabled with aggresivity 16

*** ChampSim Multicore Out-of-Order Simulator ***

Warmup Instructions: 50000000
Simulation Instructions: 100000000
Number of CPUs: 1
Small page size: 4096
Large page size: 2097152

CPU 0 Bimodal branch predictor
Basic BTB sets: 1024 ways: 8 indirect buffer size: 4096 RAS size: 64
Instruction page size distrubution: 0
Loading instruction page size distribution from /home/bsc/bsc018186/scratch/itp_asplos25_AE/dump/smt_srv12_ap_srv224_ap_1024i.pdst
Data page size distrubution: 0
Loading data page size distribution from /home/bsc/bsc018186/scratch/itp_asplos25_AE/dump/smt_srv12_ap_srv224_ap_1024i.pdst
cpu0_L2C IP-based stride prefetcher
cpu0_L1D next line prefetcher
cpu0_STLB using iTP with max lru@8
cpu0_STLB using iTP with instr@0 and data@2
Init sat counter with 3 bits (max:50).
cpu0_L1I next line prefetcher
Off-chip DRAM Size: 4 GiB Channels: 1 Width: 64-bit Data Rate: 3200 MT/s
Heartbeat CPU 0 instructions: 10000003 cycles: 2500436 heartbeat IPC: 3.99931 cumulative IPC: 3.99931 (Simulation time: 0 hr 0 min 38 sec) 
Heartbeat CPU 0 instructions: 20000001 cycles: 5000633 heartbeat IPC: 3.99969 cumulative IPC: 3.9995 (Simulation time: 0 hr 1 min 17 sec) 
Heartbeat CPU 0 instructions: 30000003 cycles: 7501191 heartbeat IPC: 3.99911 cumulative IPC: 3.99937 (Simulation time: 0 hr 1 min 57 sec) 
Heartbeat CPU 0 instructions: 40000003 cycles: 10047823 heartbeat IPC: 3.92676 cumulative IPC: 3.98097 (Simulation time: 0 hr 2 min 37 sec) 
Heartbeat CPU 0 instructions: 50000001 cycles: 12608266 heartbeat IPC: 3.90558 cumulative IPC: 3.96566 (Simulation time: 0 hr 3 min 19 sec) 
Warmup finished CPU 0 instructions: 50000001 cycles: 12608267 cumulative IPC: 3.96566 (Simulation time: 0 hr 3 min 19 sec) 

Warmup complete CPU 0 instructions: 50000001 cycles: 12608267 (Simulation time: 0 hr 3 min 19 sec) 

Heartbeat CPU 0 instructions: 60000002 cycles: 29856781 heartbeat IPC: 0.579761 cumulative IPC: 0.579761 (Simulation time: 0 hr 4 min 27 sec) 
Heartbeat CPU 0 instructions: 70000003 cycles: 59560034 heartbeat IPC: 0.336664 cumulative IPC: 0.42597 (Simulation time: 0 hr 5 min 49 sec) 
Heartbeat CPU 0 instructions: 80000001 cycles: 89288266 heartbeat IPC: 0.336381 cumulative IPC: 0.391237 (Simulation time: 0 hr 7 min 12 sec) 
Heartbeat CPU 0 instructions: 90000000 cycles: 116463407 heartbeat IPC: 0.367984 cumulative IPC: 0.385152 (Simulation time: 0 hr 8 min 31 sec) 
Heartbeat CPU 0 instructions: 100000000 cycles: 145738743 heartbeat IPC: 0.341585 cumulative IPC: 0.375572 (Simulation time: 0 hr 9 min 53 sec) 
Heartbeat CPU 0 instructions: 110000002 cycles: 175128793 heartbeat IPC: 0.340252 cumulative IPC: 0.369185 (Simulation time: 0 hr 11 min 15 sec) 
Heartbeat CPU 0 instructions: 120000000 cycles: 204431420 heartbeat IPC: 0.341267 cumulative IPC: 0.36492 (Simulation time: 0 hr 12 min 38 sec) 
Heartbeat CPU 0 instructions: 130000000 cycles: 234683382 heartbeat IPC: 0.330558 cumulative IPC: 0.360239 (Simulation time: 0 hr 14 min 1 sec) 
Heartbeat CPU 0 instructions: 140000000 cycles: 265022467 heartbeat IPC: 0.329608 cumulative IPC: 0.356557 (Simulation time: 0 hr 15 min 26 sec) 
Heartbeat CPU 0 instructions: 150000002 cycles: 295110709 heartbeat IPC: 0.332356 cumulative IPC: 0.35398 (Simulation time: 0 hr 16 min 48 sec) 
Simulation finished CPU 0 instructions: 100000001 cycles: 282502443 cumulative IPC: 0.35398 (Simulation time: 0 hr 16 min 48 sec) 

Simulation complete CPU 0 instructions: 100000001 cycles: 282502443 (Simulation time: 0 hr 16 min 48 sec) 


ChampSim completed all CPUs

Saving instructions large page distribution to /home/bsc/bsc018186/scratch/itp_asplos25_AE/dump/smt_srv12_ap_srv224_ap_1024i.pdst...
Saving data large page distribution to /home/bsc/bsc018186/scratch/itp_asplos25_AE/dump/smt_srv12_ap_srv224_ap_1024i.pdst...
=== Simulation ===
CPU 0 runs /gpfs/projects/bsc18/MN4/bsc18/romol/ChampSim/traces/qualcomm_srv/smt_srv12_ap_srv224_ap_1024i.champsimtrace.xz

Region of Interest Statistics

CPU 0 cumulative IPC: 0.35398 instructions: 100000001 cycles: 282502443
CPU 0 Branch Prediction Accuracy: 76.3527% MPKI: 44.0973 Average ROB Occupancy at Mispredict: 11.2184
Branch type MPKI
BRANCH_DIRECT_JUMP: 1.33596
BRANCH_INDIRECT: 22.914
BRANCH_CONDITIONAL: 12.8311
BRANCH_DIRECT_CALL: 2.51381
BRANCH_INDIRECT_CALL: 1.13488
BRANCH_RETURN: 3.36757

Instructions large pages: 0
Instructions small pages: 14953
Large page distribution for instructions: 0%

Data large pages: 0
Data small pages: 13161
Large page distribution for data: 0%

cpu0_L1I TOTAL       ACCESS:   39770954  HIT:   31633237  MISS:    8137717  iACCESS:   39770954  iHIT:   31633237  iMISS:    8137717  dACCESS:          0  dHIT:          0  dMISS:          0  itACCESS:          0  itHIT:          0  itMISS:          0  dtACCESS:          0  dtHIT:          0  dtMISS:          0
cpu0_L1I LOAD         ACCESS:   11695719  HIT:    9484564  MISS:    2211155  iACCESS:   11695719  iHIT:    9484564  iMISS:    2211155  dACCESS:          0  dHIT:          0  dMISS:          0  itACCESS:          0  itHIT:          0  itMISS:          0  dtACCESS:          0  dtHIT:          0  dtMISS:          0
cpu0_L1I RFO          ACCESS:          0  HIT:          0  MISS:          0  iACCESS:          0  iHIT:          0  iMISS:          0  dACCESS:          0  dHIT:          0  dMISS:          0  itACCESS:          0  itHIT:          0  itMISS:          0  dtACCESS:          0  dtHIT:          0  dtMISS:          0
cpu0_L1I PREFETCH     ACCESS:   28075235  HIT:   22148673  MISS:    5926562  iACCESS:   28075235  iHIT:   22148673  iMISS:    5926562  dACCESS:          0  dHIT:          0  dMISS:          0  itACCESS:          0  itHIT:          0  itMISS:          0  dtACCESS:          0  dtHIT:          0  dtMISS:          0
cpu0_L1I WRITE        ACCESS:          0  HIT:          0  MISS:          0  iACCESS:          0  iHIT:          0  iMISS:          0  dACCESS:          0  dHIT:          0  dMISS:          0  itACCESS:          0  itHIT:          0  itMISS:          0  dtACCESS:          0  dtHIT:          0  dtMISS:          0
cpu0_L1I TRANSLATION  ACCESS:          0  HIT:          0  MISS:          0  iACCESS:          0  iHIT:          0  iMISS:          0  dACCESS:          0  dHIT:          0  dMISS:          0  itACCESS:          0  itHIT:          0  itMISS:          0  dtACCESS:          0  dtHIT:          0  dtMISS:          0
cpu0_L1I PREFETCH  REQUESTED:   30881924  ISSUED:   30881689  CROSSED:          0  USEFUL:    2081320  USELESS:     716558
cpu0_L1I AVERAGE iMISS LATENCY: 24.0875 cycles
cpu0_L1I AVERAGE dMISS LATENCY: 0 cycles
cpu0_L1I AVERAGE itMISS LATENCY: 0 cycles
cpu0_L1I AVERAGE dtMISS LATENCY: 0 cycles
cpu0_L1I PAGE CROSSINGS (TLB HIT):         0 
cpu0_L1I PAGE CROSSINGS (TLB MISS):         0 
cpu0_L1I AVERAGE MISS LATENCY: 24.0875 cycles
cpu0_ITLB TOTAL       ACCESS:   33528093  HIT:   31450844  MISS:    2077249  iACCESS:   33528093  iHIT:   31450844  iMISS:    2077249  dACCESS:          0  dHIT:          0  dMISS:          0  itACCESS:          0  itHIT:          0  itMISS:          0  dtACCESS:          0  dtHIT:          0  dtMISS:          0
cpu0_ITLB LOAD         ACCESS:   33528093  HIT:   31450844  MISS:    2077249  iACCESS:   33528093  iHIT:   31450844  iMISS:    2077249  dACCESS:          0  dHIT:          0  dMISS:          0  itACCESS:          0  itHIT:          0  itMISS:          0  dtACCESS:          0  dtHIT:          0  dtMISS:          0
cpu0_ITLB RFO          ACCESS:          0  HIT:          0  MISS:          0  iACCESS:          0  iHIT:          0  iMISS:          0  dACCESS:          0  dHIT:          0  dMISS:          0  itACCESS:          0  itHIT:          0  itMISS:          0  dtACCESS:          0  dtHIT:          0  dtMISS:          0
cpu0_ITLB PREFETCH     ACCESS:          0  HIT:          0  MISS:          0  iACCESS:          0  iHIT:          0  iMISS:          0  dACCESS:          0  dHIT:          0  dMISS:          0  itACCESS:          0  itHIT:          0  itMISS:          0  dtACCESS:          0  dtHIT:          0  dtMISS:          0
cpu0_ITLB WRITE        ACCESS:          0  HIT:          0  MISS:          0  iACCESS:          0  iHIT:          0  iMISS:          0  dACCESS:          0  dHIT:          0  dMISS:          0  itACCESS:          0  itHIT:          0  itMISS:          0  dtACCESS:          0  dtHIT:          0  dtMISS:          0
cpu0_ITLB TRANSLATION  ACCESS:          0  HIT:          0  MISS:          0  iACCESS:          0  iHIT:          0  iMISS:          0  dACCESS:          0  dHIT:          0  dMISS:          0  itACCESS:          0  itHIT:          0  itMISS:          0  dtACCESS:          0  dtHIT:          0  dtMISS:          0
cpu0_ITLB PREFETCH  REQUESTED:          0  ISSUED:          0  CROSSED:          0  USEFUL:     366124  USELESS:      75547
cpu0_ITLB AVERAGE iMISS LATENCY: 6.84694 cycles
cpu0_ITLB AVERAGE dMISS LATENCY: 0 cycles
cpu0_ITLB AVERAGE itMISS LATENCY: 0 cycles
cpu0_ITLB AVERAGE dtMISS LATENCY: 0 cycles
cpu0_ITLB PAGE CROSSINGS (TLB HIT):         0 
cpu0_ITLB PAGE CROSSINGS (TLB MISS):         0 
cpu0_ITLB AVERAGE MISS LATENCY: 6.84694 cycles
cpu0_DTLB TOTAL       ACCESS:   29773420  HIT:   25119920  MISS:    4653500  iACCESS:          0  iHIT:          0  iMISS:          0  dACCESS:   29773420  dHIT:   25119920  dMISS:    4653500  itACCESS:          0  itHIT:          0  itMISS:          0  dtACCESS:          0  dtHIT:          0  dtMISS:          0
cpu0_DTLB LOAD         ACCESS:   29773420  HIT:   25119920  MISS:    4653500  iACCESS:          0  iHIT:          0  iMISS:          0  dACCESS:   29773420  dHIT:   25119920  dMISS:    4653500  itACCESS:          0  itHIT:          0  itMISS:          0  dtACCESS:          0  dtHIT:          0  dtMISS:          0
cpu0_DTLB RFO          ACCESS:          0  HIT:          0  MISS:          0  iACCESS:          0  iHIT:          0  iMISS:          0  dACCESS:          0  dHIT:          0  dMISS:          0  itACCESS:          0  itHIT:          0  itMISS:          0  dtACCESS:          0  dtHIT:          0  dtMISS:          0
cpu0_DTLB PREFETCH     ACCESS:          0  HIT:          0  MISS:          0  iACCESS:          0  iHIT:          0  iMISS:          0  dACCESS:          0  dHIT:          0  dMISS:          0  itACCESS:          0  itHIT:          0  itMISS:          0  dtACCESS:          0  dtHIT:          0  dtMISS:          0
cpu0_DTLB WRITE        ACCESS:          0  HIT:          0  MISS:          0  iACCESS:          0  iHIT:          0  iMISS:          0  dACCESS:          0  dHIT:          0  dMISS:          0  itACCESS:          0  itHIT:          0  itMISS:          0  dtACCESS:          0  dtHIT:          0  dtMISS:          0
cpu0_DTLB TRANSLATION  ACCESS:          0  HIT:          0  MISS:          0  iACCESS:          0  iHIT:          0  iMISS:          0  dACCESS:          0  dHIT:          0  dMISS:          0  itACCESS:          0  itHIT:          0  itMISS:          0  dtACCESS:          0  dtHIT:          0  dtMISS:          0
cpu0_DTLB PREFETCH  REQUESTED:          0  ISSUED:          0  CROSSED:          0  USEFUL:          0  USELESS:          0
cpu0_DTLB AVERAGE iMISS LATENCY: 0 cycles
cpu0_DTLB AVERAGE dMISS LATENCY: 20.6075 cycles
cpu0_DTLB AVERAGE itMISS LATENCY: 0 cycles
cpu0_DTLB AVERAGE dtMISS LATENCY: 0 cycles
cpu0_DTLB PAGE CROSSINGS (TLB HIT):         0 
cpu0_DTLB PAGE CROSSINGS (TLB MISS):         0 
cpu0_DTLB AVERAGE MISS LATENCY: 20.6075 cycles
cpu0_STLB TOTAL       ACCESS:    3004218  HIT:    2666581  MISS:     337637  iACCESS:     441676  iHIT:     385837  iMISS:      55839  dACCESS:    2562542  dHIT:    2280744  dMISS:     281798  itACCESS:          0  itHIT:          0  itMISS:          0  dtACCESS:          0  dtHIT:          0  dtMISS:          0
cpu0_STLB LOAD         ACCESS:    3004218  HIT:    2666581  MISS:     337637  iACCESS:     441676  iHIT:     385837  iMISS:      55839  dACCESS:    2562542  dHIT:    2280744  dMISS:     281798  itACCESS:          0  itHIT:          0  itMISS:          0  dtACCESS:          0  dtHIT:          0  dtMISS:          0
cpu0_STLB RFO          ACCESS:          0  HIT:          0  MISS:          0  iACCESS:          0  iHIT:          0  iMISS:          0  dACCESS:          0  dHIT:          0  dMISS:          0  itACCESS:          0  itHIT:          0  itMISS:          0  dtACCESS:          0  dtHIT:          0  dtMISS:          0
cpu0_STLB PREFETCH     ACCESS:          0  HIT:          0  MISS:          0  iACCESS:          0  iHIT:          0  iMISS:          0  dACCESS:          0  dHIT:          0  dMISS:          0  itACCESS:          0  itHIT:          0  itMISS:          0  dtACCESS:          0  dtHIT:          0  dtMISS:          0
cpu0_STLB WRITE        ACCESS:          0  HIT:          0  MISS:          0  iACCESS:          0  iHIT:          0  iMISS:          0  dACCESS:          0  dHIT:          0  dMISS:          0  itACCESS:          0  itHIT:          0  itMISS:          0  dtACCESS:          0  dtHIT:          0  dtMISS:          0
cpu0_STLB TRANSLATION  ACCESS:          0  HIT:          0  MISS:          0  iACCESS:          0  iHIT:          0  iMISS:          0  dACCESS:          0  dHIT:          0  dMISS:          0  itACCESS:          0  itHIT:          0  itMISS:          0  dtACCESS:          0  dtHIT:          0  dtMISS:          0
cpu0_STLB PREFETCH  REQUESTED:          0  ISSUED:          0  CROSSED:          0  USEFUL:          0  USELESS:          0
cpu0_STLB AVERAGE iMISS LATENCY: 31.8324 cycles
cpu0_STLB AVERAGE dMISS LATENCY: 222.651 cycles
cpu0_STLB AVERAGE itMISS LATENCY: 0 cycles
cpu0_STLB AVERAGE dtMISS LATENCY: 0 cycles
cpu0_STLB PAGE CROSSINGS (TLB HIT):         0 
cpu0_STLB PAGE CROSSINGS (TLB MISS):         0 
cpu0_STLB AVERAGE MISS LATENCY: 254.483 cycles
cpu0_L1D TOTAL       ACCESS:   45876755  HIT:   39566745  MISS:    6310010  iACCESS:          0  iHIT:          0  iMISS:          0  dACCESS:   45356165  dHIT:   39540505  dMISS:    5815660  itACCESS:      65655  itHIT:       5021  itMISS:      60634  dtACCESS:     454935  dtHIT:      21219  dtMISS:     433716
cpu0_L1D LOAD         ACCESS:   21222449  HIT:   18261901  MISS:    2960548  iACCESS:          0  iHIT:          0  iMISS:          0  dACCESS:   21222449  dHIT:   18261901  dMISS:    2960548  itACCESS:          0  itHIT:          0  itMISS:          0  dtACCESS:          0  dtHIT:          0  dtMISS:          0
cpu0_L1D RFO          ACCESS:          0  HIT:          0  MISS:          0  iACCESS:          0  iHIT:          0  iMISS:          0  dACCESS:          0  dHIT:          0  dMISS:          0  itACCESS:          0  itHIT:          0  itMISS:          0  dtACCESS:          0  dtHIT:          0  dtMISS:          0
cpu0_L1D PREFETCH     ACCESS:   14085907  HIT:   11780621  MISS:    2305286  iACCESS:          0  iHIT:          0  iMISS:          0  dACCESS:   14085907  dHIT:   11780621  dMISS:    2305286  itACCESS:          0  itHIT:          0  itMISS:          0  dtACCESS:          0  dtHIT:          0  dtMISS:          0
cpu0_L1D WRITE        ACCESS:   10047809  HIT:    9497983  MISS:     549826  iACCESS:          0  iHIT:          0  iMISS:          0  dACCESS:   10047809  dHIT:    9497983  dMISS:     549826  itACCESS:          0  itHIT:          0  itMISS:          0  dtACCESS:          0  dtHIT:          0  dtMISS:          0
cpu0_L1D TRANSLATION  ACCESS:     520590  HIT:      26240  MISS:     494350  iACCESS:          0  iHIT:          0  iMISS:          0  dACCESS:          0  dHIT:          0  dMISS:          0  itACCESS:      65655  itHIT:       5021  itMISS:      60634  dtACCESS:     454935  dtHIT:      21219  dtMISS:     433716
cpu0_L1D PREFETCH  REQUESTED:   21222449  ISSUED:   18719087  CROSSED:          0  USEFUL:     343612  USELESS:    1023082
cpu0_L1D AVERAGE iMISS LATENCY: 0 cycles
cpu0_L1D AVERAGE dMISS LATENCY: 42.0569 cycles
cpu0_L1D AVERAGE itMISS LATENCY: 1.59671 cycles
cpu0_L1D AVERAGE dtMISS LATENCY: 11.0095 cycles
cpu0_L1D PAGE CROSSINGS (TLB HIT):         0 
cpu0_L1D PAGE CROSSINGS (TLB MISS):         0 
cpu0_L1D AVERAGE MISS LATENCY: 54.663 cycles
cpu0_L2C TOTAL       ACCESS:    9061416  HIT:    4920727  MISS:    4140689  iACCESS:    3548006  iHIT:    2142844  iMISS:    1405162  dACCESS:    5048105  dHIT:    2715894  dMISS:    2332211  itACCESS:      60121  itHIT:       8879  itMISS:      51242  dtACCESS:     405184  dtHIT:      53110  dtMISS:     352074
cpu0_L2C LOAD         ACCESS:    2685559  HIT:    1718013  MISS:     967546  iACCESS:     786248  iHIT:     495596  iMISS:     290652  dACCESS:    1899311  dHIT:    1222417  dMISS:     676894  itACCESS:          0  itHIT:          0  itMISS:          0  dtACCESS:          0  dtHIT:          0  dtMISS:          0
cpu0_L2C RFO          ACCESS:     217155  HIT:      96172  MISS:     120983  iACCESS:          0  iHIT:          0  iMISS:          0  dACCESS:     217155  dHIT:      96172  dMISS:     120983  itACCESS:          0  itHIT:          0  itMISS:          0  dtACCESS:          0  dtHIT:          0  dtMISS:          0
cpu0_L2C PREFETCH     ACCESS:    5363631  HIT:    2718342  MISS:    2645289  iACCESS:    2761758  iHIT:    1647248  iMISS:    1114510  dACCESS:    2601873  dHIT:    1071094  dMISS:    1530779  itACCESS:          0  itHIT:          0  itMISS:          0  dtACCESS:          0  dtHIT:          0  dtMISS:          0
cpu0_L2C WRITE        ACCESS:     329766  HIT:     326211  MISS:       3555  iACCESS:          0  iHIT:          0  iMISS:          0  dACCESS:     329766  dHIT:     326211  dMISS:       3555  itACCESS:          0  itHIT:          0  itMISS:          0  dtACCESS:          0  dtHIT:          0  dtMISS:          0
cpu0_L2C TRANSLATION  ACCESS:     465305  HIT:      61989  MISS:     403316  iACCESS:          0  iHIT:          0  iMISS:          0  dACCESS:          0  dHIT:          0  dMISS:          0  itACCESS:      60121  itHIT:       8879  itMISS:      51242  dtACCESS:     405184  dtHIT:      53110  dtMISS:     352074
cpu0_L2C PREFETCH  REQUESTED:    1455141  ISSUED:    1455111  CROSSED:          0  USEFUL:     344777  USELESS:     306923
cpu0_L2C AVERAGE iMISS LATENCY: 40.1875 cycles
cpu0_L2C AVERAGE dMISS LATENCY: 76.5167 cycles
cpu0_L2C AVERAGE itMISS LATENCY: 2.28979 cycles
cpu0_L2C AVERAGE dtMISS LATENCY: 15.8059 cycles
cpu0_L2C PAGE CROSSINGS (TLB HIT):         0 
cpu0_L2C PAGE CROSSINGS (TLB MISS):         0 
cpu0_L2C AVERAGE MISS LATENCY: 134.8 cycles
LLC TOTAL       ACCESS:    4134046  HIT:    1294999  MISS:    2839047  iACCESS:    1319293  iHIT:     420896  iMISS:     898397  dACCESS:    2411437  dHIT:     824388  dMISS:    1587049  itACCESS:      51242  itHIT:       3589  itMISS:      47653  dtACCESS:     352074  dtHIT:      46126  dtMISS:     305948
LLC LOAD         ACCESS:     962763  HIT:     319620  MISS:     643143  iACCESS:     289463  iHIT:     100096  iMISS:     189367  dACCESS:     673300  dHIT:     219524  dMISS:     453776  itACCESS:          0  itHIT:          0  itMISS:          0  dtACCESS:          0  dtHIT:          0  dtMISS:          0
LLC RFO          ACCESS:     120974  HIT:      39395  MISS:      81579  iACCESS:          0  iHIT:          0  iMISS:          0  dACCESS:     120974  dHIT:      39395  dMISS:      81579  itACCESS:          0  itHIT:          0  itMISS:          0  dtACCESS:          0  dtHIT:          0  dtMISS:          0
LLC PREFETCH     ACCESS:    2450398  HIT:     698956  MISS:    1751442  iACCESS:    1029830  iHIT:     320800  iMISS:     709030  dACCESS:    1420568  dHIT:     378156  dMISS:    1042412  itACCESS:          0  itHIT:          0  itMISS:          0  dtACCESS:          0  dtHIT:          0  dtMISS:          0
LLC WRITE        ACCESS:     196595  HIT:     187313  MISS:       9282  iACCESS:          0  iHIT:          0  iMISS:          0  dACCESS:     196595  dHIT:     187313  dMISS:       9282  itACCESS:          0  itHIT:          0  itMISS:          0  dtACCESS:          0  dtHIT:          0  dtMISS:          0
LLC TRANSLATION  ACCESS:     403316  HIT:      49715  MISS:     353601  iACCESS:          0  iHIT:          0  iMISS:          0  dACCESS:          0  dHIT:          0  dMISS:          0  itACCESS:      51242  itHIT:       3589  itMISS:      47653  dtACCESS:     352074  dtHIT:      46126  dtMISS:     305948
LLC PREFETCH  REQUESTED:          0  ISSUED:          0  CROSSED:          0  USEFUL:          0  USELESS:          0
LLC AVERAGE iMISS LATENCY: 49.4631 cycles
LLC AVERAGE dMISS LATENCY: 96.8267 cycles
LLC AVERAGE itMISS LATENCY: 2.98161 cycles
LLC AVERAGE dtMISS LATENCY: 20.6031 cycles
LLC PAGE CROSSINGS (TLB HIT):         0 
LLC PAGE CROSSINGS (TLB MISS):         0 
LLC AVERAGE MISS LATENCY: 169.875 cycles

PageTableWalker TOTAL       ACCESS:     150534  
PageTableWalker AVERAGE LATENCY: 6.9048 cycles
PageTableWalker TOTAL LATENCY: 1039407 cycles

DRAM Statistics
Channel 0
 RQ ROW_BUFFER_HIT:     651483
  ROW_BUFFER_MISS:    2168994
 AVG DBUS CONGESTED CYCLE:    3.64673
 WQ ROW_BUFFER_HIT:      59837
  ROW_BUFFER_MISS:      48666  FULL:          0

