last_page:0x200000000000000
VMEM_RES_CAP:0x100000
PAGE_SIZE:4096
LOG2_PAGE_SIZE:12
LOG2_PAGE_TABLE_SIZE:9
page_table_levels:5
WARNING: physical memory size is smaller than virtual memory size
FDiP enabled with aggresivity 16

*** ChampSim Multicore Out-of-Order Simulator ***

Warmup Instructions: 50000000
Simulation Instructions: 100000000
Number of CPUs: 1
Small page size: 4096
Large page size: 2097152

CPU 0 Bimodal branch predictor
Basic BTB sets: 1024 ways: 8 indirect buffer size: 4096 RAS size: 64
Instruction page size distrubution: 0
Loading instruction page size distribution from /home/bsc/bsc018186/scratch/itp_asplos25_AE/dump/smt_srv207_ap_srv259_ap_1024i.pdst
Data page size distrubution: 0
Loading data page size distribution from /home/bsc/bsc018186/scratch/itp_asplos25_AE/dump/smt_srv207_ap_srv259_ap_1024i.pdst
cpu0_L2C IP-based stride prefetcher
cpu0_L2C is using PTP replacement policy:
	TLB_STRESS_THRESHOLD:0
	PTE_EVICTION_RATIO:0
cpu0_L1D next line prefetcher
CHiRPing...
cpu0_L1I next line prefetcher
Off-chip DRAM Size: 4 GiB Channels: 1 Width: 64-bit Data Rate: 3200 MT/s
Heartbeat CPU 0 instructions: 10000001 cycles: 2500547 heartbeat IPC: 3.99913 cumulative IPC: 3.99913 (Simulation time: 0 hr 0 min 35 sec) 
Heartbeat CPU 0 instructions: 20000002 cycles: 5000870 heartbeat IPC: 3.99949 cumulative IPC: 3.99931 (Simulation time: 0 hr 1 min 12 sec) 
Heartbeat CPU 0 instructions: 30000003 cycles: 7501082 heartbeat IPC: 3.99967 cumulative IPC: 3.99943 (Simulation time: 0 hr 1 min 49 sec) 
Heartbeat CPU 0 instructions: 40000002 cycles: 10001562 heartbeat IPC: 3.99924 cumulative IPC: 3.99938 (Simulation time: 0 hr 2 min 28 sec) 
Heartbeat CPU 0 instructions: 50000003 cycles: 12501895 heartbeat IPC: 3.99947 cumulative IPC: 3.9994 (Simulation time: 0 hr 3 min 6 sec) 
Warmup finished CPU 0 instructions: 50000003 cycles: 12501896 cumulative IPC: 3.9994 (Simulation time: 0 hr 3 min 6 sec) 

Warmup complete CPU 0 instructions: 50000003 cycles: 12501896 (Simulation time: 0 hr 3 min 6 sec) 

Heartbeat CPU 0 instructions: 60000000 cycles: 41764013 heartbeat IPC: 0.341739 cumulative IPC: 0.341739 (Simulation time: 0 hr 4 min 27 sec) 
Heartbeat CPU 0 instructions: 70000002 cycles: 72139341 heartbeat IPC: 0.329215 cumulative IPC: 0.33536 (Simulation time: 0 hr 5 min 49 sec) 
Heartbeat CPU 0 instructions: 80000002 cycles: 102068580 heartbeat IPC: 0.334122 cumulative IPC: 0.334946 (Simulation time: 0 hr 7 min 11 sec) 
Heartbeat CPU 0 instructions: 90000000 cycles: 131626926 heartbeat IPC: 0.338314 cumulative IPC: 0.335782 (Simulation time: 0 hr 8 min 32 sec) 
Heartbeat CPU 0 instructions: 100000000 cycles: 161958944 heartbeat IPC: 0.329685 cumulative IPC: 0.334545 (Simulation time: 0 hr 9 min 55 sec) 
Heartbeat CPU 0 instructions: 110000002 cycles: 192337350 heartbeat IPC: 0.329182 cumulative IPC: 0.333639 (Simulation time: 0 hr 11 min 17 sec) 
Heartbeat CPU 0 instructions: 120000001 cycles: 220597660 heartbeat IPC: 0.353854 cumulative IPC: 0.336384 (Simulation time: 0 hr 12 min 37 sec) 
Heartbeat CPU 0 instructions: 130000002 cycles: 249117547 heartbeat IPC: 0.350633 cumulative IPC: 0.338102 (Simulation time: 0 hr 13 min 57 sec) 
Heartbeat CPU 0 instructions: 140000002 cycles: 278802090 heartbeat IPC: 0.336876 cumulative IPC: 0.337965 (Simulation time: 0 hr 15 min 19 sec) 
Heartbeat CPU 0 instructions: 150000000 cycles: 309242591 heartbeat IPC: 0.32851 cumulative IPC: 0.336995 (Simulation time: 0 hr 16 min 42 sec) 
Simulation finished CPU 0 instructions: 100000002 cycles: 296740697 cumulative IPC: 0.336995 (Simulation time: 0 hr 16 min 42 sec) 

Simulation complete CPU 0 instructions: 100000002 cycles: 296740697 (Simulation time: 0 hr 16 min 42 sec) 


ChampSim completed all CPUs

Saving instructions large page distribution to /home/bsc/bsc018186/scratch/itp_asplos25_AE/dump/smt_srv207_ap_srv259_ap_1024i.pdst...
Saving data large page distribution to /home/bsc/bsc018186/scratch/itp_asplos25_AE/dump/smt_srv207_ap_srv259_ap_1024i.pdst...
=== Simulation ===
CPU 0 runs /gpfs/projects/bsc18/MN4/bsc18/romol/ChampSim/traces/qualcomm_srv/smt_srv207_ap_srv259_ap_1024i.champsimtrace.xz

Region of Interest Statistics

CPU 0 cumulative IPC: 0.336995 instructions: 100000002 cycles: 296740697
CPU 0 Branch Prediction Accuracy: 75.9618% MPKI: 43.2597 Average ROB Occupancy at Mispredict: 11.4736
Branch type MPKI
BRANCH_DIRECT_JUMP: 1.33408
BRANCH_INDIRECT: 23.4031
BRANCH_CONDITIONAL: 11.6055
BRANCH_DIRECT_CALL: 2.45749
BRANCH_INDIRECT_CALL: 1.00685
BRANCH_RETURN: 3.4527

Instructions large pages: 0
Instructions small pages: 11193
Large page distribution for instructions: 0%

Data large pages: 0
Data small pages: 9904
Large page distribution for data: 0%

cpu0_L1I TOTAL       ACCESS:   38708026  HIT:   29919822  MISS:    8788204  iACCESS:   38708026  iHIT:   29919822  iMISS:    8788204  dACCESS:          0  dHIT:          0  dMISS:          0  itACCESS:          0  itHIT:          0  itMISS:          0  dtACCESS:          0  dtHIT:          0  dtMISS:          0
cpu0_L1I LOAD         ACCESS:   11507475  HIT:    9084878  MISS:    2422597  iACCESS:   11507475  iHIT:    9084878  iMISS:    2422597  dACCESS:          0  dHIT:          0  dMISS:          0  itACCESS:          0  itHIT:          0  itMISS:          0  dtACCESS:          0  dtHIT:          0  dtMISS:          0
cpu0_L1I RFO          ACCESS:          0  HIT:          0  MISS:          0  iACCESS:          0  iHIT:          0  iMISS:          0  dACCESS:          0  dHIT:          0  dMISS:          0  itACCESS:          0  itHIT:          0  itMISS:          0  dtACCESS:          0  dtHIT:          0  dtMISS:          0
cpu0_L1I PREFETCH     ACCESS:   27200551  HIT:   20834944  MISS:    6365607  iACCESS:   27200551  iHIT:   20834944  iMISS:    6365607  dACCESS:          0  dHIT:          0  dMISS:          0  itACCESS:          0  itHIT:          0  itMISS:          0  dtACCESS:          0  dtHIT:          0  dtMISS:          0
cpu0_L1I WRITE        ACCESS:          0  HIT:          0  MISS:          0  iACCESS:          0  iHIT:          0  iMISS:          0  dACCESS:          0  dHIT:          0  dMISS:          0  itACCESS:          0  itHIT:          0  itMISS:          0  dtACCESS:          0  dtHIT:          0  dtMISS:          0
cpu0_L1I TRANSLATION  ACCESS:          0  HIT:          0  MISS:          0  iACCESS:          0  iHIT:          0  iMISS:          0  dACCESS:          0  dHIT:          0  dMISS:          0  itACCESS:          0  itHIT:          0  itMISS:          0  dtACCESS:          0  dtHIT:          0  dtMISS:          0
cpu0_L1I PREFETCH  REQUESTED:   29975246  ISSUED:   29975130  CROSSED:          0  USEFUL:    2199458  USELESS:     791700
cpu0_L1I AVERAGE iMISS LATENCY: 22.4894 cycles
cpu0_L1I AVERAGE dMISS LATENCY: 0 cycles
cpu0_L1I AVERAGE itMISS LATENCY: 0 cycles
cpu0_L1I AVERAGE dtMISS LATENCY: 0 cycles
cpu0_L1I PAGE CROSSINGS (TLB HIT):         0 
cpu0_L1I PAGE CROSSINGS (TLB MISS):         0 
cpu0_L1I AVERAGE MISS LATENCY: 22.4894 cycles
cpu0_ITLB TOTAL       ACCESS:   32758288  HIT:   30458855  MISS:    2299433  iACCESS:   32758288  iHIT:   30458855  iMISS:    2299433  dACCESS:          0  dHIT:          0  dMISS:          0  itACCESS:          0  itHIT:          0  itMISS:          0  dtACCESS:          0  dtHIT:          0  dtMISS:          0
cpu0_ITLB LOAD         ACCESS:   32758288  HIT:   30458855  MISS:    2299433  iACCESS:   32758288  iHIT:   30458855  iMISS:    2299433  dACCESS:          0  dHIT:          0  dMISS:          0  itACCESS:          0  itHIT:          0  itMISS:          0  dtACCESS:          0  dtHIT:          0  dtMISS:          0
cpu0_ITLB RFO          ACCESS:          0  HIT:          0  MISS:          0  iACCESS:          0  iHIT:          0  iMISS:          0  dACCESS:          0  dHIT:          0  dMISS:          0  itACCESS:          0  itHIT:          0  itMISS:          0  dtACCESS:          0  dtHIT:          0  dtMISS:          0
cpu0_ITLB PREFETCH     ACCESS:          0  HIT:          0  MISS:          0  iACCESS:          0  iHIT:          0  iMISS:          0  dACCESS:          0  dHIT:          0  dMISS:          0  itACCESS:          0  itHIT:          0  itMISS:          0  dtACCESS:          0  dtHIT:          0  dtMISS:          0
cpu0_ITLB WRITE        ACCESS:          0  HIT:          0  MISS:          0  iACCESS:          0  iHIT:          0  iMISS:          0  dACCESS:          0  dHIT:          0  dMISS:          0  itACCESS:          0  itHIT:          0  itMISS:          0  dtACCESS:          0  dtHIT:          0  dtMISS:          0
cpu0_ITLB TRANSLATION  ACCESS:          0  HIT:          0  MISS:          0  iACCESS:          0  iHIT:          0  iMISS:          0  dACCESS:          0  dHIT:          0  dMISS:          0  itACCESS:          0  itHIT:          0  itMISS:          0  dtACCESS:          0  dtHIT:          0  dtMISS:          0
cpu0_ITLB PREFETCH  REQUESTED:          0  ISSUED:          0  CROSSED:          0  USEFUL:     394254  USELESS:      84659
cpu0_ITLB AVERAGE iMISS LATENCY: 10.1193 cycles
cpu0_ITLB AVERAGE dMISS LATENCY: 0 cycles
cpu0_ITLB AVERAGE itMISS LATENCY: 0 cycles
cpu0_ITLB AVERAGE dtMISS LATENCY: 0 cycles
cpu0_ITLB PAGE CROSSINGS (TLB HIT):         0 
cpu0_ITLB PAGE CROSSINGS (TLB MISS):         0 
cpu0_ITLB AVERAGE MISS LATENCY: 10.1193 cycles
cpu0_DTLB TOTAL       ACCESS:   29129449  HIT:   25537115  MISS:    3592334  iACCESS:          0  iHIT:          0  iMISS:          0  dACCESS:   29129449  dHIT:   25537115  dMISS:    3592334  itACCESS:          0  itHIT:          0  itMISS:          0  dtACCESS:          0  dtHIT:          0  dtMISS:          0
cpu0_DTLB LOAD         ACCESS:   29129449  HIT:   25537115  MISS:    3592334  iACCESS:          0  iHIT:          0  iMISS:          0  dACCESS:   29129449  dHIT:   25537115  dMISS:    3592334  itACCESS:          0  itHIT:          0  itMISS:          0  dtACCESS:          0  dtHIT:          0  dtMISS:          0
cpu0_DTLB RFO          ACCESS:          0  HIT:          0  MISS:          0  iACCESS:          0  iHIT:          0  iMISS:          0  dACCESS:          0  dHIT:          0  dMISS:          0  itACCESS:          0  itHIT:          0  itMISS:          0  dtACCESS:          0  dtHIT:          0  dtMISS:          0
cpu0_DTLB PREFETCH     ACCESS:          0  HIT:          0  MISS:          0  iACCESS:          0  iHIT:          0  iMISS:          0  dACCESS:          0  dHIT:          0  dMISS:          0  itACCESS:          0  itHIT:          0  itMISS:          0  dtACCESS:          0  dtHIT:          0  dtMISS:          0
cpu0_DTLB WRITE        ACCESS:          0  HIT:          0  MISS:          0  iACCESS:          0  iHIT:          0  iMISS:          0  dACCESS:          0  dHIT:          0  dMISS:          0  itACCESS:          0  itHIT:          0  itMISS:          0  dtACCESS:          0  dtHIT:          0  dtMISS:          0
cpu0_DTLB TRANSLATION  ACCESS:          0  HIT:          0  MISS:          0  iACCESS:          0  iHIT:          0  iMISS:          0  dACCESS:          0  dHIT:          0  dMISS:          0  itACCESS:          0  itHIT:          0  itMISS:          0  dtACCESS:          0  dtHIT:          0  dtMISS:          0
cpu0_DTLB PREFETCH  REQUESTED:          0  ISSUED:          0  CROSSED:          0  USEFUL:          0  USELESS:          0
cpu0_DTLB AVERAGE iMISS LATENCY: 0 cycles
cpu0_DTLB AVERAGE dMISS LATENCY: 25.844 cycles
cpu0_DTLB AVERAGE itMISS LATENCY: 0 cycles
cpu0_DTLB AVERAGE dtMISS LATENCY: 0 cycles
cpu0_DTLB PAGE CROSSINGS (TLB HIT):         0 
cpu0_DTLB PAGE CROSSINGS (TLB MISS):         0 
cpu0_DTLB AVERAGE MISS LATENCY: 25.844 cycles
cpu0_STLB TOTAL       ACCESS:    2574833  HIT:    2194021  MISS:     380812  iACCESS:     478914  iHIT:     370132  iMISS:     108782  dACCESS:    2095919  dHIT:    1823889  dMISS:     272030  itACCESS:          0  itHIT:          0  itMISS:          0  dtACCESS:          0  dtHIT:          0  dtMISS:          0
cpu0_STLB LOAD         ACCESS:    2574833  HIT:    2194021  MISS:     380812  iACCESS:     478914  iHIT:     370132  iMISS:     108782  dACCESS:    2095919  dHIT:    1823889  dMISS:     272030  itACCESS:          0  itHIT:          0  itMISS:          0  dtACCESS:          0  dtHIT:          0  dtMISS:          0
cpu0_STLB RFO          ACCESS:          0  HIT:          0  MISS:          0  iACCESS:          0  iHIT:          0  iMISS:          0  dACCESS:          0  dHIT:          0  dMISS:          0  itACCESS:          0  itHIT:          0  itMISS:          0  dtACCESS:          0  dtHIT:          0  dtMISS:          0
cpu0_STLB PREFETCH     ACCESS:          0  HIT:          0  MISS:          0  iACCESS:          0  iHIT:          0  iMISS:          0  dACCESS:          0  dHIT:          0  dMISS:          0  itACCESS:          0  itHIT:          0  itMISS:          0  dtACCESS:          0  dtHIT:          0  dtMISS:          0
cpu0_STLB WRITE        ACCESS:          0  HIT:          0  MISS:          0  iACCESS:          0  iHIT:          0  iMISS:          0  dACCESS:          0  dHIT:          0  dMISS:          0  itACCESS:          0  itHIT:          0  itMISS:          0  dtACCESS:          0  dtHIT:          0  dtMISS:          0
cpu0_STLB TRANSLATION  ACCESS:          0  HIT:          0  MISS:          0  iACCESS:          0  iHIT:          0  iMISS:          0  dACCESS:          0  dHIT:          0  dMISS:          0  itACCESS:          0  itHIT:          0  itMISS:          0  dtACCESS:          0  dtHIT:          0  dtMISS:          0
cpu0_STLB PREFETCH  REQUESTED:          0  ISSUED:          0  CROSSED:          0  USEFUL:          0  USELESS:          0
cpu0_STLB AVERAGE iMISS LATENCY: 51.0653 cycles
cpu0_STLB AVERAGE dMISS LATENCY: 199.468 cycles
cpu0_STLB AVERAGE itMISS LATENCY: 0 cycles
cpu0_STLB AVERAGE dtMISS LATENCY: 0 cycles
cpu0_STLB PAGE CROSSINGS (TLB HIT):         0 
cpu0_STLB PAGE CROSSINGS (TLB MISS):         0 
cpu0_STLB AVERAGE MISS LATENCY: 250.533 cycles
cpu0_L1D TOTAL       ACCESS:   45550951  HIT:   39497133  MISS:    6053818  iACCESS:          0  iHIT:          0  iMISS:          0  dACCESS:   44989355  dHIT:   39466068  dMISS:    5523287  itACCESS:     122855  itHIT:      12022  itMISS:     110833  dtACCESS:     438741  dtHIT:      19043  dtMISS:     419698
cpu0_L1D LOAD         ACCESS:   20641187  HIT:   18144296  MISS:    2496891  iACCESS:          0  iHIT:          0  iMISS:          0  dACCESS:   20641187  dHIT:   18144296  dMISS:    2496891  itACCESS:          0  itHIT:          0  itMISS:          0  dtACCESS:          0  dtHIT:          0  dtMISS:          0
cpu0_L1D RFO          ACCESS:          0  HIT:          0  MISS:          0  iACCESS:          0  iHIT:          0  iMISS:          0  dACCESS:          0  dHIT:          0  dMISS:          0  itACCESS:          0  itHIT:          0  itMISS:          0  dtACCESS:          0  dtHIT:          0  dtMISS:          0
cpu0_L1D PREFETCH     ACCESS:   14259318  HIT:   11823649  MISS:    2435669  iACCESS:          0  iHIT:          0  iMISS:          0  dACCESS:   14259318  dHIT:   11823649  dMISS:    2435669  itACCESS:          0  itHIT:          0  itMISS:          0  dtACCESS:          0  dtHIT:          0  dtMISS:          0
cpu0_L1D WRITE        ACCESS:   10088850  HIT:    9498123  MISS:     590727  iACCESS:          0  iHIT:          0  iMISS:          0  dACCESS:   10088850  dHIT:    9498123  dMISS:     590727  itACCESS:          0  itHIT:          0  itMISS:          0  dtACCESS:          0  dtHIT:          0  dtMISS:          0
cpu0_L1D TRANSLATION  ACCESS:     561596  HIT:      31065  MISS:     530531  iACCESS:          0  iHIT:          0  iMISS:          0  dACCESS:          0  dHIT:          0  dMISS:          0  itACCESS:     122855  itHIT:      12022  itMISS:     110833  dtACCESS:     438741  dtHIT:      19043  dtMISS:     419698
cpu0_L1D PREFETCH  REQUESTED:   20641187  ISSUED:   18793695  CROSSED:          0  USEFUL:     375076  USELESS:     951845
cpu0_L1D AVERAGE iMISS LATENCY: 0 cycles
cpu0_L1D AVERAGE dMISS LATENCY: 49.4818 cycles
cpu0_L1D AVERAGE itMISS LATENCY: 3.04109 cycles
cpu0_L1D AVERAGE dtMISS LATENCY: 11.7784 cycles
cpu0_L1D PAGE CROSSINGS (TLB HIT):         0 
cpu0_L1D PAGE CROSSINGS (TLB MISS):         0 
cpu0_L1D AVERAGE MISS LATENCY: 64.3013 cycles
cpu0_L2C TOTAL       ACCESS:    8721506  HIT:    4274976  MISS:    4446530  iACCESS:    3827271  iHIT:    2359279  iMISS:    1467992  dACCESS:    4397711  dHIT:    1858542  dMISS:    2539169  itACCESS:     110747  itHIT:      17163  itMISS:      93584  dtACCESS:     385777  dtHIT:      39992  dtMISS:     345785
cpu0_L2C LOAD         ACCESS:    2121593  HIT:    1035336  MISS:    1086257  iACCESS:     871319  iHIT:     560536  iMISS:     310783  dACCESS:    1250274  dHIT:     474800  dMISS:     775474  itACCESS:          0  itHIT:          0  itMISS:          0  dtACCESS:          0  dtHIT:          0  dtMISS:          0
cpu0_L2C RFO          ACCESS:     224272  HIT:      90101  MISS:     134171  iACCESS:          0  iHIT:          0  iMISS:          0  dACCESS:     224272  dHIT:      90101  dMISS:     134171  itACCESS:          0  itHIT:          0  itMISS:          0  dtACCESS:          0  dtHIT:          0  dtMISS:          0
cpu0_L2C PREFETCH     ACCESS:    5533310  HIT:    2750605  MISS:    2782705  iACCESS:    2955952  iHIT:    1798743  iMISS:    1157209  dACCESS:    2577358  dHIT:     951862  dMISS:    1625496  itACCESS:          0  itHIT:          0  itMISS:          0  dtACCESS:          0  dtHIT:          0  dtMISS:          0
cpu0_L2C WRITE        ACCESS:     345807  HIT:     341779  MISS:       4028  iACCESS:          0  iHIT:          0  iMISS:          0  dACCESS:     345807  dHIT:     341779  dMISS:       4028  itACCESS:          0  itHIT:          0  itMISS:          0  dtACCESS:          0  dtHIT:          0  dtMISS:          0
cpu0_L2C TRANSLATION  ACCESS:     496524  HIT:      57155  MISS:     439369  iACCESS:          0  iHIT:          0  iMISS:          0  dACCESS:          0  dHIT:          0  dMISS:          0  itACCESS:     110747  itHIT:      17163  itMISS:      93584  dtACCESS:     385777  dtHIT:      39992  dtMISS:     345785
cpu0_L2C PREFETCH  REQUESTED:    1507811  ISSUED:    1507811  CROSSED:          0  USEFUL:     344856  USELESS:     305125
cpu0_L2C AVERAGE iMISS LATENCY: 37.072 cycles
cpu0_L2C AVERAGE dMISS LATENCY: 80.5464 cycles
cpu0_L2C AVERAGE itMISS LATENCY: 3.8944 cycles
cpu0_L2C AVERAGE dtMISS LATENCY: 15.1722 cycles
cpu0_L2C PAGE CROSSINGS (TLB HIT):         0 
cpu0_L2C PAGE CROSSINGS (TLB MISS):         0 
cpu0_L2C AVERAGE MISS LATENCY: 136.685 cycles
LLC TOTAL       ACCESS:    4465382  HIT:    1461781  MISS:    3003601  iACCESS:    1391068  iHIT:     522433  iMISS:     868635  dACCESS:    2634945  dHIT:     897659  dMISS:    1737286  itACCESS:      93584  itHIT:       7027  itMISS:      86557  dtACCESS:     345785  dtHIT:      34662  dtMISS:     311123
LLC LOAD         ACCESS:    1078024  HIT:     356212  MISS:     721812  iACCESS:     309652  iHIT:     124026  iMISS:     185626  dACCESS:     768372  dHIT:     232186  dMISS:     536186  itACCESS:          0  itHIT:          0  itMISS:          0  dtACCESS:          0  dtHIT:          0  dtMISS:          0
LLC RFO          ACCESS:     134166  HIT:      40599  MISS:      93567  iACCESS:          0  iHIT:          0  iMISS:          0  dACCESS:     134166  dHIT:      40599  dMISS:      93567  itACCESS:          0  itHIT:          0  itMISS:          0  dtACCESS:          0  dtHIT:          0  dtMISS:          0
LLC PREFETCH     ACCESS:    2603806  HIT:     823167  MISS:    1780639  iACCESS:    1081416  iHIT:     398407  iMISS:     683009  dACCESS:    1522390  dHIT:     424760  dMISS:    1097630  itACCESS:          0  itHIT:          0  itMISS:          0  dtACCESS:          0  dtHIT:          0  dtMISS:          0
LLC WRITE        ACCESS:     210017  HIT:     200114  MISS:       9903  iACCESS:          0  iHIT:          0  iMISS:          0  dACCESS:     210017  dHIT:     200114  dMISS:       9903  itACCESS:          0  itHIT:          0  itMISS:          0  dtACCESS:          0  dtHIT:          0  dtMISS:          0
LLC TRANSLATION  ACCESS:     439369  HIT:      41689  MISS:     397680  iACCESS:          0  iHIT:          0  iMISS:          0  dACCESS:          0  dHIT:          0  dMISS:          0  itACCESS:      93584  itHIT:       7027  itMISS:      86557  dtACCESS:     345785  dtHIT:      34662  dtMISS:     311123
LLC PREFETCH  REQUESTED:          0  ISSUED:          0  CROSSED:          0  USEFUL:          0  USELESS:          0
LLC AVERAGE iMISS LATENCY: 45.7779 cycles
LLC AVERAGE dMISS LATENCY: 104.352 cycles
LLC AVERAGE itMISS LATENCY: 5.14735 cycles
LLC AVERAGE dtMISS LATENCY: 20.184 cycles
LLC PAGE CROSSINGS (TLB HIT):         0 
LLC PAGE CROSSINGS (TLB MISS):         0 
LLC AVERAGE MISS LATENCY: 175.461 cycles

PageTableWalker TOTAL       ACCESS:     187605  
PageTableWalker AVERAGE LATENCY: 6.51857 cycles
PageTableWalker TOTAL LATENCY: 1222916 cycles

DRAM Statistics
Channel 0
 RQ ROW_BUFFER_HIT:     609658
  ROW_BUFFER_MISS:    2362806
 AVG DBUS CONGESTED CYCLE:    3.64919
 WQ ROW_BUFFER_HIT:      66932
  ROW_BUFFER_MISS:      56130  FULL:          0

