last_page:0x200000000000000
VMEM_RES_CAP:0x100000
PAGE_SIZE:4096
LOG2_PAGE_SIZE:12
LOG2_PAGE_TABLE_SIZE:9
page_table_levels:5
WARNING: physical memory size is smaller than virtual memory size
FDiP enabled with aggresivity 16

*** ChampSim Multicore Out-of-Order Simulator ***

Warmup Instructions: 50000000
Simulation Instructions: 100000000
Number of CPUs: 1
Small page size: 4096
Large page size: 2097152

CPU 0 Bimodal branch predictor
Basic BTB sets: 1024 ways: 8 indirect buffer size: 4096 RAS size: 64
Instruction page size distrubution: 0
Loading instruction page size distribution from /home/bsc/bsc018186/scratch/itp_asplos25_AE/dump/smt_srv207_ap_srv259_ap_1024i.pdst
Data page size distrubution: 0
Loading data page size distribution from /home/bsc/bsc018186/scratch/itp_asplos25_AE/dump/smt_srv207_ap_srv259_ap_1024i.pdst
cpu0_L2C IP-based stride prefetcher
cpu0_L1D next line prefetcher
CHiRPing...
cpu0_L1I next line prefetcher
Off-chip DRAM Size: 4 GiB Channels: 1 Width: 64-bit Data Rate: 3200 MT/s
Heartbeat CPU 0 instructions: 10000003 cycles: 2500503 heartbeat IPC: 3.9992 cumulative IPC: 3.9992 (Simulation time: 0 hr 0 min 40 sec) 
Heartbeat CPU 0 instructions: 20000001 cycles: 5000884 heartbeat IPC: 3.99939 cumulative IPC: 3.9993 (Simulation time: 0 hr 1 min 22 sec) 
Heartbeat CPU 0 instructions: 30000000 cycles: 7501137 heartbeat IPC: 3.9996 cumulative IPC: 3.9994 (Simulation time: 0 hr 2 min 4 sec) 
Heartbeat CPU 0 instructions: 40000002 cycles: 10001593 heartbeat IPC: 3.99928 cumulative IPC: 3.99937 (Simulation time: 0 hr 2 min 47 sec) 
Heartbeat CPU 0 instructions: 50000003 cycles: 12501854 heartbeat IPC: 3.99959 cumulative IPC: 3.99941 (Simulation time: 0 hr 3 min 32 sec) 
Warmup finished CPU 0 instructions: 50000003 cycles: 12501855 cumulative IPC: 3.99941 (Simulation time: 0 hr 3 min 32 sec) 

Warmup complete CPU 0 instructions: 50000003 cycles: 12501855 (Simulation time: 0 hr 3 min 32 sec) 

Heartbeat CPU 0 instructions: 60000000 cycles: 41792403 heartbeat IPC: 0.341407 cumulative IPC: 0.341407 (Simulation time: 0 hr 5 min 13 sec) 
Heartbeat CPU 0 instructions: 70000002 cycles: 72214472 heartbeat IPC: 0.328709 cumulative IPC: 0.334938 (Simulation time: 0 hr 6 min 55 sec) 
Heartbeat CPU 0 instructions: 80000002 cycles: 102172056 heartbeat IPC: 0.333806 cumulative IPC: 0.33456 (Simulation time: 0 hr 8 min 35 sec) 
Heartbeat CPU 0 instructions: 90000000 cycles: 131785636 heartbeat IPC: 0.337683 cumulative IPC: 0.335335 (Simulation time: 0 hr 10 min 17 sec) 
Heartbeat CPU 0 instructions: 100000000 cycles: 162189564 heartbeat IPC: 0.328905 cumulative IPC: 0.334029 (Simulation time: 0 hr 11 min 59 sec) 
Heartbeat CPU 0 instructions: 110000002 cycles: 192619563 heartbeat IPC: 0.328624 cumulative IPC: 0.333116 (Simulation time: 0 hr 13 min 41 sec) 
Heartbeat CPU 0 instructions: 120000004 cycles: 220896139 heartbeat IPC: 0.35365 cumulative IPC: 0.335902 (Simulation time: 0 hr 15 min 20 sec) 
Heartbeat CPU 0 instructions: 130000002 cycles: 249411487 heartbeat IPC: 0.350689 cumulative IPC: 0.337682 (Simulation time: 0 hr 16 min 57 sec) 
Heartbeat CPU 0 instructions: 140000001 cycles: 279178216 heartbeat IPC: 0.335946 cumulative IPC: 0.337488 (Simulation time: 0 hr 18 min 38 sec) 
Heartbeat CPU 0 instructions: 150000000 cycles: 309623004 heartbeat IPC: 0.328464 cumulative IPC: 0.336564 (Simulation time: 0 hr 20 min 21 sec) 
Simulation finished CPU 0 instructions: 100000002 cycles: 297121151 cumulative IPC: 0.336564 (Simulation time: 0 hr 20 min 21 sec) 

Simulation complete CPU 0 instructions: 100000002 cycles: 297121151 (Simulation time: 0 hr 20 min 21 sec) 


ChampSim completed all CPUs

Saving instructions large page distribution to /home/bsc/bsc018186/scratch/itp_asplos25_AE/dump/smt_srv207_ap_srv259_ap_1024i.pdst...
Saving data large page distribution to /home/bsc/bsc018186/scratch/itp_asplos25_AE/dump/smt_srv207_ap_srv259_ap_1024i.pdst...
=== Simulation ===
CPU 0 runs /gpfs/projects/bsc18/MN4/bsc18/romol/ChampSim/traces/qualcomm_srv/smt_srv207_ap_srv259_ap_1024i.champsimtrace.xz

Region of Interest Statistics

CPU 0 cumulative IPC: 0.336564 instructions: 100000002 cycles: 297121151
CPU 0 Branch Prediction Accuracy: 75.9618% MPKI: 43.2597 Average ROB Occupancy at Mispredict: 11.4166
Branch type MPKI
BRANCH_DIRECT_JUMP: 1.33408
BRANCH_INDIRECT: 23.4031
BRANCH_CONDITIONAL: 11.6055
BRANCH_DIRECT_CALL: 2.45749
BRANCH_INDIRECT_CALL: 1.00685
BRANCH_RETURN: 3.4527

Instructions large pages: 0
Instructions small pages: 11193
Large page distribution for instructions: 0%

Data large pages: 0
Data small pages: 9904
Large page distribution for data: 0%

cpu0_L1I TOTAL       ACCESS:   38706923  HIT:   29918236  MISS:    8788687  iACCESS:   38706923  iHIT:   29918236  iMISS:    8788687  dACCESS:          0  dHIT:          0  dMISS:          0  itACCESS:          0  itHIT:          0  itMISS:          0  dtACCESS:          0  dtHIT:          0  dtMISS:          0
cpu0_L1I LOAD         ACCESS:   11505877  HIT:    9083475  MISS:    2422402  iACCESS:   11505877  iHIT:    9083475  iMISS:    2422402  dACCESS:          0  dHIT:          0  dMISS:          0  itACCESS:          0  itHIT:          0  itMISS:          0  dtACCESS:          0  dtHIT:          0  dtMISS:          0
cpu0_L1I RFO          ACCESS:          0  HIT:          0  MISS:          0  iACCESS:          0  iHIT:          0  iMISS:          0  dACCESS:          0  dHIT:          0  dMISS:          0  itACCESS:          0  itHIT:          0  itMISS:          0  dtACCESS:          0  dtHIT:          0  dtMISS:          0
cpu0_L1I PREFETCH     ACCESS:   27201046  HIT:   20834761  MISS:    6366285  iACCESS:   27201046  iHIT:   20834761  iMISS:    6366285  dACCESS:          0  dHIT:          0  dMISS:          0  itACCESS:          0  itHIT:          0  itMISS:          0  dtACCESS:          0  dtHIT:          0  dtMISS:          0
cpu0_L1I WRITE        ACCESS:          0  HIT:          0  MISS:          0  iACCESS:          0  iHIT:          0  iMISS:          0  dACCESS:          0  dHIT:          0  dMISS:          0  itACCESS:          0  itHIT:          0  itMISS:          0  dtACCESS:          0  dtHIT:          0  dtMISS:          0
cpu0_L1I TRANSLATION  ACCESS:          0  HIT:          0  MISS:          0  iACCESS:          0  iHIT:          0  iMISS:          0  dACCESS:          0  dHIT:          0  dMISS:          0  itACCESS:          0  itHIT:          0  itMISS:          0  dtACCESS:          0  dtHIT:          0  dtMISS:          0
cpu0_L1I PREFETCH  REQUESTED:   29974164  ISSUED:   29974147  CROSSED:          0  USEFUL:    2199040  USELESS:     791683
cpu0_L1I AVERAGE iMISS LATENCY: 22.5366 cycles
cpu0_L1I AVERAGE dMISS LATENCY: 0 cycles
cpu0_L1I AVERAGE itMISS LATENCY: 0 cycles
cpu0_L1I AVERAGE dtMISS LATENCY: 0 cycles
cpu0_L1I PAGE CROSSINGS (TLB HIT):         0 
cpu0_L1I PAGE CROSSINGS (TLB MISS):         0 
cpu0_L1I AVERAGE MISS LATENCY: 22.5366 cycles
cpu0_ITLB TOTAL       ACCESS:   32759050  HIT:   30459583  MISS:    2299467  iACCESS:   32759050  iHIT:   30459583  iMISS:    2299467  dACCESS:          0  dHIT:          0  dMISS:          0  itACCESS:          0  itHIT:          0  itMISS:          0  dtACCESS:          0  dtHIT:          0  dtMISS:          0
cpu0_ITLB LOAD         ACCESS:   32759050  HIT:   30459583  MISS:    2299467  iACCESS:   32759050  iHIT:   30459583  iMISS:    2299467  dACCESS:          0  dHIT:          0  dMISS:          0  itACCESS:          0  itHIT:          0  itMISS:          0  dtACCESS:          0  dtHIT:          0  dtMISS:          0
cpu0_ITLB RFO          ACCESS:          0  HIT:          0  MISS:          0  iACCESS:          0  iHIT:          0  iMISS:          0  dACCESS:          0  dHIT:          0  dMISS:          0  itACCESS:          0  itHIT:          0  itMISS:          0  dtACCESS:          0  dtHIT:          0  dtMISS:          0
cpu0_ITLB PREFETCH     ACCESS:          0  HIT:          0  MISS:          0  iACCESS:          0  iHIT:          0  iMISS:          0  dACCESS:          0  dHIT:          0  dMISS:          0  itACCESS:          0  itHIT:          0  itMISS:          0  dtACCESS:          0  dtHIT:          0  dtMISS:          0
cpu0_ITLB WRITE        ACCESS:          0  HIT:          0  MISS:          0  iACCESS:          0  iHIT:          0  iMISS:          0  dACCESS:          0  dHIT:          0  dMISS:          0  itACCESS:          0  itHIT:          0  itMISS:          0  dtACCESS:          0  dtHIT:          0  dtMISS:          0
cpu0_ITLB TRANSLATION  ACCESS:          0  HIT:          0  MISS:          0  iACCESS:          0  iHIT:          0  iMISS:          0  dACCESS:          0  dHIT:          0  dMISS:          0  itACCESS:          0  itHIT:          0  itMISS:          0  dtACCESS:          0  dtHIT:          0  dtMISS:          0
cpu0_ITLB PREFETCH  REQUESTED:          0  ISSUED:          0  CROSSED:          0  USEFUL:     394122  USELESS:      84798
cpu0_ITLB AVERAGE iMISS LATENCY: 10.1197 cycles
cpu0_ITLB AVERAGE dMISS LATENCY: 0 cycles
cpu0_ITLB AVERAGE itMISS LATENCY: 0 cycles
cpu0_ITLB AVERAGE dtMISS LATENCY: 0 cycles
cpu0_ITLB PAGE CROSSINGS (TLB HIT):         0 
cpu0_ITLB PAGE CROSSINGS (TLB MISS):         0 
cpu0_ITLB AVERAGE MISS LATENCY: 10.1197 cycles
cpu0_DTLB TOTAL       ACCESS:   29129569  HIT:   25537542  MISS:    3592027  iACCESS:          0  iHIT:          0  iMISS:          0  dACCESS:   29129569  dHIT:   25537542  dMISS:    3592027  itACCESS:          0  itHIT:          0  itMISS:          0  dtACCESS:          0  dtHIT:          0  dtMISS:          0
cpu0_DTLB LOAD         ACCESS:   29129569  HIT:   25537542  MISS:    3592027  iACCESS:          0  iHIT:          0  iMISS:          0  dACCESS:   29129569  dHIT:   25537542  dMISS:    3592027  itACCESS:          0  itHIT:          0  itMISS:          0  dtACCESS:          0  dtHIT:          0  dtMISS:          0
cpu0_DTLB RFO          ACCESS:          0  HIT:          0  MISS:          0  iACCESS:          0  iHIT:          0  iMISS:          0  dACCESS:          0  dHIT:          0  dMISS:          0  itACCESS:          0  itHIT:          0  itMISS:          0  dtACCESS:          0  dtHIT:          0  dtMISS:          0
cpu0_DTLB PREFETCH     ACCESS:          0  HIT:          0  MISS:          0  iACCESS:          0  iHIT:          0  iMISS:          0  dACCESS:          0  dHIT:          0  dMISS:          0  itACCESS:          0  itHIT:          0  itMISS:          0  dtACCESS:          0  dtHIT:          0  dtMISS:          0
cpu0_DTLB WRITE        ACCESS:          0  HIT:          0  MISS:          0  iACCESS:          0  iHIT:          0  iMISS:          0  dACCESS:          0  dHIT:          0  dMISS:          0  itACCESS:          0  itHIT:          0  itMISS:          0  dtACCESS:          0  dtHIT:          0  dtMISS:          0
cpu0_DTLB TRANSLATION  ACCESS:          0  HIT:          0  MISS:          0  iACCESS:          0  iHIT:          0  iMISS:          0  dACCESS:          0  dHIT:          0  dMISS:          0  itACCESS:          0  itHIT:          0  itMISS:          0  dtACCESS:          0  dtHIT:          0  dtMISS:          0
cpu0_DTLB PREFETCH  REQUESTED:          0  ISSUED:          0  CROSSED:          0  USEFUL:          0  USELESS:          0
cpu0_DTLB AVERAGE iMISS LATENCY: 0 cycles
cpu0_DTLB AVERAGE dMISS LATENCY: 25.8516 cycles
cpu0_DTLB AVERAGE itMISS LATENCY: 0 cycles
cpu0_DTLB AVERAGE dtMISS LATENCY: 0 cycles
cpu0_DTLB PAGE CROSSINGS (TLB HIT):         0 
cpu0_DTLB PAGE CROSSINGS (TLB MISS):         0 
cpu0_DTLB AVERAGE MISS LATENCY: 25.8516 cycles
cpu0_STLB TOTAL       ACCESS:    2574737  HIT:    2193927  MISS:     380810  iACCESS:     478924  iHIT:     370143  iMISS:     108781  dACCESS:    2095813  dHIT:    1823784  dMISS:     272029  itACCESS:          0  itHIT:          0  itMISS:          0  dtACCESS:          0  dtHIT:          0  dtMISS:          0
cpu0_STLB LOAD         ACCESS:    2574737  HIT:    2193927  MISS:     380810  iACCESS:     478924  iHIT:     370143  iMISS:     108781  dACCESS:    2095813  dHIT:    1823784  dMISS:     272029  itACCESS:          0  itHIT:          0  itMISS:          0  dtACCESS:          0  dtHIT:          0  dtMISS:          0
cpu0_STLB RFO          ACCESS:          0  HIT:          0  MISS:          0  iACCESS:          0  iHIT:          0  iMISS:          0  dACCESS:          0  dHIT:          0  dMISS:          0  itACCESS:          0  itHIT:          0  itMISS:          0  dtACCESS:          0  dtHIT:          0  dtMISS:          0
cpu0_STLB PREFETCH     ACCESS:          0  HIT:          0  MISS:          0  iACCESS:          0  iHIT:          0  iMISS:          0  dACCESS:          0  dHIT:          0  dMISS:          0  itACCESS:          0  itHIT:          0  itMISS:          0  dtACCESS:          0  dtHIT:          0  dtMISS:          0
cpu0_STLB WRITE        ACCESS:          0  HIT:          0  MISS:          0  iACCESS:          0  iHIT:          0  iMISS:          0  dACCESS:          0  dHIT:          0  dMISS:          0  itACCESS:          0  itHIT:          0  itMISS:          0  dtACCESS:          0  dtHIT:          0  dtMISS:          0
cpu0_STLB TRANSLATION  ACCESS:          0  HIT:          0  MISS:          0  iACCESS:          0  iHIT:          0  iMISS:          0  dACCESS:          0  dHIT:          0  dMISS:          0  itACCESS:          0  itHIT:          0  itMISS:          0  dtACCESS:          0  dtHIT:          0  dtMISS:          0
cpu0_STLB PREFETCH  REQUESTED:          0  ISSUED:          0  CROSSED:          0  USEFUL:          0  USELESS:          0
cpu0_STLB AVERAGE iMISS LATENCY: 51.0675 cycles
cpu0_STLB AVERAGE dMISS LATENCY: 199.523 cycles
cpu0_STLB AVERAGE itMISS LATENCY: 0 cycles
cpu0_STLB AVERAGE dtMISS LATENCY: 0 cycles
cpu0_STLB PAGE CROSSINGS (TLB HIT):         0 
cpu0_STLB PAGE CROSSINGS (TLB MISS):         0 
cpu0_STLB AVERAGE MISS LATENCY: 250.59 cycles
cpu0_L1D TOTAL       ACCESS:   45641011  HIT:   39499863  MISS:    6141148  iACCESS:          0  iHIT:          0  iMISS:          0  dACCESS:   45077107  dHIT:   39468823  dMISS:    5608284  itACCESS:     122848  itHIT:      12017  itMISS:     110831  dtACCESS:     441056  dtHIT:      19023  dtMISS:     422033
cpu0_L1D LOAD         ACCESS:   20683237  HIT:   18146642  MISS:    2536595  iACCESS:          0  iHIT:          0  iMISS:          0  dACCESS:   20683237  dHIT:   18146642  dMISS:    2536595  itACCESS:          0  itHIT:          0  itMISS:          0  dtACCESS:          0  dtHIT:          0  dtMISS:          0
cpu0_L1D RFO          ACCESS:          0  HIT:          0  MISS:          0  iACCESS:          0  iHIT:          0  iMISS:          0  dACCESS:          0  dHIT:          0  dMISS:          0  itACCESS:          0  itHIT:          0  itMISS:          0  dtACCESS:          0  dtHIT:          0  dtMISS:          0
cpu0_L1D PREFETCH     ACCESS:   14304784  HIT:   11823638  MISS:    2481146  iACCESS:          0  iHIT:          0  iMISS:          0  dACCESS:   14304784  dHIT:   11823638  dMISS:    2481146  itACCESS:          0  itHIT:          0  itMISS:          0  dtACCESS:          0  dtHIT:          0  dtMISS:          0
cpu0_L1D WRITE        ACCESS:   10089086  HIT:    9498543  MISS:     590543  iACCESS:          0  iHIT:          0  iMISS:          0  dACCESS:   10089086  dHIT:    9498543  dMISS:     590543  itACCESS:          0  itHIT:          0  itMISS:          0  dtACCESS:          0  dtHIT:          0  dtMISS:          0
cpu0_L1D TRANSLATION  ACCESS:     563904  HIT:      31040  MISS:     532864  iACCESS:          0  iHIT:          0  iMISS:          0  dACCESS:          0  dHIT:          0  dMISS:          0  itACCESS:     122848  itHIT:      12017  itMISS:     110831  dtACCESS:     441056  dtHIT:      19023  dtMISS:     422033
cpu0_L1D PREFETCH  REQUESTED:   20683237  ISSUED:   18788712  CROSSED:          0  USEFUL:     374933  USELESS:     952099
cpu0_L1D AVERAGE iMISS LATENCY: 0 cycles
cpu0_L1D AVERAGE dMISS LATENCY: 48.8683 cycles
cpu0_L1D AVERAGE itMISS LATENCY: 2.99806 cycles
cpu0_L1D AVERAGE dtMISS LATENCY: 11.6161 cycles
cpu0_L1D PAGE CROSSINGS (TLB HIT):         0 
cpu0_L1D PAGE CROSSINGS (TLB MISS):         0 
cpu0_L1D AVERAGE MISS LATENCY: 63.4825 cycles
cpu0_L2C TOTAL       ACCESS:    8722316  HIT:    4275683  MISS:    4446633  iACCESS:    3827194  iHIT:    2358520  iMISS:    1468674  dACCESS:    4398548  dHIT:    1860332  dMISS:    2538216  itACCESS:     110753  itHIT:      17105  itMISS:      93648  dtACCESS:     385821  dtHIT:      39726  dtMISS:     346095
cpu0_L2C LOAD         ACCESS:    2122164  HIT:    1034467  MISS:    1087697  iACCESS:     871739  iHIT:     559858  iMISS:     311881  dACCESS:    1250425  dHIT:     474609  dMISS:     775816  itACCESS:          0  itHIT:          0  itMISS:          0  dtACCESS:          0  dtHIT:          0  dtMISS:          0
cpu0_L2C RFO          ACCESS:     224244  HIT:      89737  MISS:     134507  iACCESS:          0  iHIT:          0  iMISS:          0  dACCESS:     224244  dHIT:      89737  dMISS:     134507  itACCESS:          0  itHIT:          0  itMISS:          0  dtACCESS:          0  dtHIT:          0  dtMISS:          0
cpu0_L2C PREFETCH     ACCESS:    5533692  HIT:    2752873  MISS:    2780819  iACCESS:    2955455  iHIT:    1798662  iMISS:    1156793  dACCESS:    2578237  dHIT:     954211  dMISS:    1624026  itACCESS:          0  itHIT:          0  itMISS:          0  dtACCESS:          0  dtHIT:          0  dtMISS:          0
cpu0_L2C WRITE        ACCESS:     345642  HIT:     341775  MISS:       3867  iACCESS:          0  iHIT:          0  iMISS:          0  dACCESS:     345642  dHIT:     341775  dMISS:       3867  itACCESS:          0  itHIT:          0  itMISS:          0  dtACCESS:          0  dtHIT:          0  dtMISS:          0
cpu0_L2C TRANSLATION  ACCESS:     496574  HIT:      56831  MISS:     439743  iACCESS:          0  iHIT:          0  iMISS:          0  dACCESS:          0  dHIT:          0  dMISS:          0  itACCESS:     110753  itHIT:      17105  itMISS:      93648  dtACCESS:     385821  dtHIT:      39726  dtMISS:     346095
cpu0_L2C PREFETCH  REQUESTED:    1508512  ISSUED:    1508510  CROSSED:          0  USEFUL:     345518  USELESS:     303357
cpu0_L2C AVERAGE iMISS LATENCY: 37.164 cycles
cpu0_L2C AVERAGE dMISS LATENCY: 80.648 cycles
cpu0_L2C AVERAGE itMISS LATENCY: 3.8946 cycles
cpu0_L2C AVERAGE dtMISS LATENCY: 15.1788 cycles
cpu0_L2C PAGE CROSSINGS (TLB HIT):         0 
cpu0_L2C PAGE CROSSINGS (TLB MISS):         0 
cpu0_L2C AVERAGE MISS LATENCY: 136.886 cycles
LLC TOTAL       ACCESS:    4465019  HIT:    1458650  MISS:    3006369  iACCESS:    1391955  iHIT:     522970  iMISS:     868985  dACCESS:    2633321  dHIT:     894180  dMISS:    1739141  itACCESS:      93648  itHIT:       6939  itMISS:      86709  dtACCESS:     346095  dtHIT:      34561  dtMISS:     311534
LLC LOAD         ACCESS:    1079154  HIT:     355383  MISS:     723771  iACCESS:     310715  iHIT:     124000  iMISS:     186715  dACCESS:     768439  dHIT:     231383  dMISS:     537056  itACCESS:          0  itHIT:          0  itMISS:          0  dtACCESS:          0  dtHIT:          0  dtMISS:          0
LLC RFO          ACCESS:     134506  HIT:      40708  MISS:      93798  iACCESS:          0  iHIT:          0  iMISS:          0  dACCESS:     134506  dHIT:      40708  dMISS:      93798  itACCESS:          0  itHIT:          0  itMISS:          0  dtACCESS:          0  dtHIT:          0  dtMISS:          0
LLC PREFETCH     ACCESS:    2602533  HIT:     822068  MISS:    1780465  iACCESS:    1081240  iHIT:     398970  iMISS:     682270  dACCESS:    1521293  dHIT:     423098  dMISS:    1098195  itACCESS:          0  itHIT:          0  itMISS:          0  dtACCESS:          0  dtHIT:          0  dtMISS:          0
LLC WRITE        ACCESS:     209083  HIT:     198991  MISS:      10092  iACCESS:          0  iHIT:          0  iMISS:          0  dACCESS:     209083  dHIT:     198991  dMISS:      10092  itACCESS:          0  itHIT:          0  itMISS:          0  dtACCESS:          0  dtHIT:          0  dtMISS:          0
LLC TRANSLATION  ACCESS:     439743  HIT:      41500  MISS:     398243  iACCESS:          0  iHIT:          0  iMISS:          0  dACCESS:          0  dHIT:          0  dMISS:          0  itACCESS:      93648  itHIT:       6939  itMISS:      86709  dtACCESS:     346095  dtHIT:      34561  dtMISS:     311534
LLC PREFETCH  REQUESTED:          0  ISSUED:          0  CROSSED:          0  USEFUL:          0  USELESS:          0
LLC AVERAGE iMISS LATENCY: 45.8669 cycles
LLC AVERAGE dMISS LATENCY: 104.488 cycles
LLC AVERAGE itMISS LATENCY: 5.14257 cycles
LLC AVERAGE dtMISS LATENCY: 20.1736 cycles
LLC PAGE CROSSINGS (TLB HIT):         0 
LLC PAGE CROSSINGS (TLB MISS):         0 
LLC AVERAGE MISS LATENCY: 175.671 cycles

PageTableWalker TOTAL       ACCESS:     187592  
PageTableWalker AVERAGE LATENCY: 6.51221 cycles
PageTableWalker TOTAL LATENCY: 1221638 cycles

DRAM Statistics
Channel 0
 RQ ROW_BUFFER_HIT:     605753
  ROW_BUFFER_MISS:    2368363
 AVG DBUS CONGESTED CYCLE:    3.64939
 WQ ROW_BUFFER_HIT:      67045
  ROW_BUFFER_MISS:      56529  FULL:          0

