last_page:0x200000000000000
VMEM_RES_CAP:0x100000
PAGE_SIZE:4096
LOG2_PAGE_SIZE:12
LOG2_PAGE_TABLE_SIZE:9
page_table_levels:5
WARNING: physical memory size is smaller than virtual memory size
FDiP enabled with aggresivity 16

*** ChampSim Multicore Out-of-Order Simulator ***

Warmup Instructions: 50000000
Simulation Instructions: 100000000
Number of CPUs: 1
Small page size: 4096
Large page size: 2097152

CPU 0 Bimodal branch predictor
Basic BTB sets: 1024 ways: 8 indirect buffer size: 4096 RAS size: 64
Instruction page size distrubution: 0
Loading instruction page size distribution from /home/bsc/bsc018186/scratch/itp_asplos25_AE/dump/smt_srv540_ap_srv346_ap_1024i.pdst
Data page size distrubution: 0
Loading data page size distribution from /home/bsc/bsc018186/scratch/itp_asplos25_AE/dump/smt_srv540_ap_srv346_ap_1024i.pdst
cpu0_L2C IP-based stride prefetcher
cpu0_L1D next line prefetcher
cpu0_L1I next line prefetcher
Off-chip DRAM Size: 4 GiB Channels: 1 Width: 64-bit Data Rate: 3200 MT/s
Heartbeat CPU 0 instructions: 10000001 cycles: 2500409 heartbeat IPC: 3.99935 cumulative IPC: 3.99935 (Simulation time: 0 hr 0 min 44 sec) 
Heartbeat CPU 0 instructions: 20000003 cycles: 5000712 heartbeat IPC: 3.99952 cumulative IPC: 3.99944 (Simulation time: 0 hr 1 min 32 sec) 
Heartbeat CPU 0 instructions: 30000001 cycles: 7501172 heartbeat IPC: 3.99927 cumulative IPC: 3.99938 (Simulation time: 0 hr 2 min 21 sec) 
Heartbeat CPU 0 instructions: 40000003 cycles: 10001453 heartbeat IPC: 3.99956 cumulative IPC: 3.99942 (Simulation time: 0 hr 3 min 9 sec) 
Heartbeat CPU 0 instructions: 50000001 cycles: 12501616 heartbeat IPC: 3.99974 cumulative IPC: 3.99949 (Simulation time: 0 hr 3 min 58 sec) 
Warmup finished CPU 0 instructions: 50000001 cycles: 12501617 cumulative IPC: 3.99949 (Simulation time: 0 hr 3 min 58 sec) 

Warmup complete CPU 0 instructions: 50000001 cycles: 12501617 (Simulation time: 0 hr 3 min 58 sec) 

Heartbeat CPU 0 instructions: 60000000 cycles: 39125883 heartbeat IPC: 0.375598 cumulative IPC: 0.375598 (Simulation time: 0 hr 5 min 35 sec) 
Heartbeat CPU 0 instructions: 70000003 cycles: 65128002 heartbeat IPC: 0.384585 cumulative IPC: 0.380038 (Simulation time: 0 hr 7 min 10 sec) 
Heartbeat CPU 0 instructions: 80000002 cycles: 91877520 heartbeat IPC: 0.373839 cumulative IPC: 0.377949 (Simulation time: 0 hr 8 min 45 sec) 
Heartbeat CPU 0 instructions: 90000000 cycles: 117638142 heartbeat IPC: 0.38819 cumulative IPC: 0.380458 (Simulation time: 0 hr 10 min 17 sec) 
Heartbeat CPU 0 instructions: 100000002 cycles: 144841673 heartbeat IPC: 0.3676 cumulative IPC: 0.377815 (Simulation time: 0 hr 11 min 53 sec) 
Heartbeat CPU 0 instructions: 110000002 cycles: 171171030 heartbeat IPC: 0.379805 cumulative IPC: 0.378145 (Simulation time: 0 hr 13 min 29 sec) 
Heartbeat CPU 0 instructions: 120000000 cycles: 197185827 heartbeat IPC: 0.384397 cumulative IPC: 0.379026 (Simulation time: 0 hr 15 min 3 sec) 
Heartbeat CPU 0 instructions: 130000002 cycles: 223495291 heartbeat IPC: 0.380092 cumulative IPC: 0.379159 (Simulation time: 0 hr 16 min 38 sec) 
Heartbeat CPU 0 instructions: 140000002 cycles: 249970453 heartbeat IPC: 0.377713 cumulative IPC: 0.378998 (Simulation time: 0 hr 18 min 15 sec) 
Heartbeat CPU 0 instructions: 150000001 cycles: 275320434 heartbeat IPC: 0.394478 cumulative IPC: 0.380491 (Simulation time: 0 hr 19 min 50 sec) 
Simulation finished CPU 0 instructions: 100000000 cycles: 262818818 cumulative IPC: 0.380491 (Simulation time: 0 hr 19 min 50 sec) 

Simulation complete CPU 0 instructions: 100000000 cycles: 262818818 (Simulation time: 0 hr 19 min 50 sec) 


ChampSim completed all CPUs

Saving instructions large page distribution to /home/bsc/bsc018186/scratch/itp_asplos25_AE/dump/smt_srv540_ap_srv346_ap_1024i.pdst...
Saving data large page distribution to /home/bsc/bsc018186/scratch/itp_asplos25_AE/dump/smt_srv540_ap_srv346_ap_1024i.pdst...
=== Simulation ===
CPU 0 runs /gpfs/projects/bsc18/MN4/bsc18/romol/ChampSim/traces/qualcomm_srv/smt_srv540_ap_srv346_ap_1024i.champsimtrace.xz

Region of Interest Statistics

CPU 0 cumulative IPC: 0.380491 instructions: 100000000 cycles: 262818818
CPU 0 Branch Prediction Accuracy: 76.1538% MPKI: 42.8721 Average ROB Occupancy at Mispredict: 11.1365
Branch type MPKI
BRANCH_DIRECT_JUMP: 1.27547
BRANCH_INDIRECT: 22.3244
BRANCH_CONDITIONAL: 12.4761
BRANCH_DIRECT_CALL: 2.46311
BRANCH_INDIRECT_CALL: 0.920321
BRANCH_RETURN: 3.41271

Instructions large pages: 0
Instructions small pages: 12840
Large page distribution for instructions: 0%

Data large pages: 0
Data small pages: 11591
Large page distribution for data: 0%

cpu0_L1I TOTAL       ACCESS:   39245630  HIT:   30133330  MISS:    9112300  iACCESS:   39245630  iHIT:   30133330  iMISS:    9112300  dACCESS:          0  dHIT:          0  dMISS:          0  itACCESS:          0  itHIT:          0  itMISS:          0  dtACCESS:          0  dtHIT:          0  dtMISS:          0
cpu0_L1I LOAD         ACCESS:   11762394  HIT:    9283586  MISS:    2478808  iACCESS:   11762394  iHIT:    9283586  iMISS:    2478808  dACCESS:          0  dHIT:          0  dMISS:          0  itACCESS:          0  itHIT:          0  itMISS:          0  dtACCESS:          0  dtHIT:          0  dtMISS:          0
cpu0_L1I RFO          ACCESS:          0  HIT:          0  MISS:          0  iACCESS:          0  iHIT:          0  iMISS:          0  dACCESS:          0  dHIT:          0  dMISS:          0  itACCESS:          0  itHIT:          0  itMISS:          0  dtACCESS:          0  dtHIT:          0  dtMISS:          0
cpu0_L1I PREFETCH     ACCESS:   27483236  HIT:   20849744  MISS:    6633492  iACCESS:   27483236  iHIT:   20849744  iMISS:    6633492  dACCESS:          0  dHIT:          0  dMISS:          0  itACCESS:          0  itHIT:          0  itMISS:          0  dtACCESS:          0  dtHIT:          0  dtMISS:          0
cpu0_L1I WRITE        ACCESS:          0  HIT:          0  MISS:          0  iACCESS:          0  iHIT:          0  iMISS:          0  dACCESS:          0  dHIT:          0  dMISS:          0  itACCESS:          0  itHIT:          0  itMISS:          0  dtACCESS:          0  dtHIT:          0  dtMISS:          0
cpu0_L1I TRANSLATION  ACCESS:          0  HIT:          0  MISS:          0  iACCESS:          0  iHIT:          0  iMISS:          0  dACCESS:          0  dHIT:          0  dMISS:          0  itACCESS:          0  itHIT:          0  itMISS:          0  dtACCESS:          0  dtHIT:          0  dtMISS:          0
cpu0_L1I PREFETCH  REQUESTED:   30131872  ISSUED:   30130579  CROSSED:          0  USEFUL:    2179687  USELESS:     742789
cpu0_L1I AVERAGE iMISS LATENCY: 23.0134 cycles
cpu0_L1I AVERAGE dMISS LATENCY: 0 cycles
cpu0_L1I AVERAGE itMISS LATENCY: 0 cycles
cpu0_L1I AVERAGE dtMISS LATENCY: 0 cycles
cpu0_L1I PAGE CROSSINGS (TLB HIT):         0 
cpu0_L1I PAGE CROSSINGS (TLB MISS):         0 
cpu0_L1I AVERAGE MISS LATENCY: 23.0134 cycles
cpu0_ITLB TOTAL       ACCESS:   32891616  HIT:   30713870  MISS:    2177746  iACCESS:   32891616  iHIT:   30713870  iMISS:    2177746  dACCESS:          0  dHIT:          0  dMISS:          0  itACCESS:          0  itHIT:          0  itMISS:          0  dtACCESS:          0  dtHIT:          0  dtMISS:          0
cpu0_ITLB LOAD         ACCESS:   32891616  HIT:   30713870  MISS:    2177746  iACCESS:   32891616  iHIT:   30713870  iMISS:    2177746  dACCESS:          0  dHIT:          0  dMISS:          0  itACCESS:          0  itHIT:          0  itMISS:          0  dtACCESS:          0  dtHIT:          0  dtMISS:          0
cpu0_ITLB RFO          ACCESS:          0  HIT:          0  MISS:          0  iACCESS:          0  iHIT:          0  iMISS:          0  dACCESS:          0  dHIT:          0  dMISS:          0  itACCESS:          0  itHIT:          0  itMISS:          0  dtACCESS:          0  dtHIT:          0  dtMISS:          0
cpu0_ITLB PREFETCH     ACCESS:          0  HIT:          0  MISS:          0  iACCESS:          0  iHIT:          0  iMISS:          0  dACCESS:          0  dHIT:          0  dMISS:          0  itACCESS:          0  itHIT:          0  itMISS:          0  dtACCESS:          0  dtHIT:          0  dtMISS:          0
cpu0_ITLB WRITE        ACCESS:          0  HIT:          0  MISS:          0  iACCESS:          0  iHIT:          0  iMISS:          0  dACCESS:          0  dHIT:          0  dMISS:          0  itACCESS:          0  itHIT:          0  itMISS:          0  dtACCESS:          0  dtHIT:          0  dtMISS:          0
cpu0_ITLB TRANSLATION  ACCESS:          0  HIT:          0  MISS:          0  iACCESS:          0  iHIT:          0  iMISS:          0  dACCESS:          0  dHIT:          0  dMISS:          0  itACCESS:          0  itHIT:          0  itMISS:          0  dtACCESS:          0  dtHIT:          0  dtMISS:          0
cpu0_ITLB PREFETCH  REQUESTED:          0  ISSUED:          0  CROSSED:          0  USEFUL:     379612  USELESS:      76974
cpu0_ITLB AVERAGE iMISS LATENCY: 7.4743 cycles
cpu0_ITLB AVERAGE dMISS LATENCY: 0 cycles
cpu0_ITLB AVERAGE itMISS LATENCY: 0 cycles
cpu0_ITLB AVERAGE dtMISS LATENCY: 0 cycles
cpu0_ITLB PAGE CROSSINGS (TLB HIT):         0 
cpu0_ITLB PAGE CROSSINGS (TLB MISS):         0 
cpu0_ITLB AVERAGE MISS LATENCY: 7.4743 cycles
cpu0_DTLB TOTAL       ACCESS:   28755299  HIT:   25117780  MISS:    3637519  iACCESS:          0  iHIT:          0  iMISS:          0  dACCESS:   28755299  dHIT:   25117780  dMISS:    3637519  itACCESS:          0  itHIT:          0  itMISS:          0  dtACCESS:          0  dtHIT:          0  dtMISS:          0
cpu0_DTLB LOAD         ACCESS:   28755299  HIT:   25117780  MISS:    3637519  iACCESS:          0  iHIT:          0  iMISS:          0  dACCESS:   28755299  dHIT:   25117780  dMISS:    3637519  itACCESS:          0  itHIT:          0  itMISS:          0  dtACCESS:          0  dtHIT:          0  dtMISS:          0
cpu0_DTLB RFO          ACCESS:          0  HIT:          0  MISS:          0  iACCESS:          0  iHIT:          0  iMISS:          0  dACCESS:          0  dHIT:          0  dMISS:          0  itACCESS:          0  itHIT:          0  itMISS:          0  dtACCESS:          0  dtHIT:          0  dtMISS:          0
cpu0_DTLB PREFETCH     ACCESS:          0  HIT:          0  MISS:          0  iACCESS:          0  iHIT:          0  iMISS:          0  dACCESS:          0  dHIT:          0  dMISS:          0  itACCESS:          0  itHIT:          0  itMISS:          0  dtACCESS:          0  dtHIT:          0  dtMISS:          0
cpu0_DTLB WRITE        ACCESS:          0  HIT:          0  MISS:          0  iACCESS:          0  iHIT:          0  iMISS:          0  dACCESS:          0  dHIT:          0  dMISS:          0  itACCESS:          0  itHIT:          0  itMISS:          0  dtACCESS:          0  dtHIT:          0  dtMISS:          0
cpu0_DTLB TRANSLATION  ACCESS:          0  HIT:          0  MISS:          0  iACCESS:          0  iHIT:          0  iMISS:          0  dACCESS:          0  dHIT:          0  dMISS:          0  itACCESS:          0  itHIT:          0  itMISS:          0  dtACCESS:          0  dtHIT:          0  dtMISS:          0
cpu0_DTLB PREFETCH  REQUESTED:          0  ISSUED:          0  CROSSED:          0  USEFUL:          0  USELESS:          0
cpu0_DTLB AVERAGE iMISS LATENCY: 0 cycles
cpu0_DTLB AVERAGE dMISS LATENCY: 16.2296 cycles
cpu0_DTLB AVERAGE itMISS LATENCY: 0 cycles
cpu0_DTLB AVERAGE dtMISS LATENCY: 0 cycles
cpu0_DTLB PAGE CROSSINGS (TLB HIT):         0 
cpu0_DTLB PAGE CROSSINGS (TLB MISS):         0 
cpu0_DTLB AVERAGE MISS LATENCY: 16.2296 cycles
cpu0_STLB TOTAL       ACCESS:    2568648  HIT:    2210215  MISS:     358433  iACCESS:     456596  iHIT:     350726  iMISS:     105870  dACCESS:    2112052  dHIT:    1859489  dMISS:     252563  itACCESS:          0  itHIT:          0  itMISS:          0  dtACCESS:          0  dtHIT:          0  dtMISS:          0
cpu0_STLB LOAD         ACCESS:    2568648  HIT:    2210215  MISS:     358433  iACCESS:     456596  iHIT:     350726  iMISS:     105870  dACCESS:    2112052  dHIT:    1859489  dMISS:     252563  itACCESS:          0  itHIT:          0  itMISS:          0  dtACCESS:          0  dtHIT:          0  dtMISS:          0
cpu0_STLB RFO          ACCESS:          0  HIT:          0  MISS:          0  iACCESS:          0  iHIT:          0  iMISS:          0  dACCESS:          0  dHIT:          0  dMISS:          0  itACCESS:          0  itHIT:          0  itMISS:          0  dtACCESS:          0  dtHIT:          0  dtMISS:          0
cpu0_STLB PREFETCH     ACCESS:          0  HIT:          0  MISS:          0  iACCESS:          0  iHIT:          0  iMISS:          0  dACCESS:          0  dHIT:          0  dMISS:          0  itACCESS:          0  itHIT:          0  itMISS:          0  dtACCESS:          0  dtHIT:          0  dtMISS:          0
cpu0_STLB WRITE        ACCESS:          0  HIT:          0  MISS:          0  iACCESS:          0  iHIT:          0  iMISS:          0  dACCESS:          0  dHIT:          0  dMISS:          0  itACCESS:          0  itHIT:          0  itMISS:          0  dtACCESS:          0  dtHIT:          0  dtMISS:          0
cpu0_STLB TRANSLATION  ACCESS:          0  HIT:          0  MISS:          0  iACCESS:          0  iHIT:          0  iMISS:          0  dACCESS:          0  dHIT:          0  dMISS:          0  itACCESS:          0  itHIT:          0  itMISS:          0  dtACCESS:          0  dtHIT:          0  dtMISS:          0
cpu0_STLB PREFETCH  REQUESTED:          0  ISSUED:          0  CROSSED:          0  USEFUL:          0  USELESS:          0
cpu0_STLB AVERAGE iMISS LATENCY: 35.2524 cycles
cpu0_STLB AVERAGE dMISS LATENCY: 117.364 cycles
cpu0_STLB AVERAGE itMISS LATENCY: 0 cycles
cpu0_STLB AVERAGE dtMISS LATENCY: 0 cycles
cpu0_STLB PAGE CROSSINGS (TLB HIT):         0 
cpu0_STLB PAGE CROSSINGS (TLB MISS):         0 
cpu0_STLB AVERAGE MISS LATENCY: 152.616 cycles
cpu0_L1D TOTAL       ACCESS:   44191972  HIT:   38938203  MISS:    5253769  iACCESS:          0  iHIT:          0  iMISS:          0  dACCESS:   43665441  dHIT:   38903511  dMISS:    4761930  itACCESS:     118785  itHIT:      14103  itMISS:     104682  dtACCESS:     407746  dtHIT:      20589  dtMISS:     387157
cpu0_L1D LOAD         ACCESS:   19961776  HIT:   17838376  MISS:    2123400  iACCESS:          0  iHIT:          0  iMISS:          0  dACCESS:   19961776  dHIT:   17838376  dMISS:    2123400  itACCESS:          0  itHIT:          0  itMISS:          0  dtACCESS:          0  dtHIT:          0  dtMISS:          0
cpu0_L1D RFO          ACCESS:          0  HIT:          0  MISS:          0  iACCESS:          0  iHIT:          0  iMISS:          0  dACCESS:          0  dHIT:          0  dMISS:          0  itACCESS:          0  itHIT:          0  itMISS:          0  dtACCESS:          0  dtHIT:          0  dtMISS:          0
cpu0_L1D PREFETCH     ACCESS:   13573553  HIT:   11484705  MISS:    2088848  iACCESS:          0  iHIT:          0  iMISS:          0  dACCESS:   13573553  dHIT:   11484705  dMISS:    2088848  itACCESS:          0  itHIT:          0  itMISS:          0  dtACCESS:          0  dtHIT:          0  dtMISS:          0
cpu0_L1D WRITE        ACCESS:   10130112  HIT:    9580430  MISS:     549682  iACCESS:          0  iHIT:          0  iMISS:          0  dACCESS:   10130112  dHIT:    9580430  dMISS:     549682  itACCESS:          0  itHIT:          0  itMISS:          0  dtACCESS:          0  dtHIT:          0  dtMISS:          0
cpu0_L1D TRANSLATION  ACCESS:     526531  HIT:      34692  MISS:     491839  iACCESS:          0  iHIT:          0  iMISS:          0  dACCESS:          0  dHIT:          0  dMISS:          0  itACCESS:     118785  itHIT:      14103  itMISS:     104682  dtACCESS:     407746  dtHIT:      20589  dtMISS:     387157
cpu0_L1D PREFETCH  REQUESTED:   19961776  ISSUED:   18270636  CROSSED:          0  USEFUL:     358712  USELESS:     920473
cpu0_L1D AVERAGE iMISS LATENCY: 0 cycles
cpu0_L1D AVERAGE dMISS LATENCY: 51.6228 cycles
cpu0_L1D AVERAGE itMISS LATENCY: 2.21893 cycles
cpu0_L1D AVERAGE dtMISS LATENCY: 7.03866 cycles
cpu0_L1D PAGE CROSSINGS (TLB HIT):         0 
cpu0_L1D PAGE CROSSINGS (TLB MISS):         0 
cpu0_L1D AVERAGE MISS LATENCY: 60.8803 cycles
cpu0_L2C TOTAL       ACCESS:    8456798  HIT:    1519886  MISS:    6936912  iACCESS:    3716243  iHIT:     792665  iMISS:    2923578  dACCESS:    4275143  dHIT:     536251  dMISS:    3738892  itACCESS:     104452  itHIT:      36683  itMISS:      67769  dtACCESS:     360960  dtHIT:     154287  dtMISS:     206673
cpu0_L2C LOAD         ACCESS:    2012299  HIT:     200205  MISS:    1812094  iACCESS:     830974  iHIT:     111407  iMISS:     719567  dACCESS:    1181325  dHIT:      88798  dMISS:    1092527  itACCESS:          0  itHIT:          0  itMISS:          0  dtACCESS:          0  dtHIT:          0  dtMISS:          0
cpu0_L2C RFO          ACCESS:     213518  HIT:      31415  MISS:     182103  iACCESS:          0  iHIT:          0  iMISS:          0  dACCESS:     213518  dHIT:      31415  dMISS:     182103  itACCESS:          0  itHIT:          0  itMISS:          0  dtACCESS:          0  dtHIT:          0  dtMISS:          0
cpu0_L2C PREFETCH     ACCESS:    5419630  HIT:     996064  MISS:    4423566  iACCESS:    2885269  iHIT:     681258  iMISS:    2204011  dACCESS:    2534361  dHIT:     314806  dMISS:    2219555  itACCESS:          0  itHIT:          0  itMISS:          0  dtACCESS:          0  dtHIT:          0  dtMISS:          0
cpu0_L2C WRITE        ACCESS:     345939  HIT:     101232  MISS:     244707  iACCESS:          0  iHIT:          0  iMISS:          0  dACCESS:     345939  dHIT:     101232  dMISS:     244707  itACCESS:          0  itHIT:          0  itMISS:          0  dtACCESS:          0  dtHIT:          0  dtMISS:          0
cpu0_L2C TRANSLATION  ACCESS:     465412  HIT:     190970  MISS:     274442  iACCESS:          0  iHIT:          0  iMISS:          0  dACCESS:          0  dHIT:          0  dMISS:          0  itACCESS:     104452  itHIT:      36683  itMISS:      67769  dtACCESS:     360960  dtHIT:     154287  dtMISS:     206673
cpu0_L2C PREFETCH  REQUESTED:    1501815  ISSUED:    1501815  CROSSED:          0  USEFUL:     411253  USELESS:     475361
cpu0_L2C AVERAGE iMISS LATENCY: 25.5497 cycles
cpu0_L2C AVERAGE dMISS LATENCY: 48.0624 cycles
cpu0_L2C AVERAGE itMISS LATENCY: 1.53488 cycles
cpu0_L2C AVERAGE dtMISS LATENCY: 4.83046 cycles
cpu0_L2C PAGE CROSSINGS (TLB HIT):         0 
cpu0_L2C PAGE CROSSINGS (TLB MISS):         0 
cpu0_L2C AVERAGE MISS LATENCY: 79.9774 cycles
LLC TOTAL       ACCESS:    6755515  HIT:    4245770  MISS:    2509745  iACCESS:    2832132  iHIT:    2057359  iMISS:     774773  dACCESS:    3648941  dHIT:    2121980  dMISS:    1526961  itACCESS:      67769  itHIT:      15911  itMISS:      51858  dtACCESS:     206673  dtHIT:      50520  dtMISS:     156153
LLC LOAD         ACCESS:    1806867  HIT:    1201335  MISS:     605532  iACCESS:     718235  iHIT:     554344  iMISS:     163891  dACCESS:    1088632  dHIT:     646991  dMISS:     441641  itACCESS:          0  itHIT:          0  itMISS:          0  dtACCESS:          0  dtHIT:          0  dtMISS:          0
LLC RFO          ACCESS:     182085  HIT:      96744  MISS:      85341  iACCESS:          0  iHIT:          0  iMISS:          0  dACCESS:     182085  dHIT:      96744  dMISS:      85341  itACCESS:          0  itHIT:          0  itMISS:          0  dtACCESS:          0  dtHIT:          0  dtMISS:          0
LLC PREFETCH     ACCESS:    4217969  HIT:    2613819  MISS:    1604150  iACCESS:    2113897  iHIT:    1503015  iMISS:     610882  dACCESS:    2104072  dHIT:    1110804  dMISS:     993268  itACCESS:          0  itHIT:          0  itMISS:          0  dtACCESS:          0  dtHIT:          0  dtMISS:          0
LLC WRITE        ACCESS:     274152  HIT:     267441  MISS:       6711  iACCESS:          0  iHIT:          0  iMISS:          0  dACCESS:     274152  dHIT:     267441  dMISS:       6711  itACCESS:          0  itHIT:          0  itMISS:          0  dtACCESS:          0  dtHIT:          0  dtMISS:          0
LLC TRANSLATION  ACCESS:     274442  HIT:      66431  MISS:     208011  iACCESS:          0  iHIT:          0  iMISS:          0  dACCESS:          0  dHIT:          0  dMISS:          0  itACCESS:      67769  itHIT:      15911  itMISS:      51858  dtACCESS:     206673  dtHIT:      50520  dtMISS:     156153
LLC PREFETCH  REQUESTED:          0  ISSUED:          0  CROSSED:          0  USEFUL:          0  USELESS:          0
LLC AVERAGE iMISS LATENCY: 48.7196 cycles
LLC AVERAGE dMISS LATENCY: 107.385 cycles
LLC AVERAGE itMISS LATENCY: 3.71042 cycles
LLC AVERAGE dtMISS LATENCY: 11.7302 cycles
LLC PAGE CROSSINGS (TLB HIT):         0 
LLC PAGE CROSSINGS (TLB MISS):         0 
LLC AVERAGE MISS LATENCY: 171.545 cycles

PageTableWalker TOTAL       ACCESS:     182604  
PageTableWalker AVERAGE LATENCY: 5.82043 cycles
PageTableWalker TOTAL LATENCY: 1062833 cycles

DRAM Statistics
Channel 0
 RQ ROW_BUFFER_HIT:     552603
  ROW_BUFFER_MISS:    1940011
 AVG DBUS CONGESTED CYCLE:    3.65011
 WQ ROW_BUFFER_HIT:      62313
  ROW_BUFFER_MISS:      60549  FULL:          0

