last_page:0x200000000000000
VMEM_RES_CAP:0x100000
PAGE_SIZE:4096
LOG2_PAGE_SIZE:12
LOG2_PAGE_TABLE_SIZE:9
page_table_levels:5
WARNING: physical memory size is smaller than virtual memory size
FDiP enabled with aggresivity 16

*** ChampSim Multicore Out-of-Order Simulator ***

Warmup Instructions: 50000000
Simulation Instructions: 100000000
Number of CPUs: 1
Small page size: 4096
Large page size: 2097152

CPU 0 Bimodal branch predictor
Basic BTB sets: 1024 ways: 8 indirect buffer size: 4096 RAS size: 64
Instruction page size distrubution: 0
Loading instruction page size distribution from /home/bsc/bsc018186/scratch/itp_asplos25_AE/dump/smt_srv85_ap_srv298_ap_1024i.pdst
Data page size distrubution: 0
Loading data page size distribution from /home/bsc/bsc018186/scratch/itp_asplos25_AE/dump/smt_srv85_ap_srv298_ap_1024i.pdst
cpu0_L2C IP-based stride prefetcher
cpu0_L1D next line prefetcher
cpu0_STLB using iTP with max lru@8
cpu0_STLB using iTP with instr@0 and data@2
Init sat counter with 3 bits (max:50).
cpu0_L1I next line prefetcher
Off-chip DRAM Size: 4 GiB Channels: 1 Width: 64-bit Data Rate: 3200 MT/s
Heartbeat CPU 0 instructions: 10000003 cycles: 2500179 heartbeat IPC: 3.99972 cumulative IPC: 3.99972 (Simulation time: 0 hr 1 min 1 sec) 
Heartbeat CPU 0 instructions: 20000000 cycles: 5000390 heartbeat IPC: 3.99967 cumulative IPC: 3.99969 (Simulation time: 0 hr 2 min 3 sec) 
Heartbeat CPU 0 instructions: 30000000 cycles: 7500551 heartbeat IPC: 3.99975 cumulative IPC: 3.99971 (Simulation time: 0 hr 3 min 9 sec) 
Heartbeat CPU 0 instructions: 40000001 cycles: 10000682 heartbeat IPC: 3.9998 cumulative IPC: 3.99973 (Simulation time: 0 hr 4 min 14 sec) 
Heartbeat CPU 0 instructions: 50000000 cycles: 12500967 heartbeat IPC: 3.99955 cumulative IPC: 3.9997 (Simulation time: 0 hr 5 min 18 sec) 
Warmup finished CPU 0 instructions: 50000000 cycles: 12500968 cumulative IPC: 3.9997 (Simulation time: 0 hr 5 min 18 sec) 

Warmup complete CPU 0 instructions: 50000000 cycles: 12500968 (Simulation time: 0 hr 5 min 18 sec) 

Heartbeat CPU 0 instructions: 60000003 cycles: 38804953 heartbeat IPC: 0.380171 cumulative IPC: 0.380171 (Simulation time: 0 hr 7 min 15 sec) 
Heartbeat CPU 0 instructions: 70000001 cycles: 64693980 heartbeat IPC: 0.386264 cumulative IPC: 0.383194 (Simulation time: 0 hr 9 min 15 sec) 
Heartbeat CPU 0 instructions: 80000000 cycles: 90751431 heartbeat IPC: 0.383768 cumulative IPC: 0.383385 (Simulation time: 0 hr 11 min 13 sec) 
Heartbeat CPU 0 instructions: 90000002 cycles: 117587279 heartbeat IPC: 0.372636 cumulative IPC: 0.38064 (Simulation time: 0 hr 13 min 12 sec) 
Heartbeat CPU 0 instructions: 100000000 cycles: 144186261 heartbeat IPC: 0.375955 cumulative IPC: 0.379694 (Simulation time: 0 hr 15 min 13 sec) 
Heartbeat CPU 0 instructions: 110000001 cycles: 171158785 heartbeat IPC: 0.370748 cumulative IPC: 0.378173 (Simulation time: 0 hr 17 min 12 sec) 
Heartbeat CPU 0 instructions: 120000000 cycles: 197335709 heartbeat IPC: 0.382016 cumulative IPC: 0.378717 (Simulation time: 0 hr 19 min 10 sec) 
Heartbeat CPU 0 instructions: 130000003 cycles: 225211653 heartbeat IPC: 0.358733 cumulative IPC: 0.376098 (Simulation time: 0 hr 21 min 11 sec) 
Heartbeat CPU 0 instructions: 140000004 cycles: 252103921 heartbeat IPC: 0.371855 cumulative IPC: 0.375622 (Simulation time: 0 hr 23 min 13 sec) 
Heartbeat CPU 0 instructions: 150000002 cycles: 279704271 heartbeat IPC: 0.362315 cumulative IPC: 0.374247 (Simulation time: 0 hr 25 min 1 sec) 
Simulation finished CPU 0 instructions: 100000002 cycles: 267203304 cumulative IPC: 0.374247 (Simulation time: 0 hr 25 min 1 sec) 

Simulation complete CPU 0 instructions: 100000002 cycles: 267203304 (Simulation time: 0 hr 25 min 1 sec) 


ChampSim completed all CPUs

Saving instructions large page distribution to /home/bsc/bsc018186/scratch/itp_asplos25_AE/dump/smt_srv85_ap_srv298_ap_1024i.pdst...
Saving data large page distribution to /home/bsc/bsc018186/scratch/itp_asplos25_AE/dump/smt_srv85_ap_srv298_ap_1024i.pdst...
=== Simulation ===
CPU 0 runs /gpfs/projects/bsc18/MN4/bsc18/romol/ChampSim/traces/qualcomm_srv/smt_srv85_ap_srv298_ap_1024i.champsimtrace.xz

Region of Interest Statistics

CPU 0 cumulative IPC: 0.374247 instructions: 100000002 cycles: 267203304
CPU 0 Branch Prediction Accuracy: 75.772% MPKI: 43.5968 Average ROB Occupancy at Mispredict: 11.0397
Branch type MPKI
BRANCH_DIRECT_JUMP: 1.31237
BRANCH_INDIRECT: 22.8552
BRANCH_CONDITIONAL: 12.5628
BRANCH_DIRECT_CALL: 2.48014
BRANCH_INDIRECT_CALL: 0.94035
BRANCH_RETURN: 3.44596

Instructions large pages: 0
Instructions small pages: 13541
Large page distribution for instructions: 0%

Data large pages: 0
Data small pages: 12237
Large page distribution for data: 0%

cpu0_L1I TOTAL       ACCESS:   39660685  HIT:   30393783  MISS:    9266902  iACCESS:   39660685  iHIT:   30393783  iMISS:    9266902  dACCESS:          0  dHIT:          0  dMISS:          0  itACCESS:          0  itHIT:          0  itMISS:          0  dtACCESS:          0  dtHIT:          0  dtMISS:          0
cpu0_L1I LOAD         ACCESS:   11928534  HIT:    9405628  MISS:    2522906  iACCESS:   11928534  iHIT:    9405628  iMISS:    2522906  dACCESS:          0  dHIT:          0  dMISS:          0  itACCESS:          0  itHIT:          0  itMISS:          0  dtACCESS:          0  dtHIT:          0  dtMISS:          0
cpu0_L1I RFO          ACCESS:          0  HIT:          0  MISS:          0  iACCESS:          0  iHIT:          0  iMISS:          0  dACCESS:          0  dHIT:          0  dMISS:          0  itACCESS:          0  itHIT:          0  itMISS:          0  dtACCESS:          0  dtHIT:          0  dtMISS:          0
cpu0_L1I PREFETCH     ACCESS:   27732151  HIT:   20988155  MISS:    6743996  iACCESS:   27732151  iHIT:   20988155  iMISS:    6743996  dACCESS:          0  dHIT:          0  dMISS:          0  itACCESS:          0  itHIT:          0  itMISS:          0  dtACCESS:          0  dtHIT:          0  dtMISS:          0
cpu0_L1I WRITE        ACCESS:          0  HIT:          0  MISS:          0  iACCESS:          0  iHIT:          0  iMISS:          0  dACCESS:          0  dHIT:          0  dMISS:          0  itACCESS:          0  itHIT:          0  itMISS:          0  dtACCESS:          0  dtHIT:          0  dtMISS:          0
cpu0_L1I TRANSLATION  ACCESS:          0  HIT:          0  MISS:          0  iACCESS:          0  iHIT:          0  iMISS:          0  dACCESS:          0  dHIT:          0  dMISS:          0  itACCESS:          0  itHIT:          0  itMISS:          0  dtACCESS:          0  dtHIT:          0  dtMISS:          0
cpu0_L1I PREFETCH  REQUESTED:   30426491  ISSUED:   30424799  CROSSED:          0  USEFUL:    2218087  USELESS:     763495
cpu0_L1I AVERAGE iMISS LATENCY: 22.8548 cycles
cpu0_L1I AVERAGE dMISS LATENCY: 0 cycles
cpu0_L1I AVERAGE itMISS LATENCY: 0 cycles
cpu0_L1I AVERAGE dtMISS LATENCY: 0 cycles
cpu0_L1I PAGE CROSSINGS (TLB HIT):         0 
cpu0_L1I PAGE CROSSINGS (TLB MISS):         0 
cpu0_L1I AVERAGE MISS LATENCY: 22.8548 cycles
cpu0_ITLB TOTAL       ACCESS:   33243930  HIT:   31026993  MISS:    2216937  iACCESS:   33243930  iHIT:   31026993  iMISS:    2216937  dACCESS:          0  dHIT:          0  dMISS:          0  itACCESS:          0  itHIT:          0  itMISS:          0  dtACCESS:          0  dtHIT:          0  dtMISS:          0
cpu0_ITLB LOAD         ACCESS:   33243930  HIT:   31026993  MISS:    2216937  iACCESS:   33243930  iHIT:   31026993  iMISS:    2216937  dACCESS:          0  dHIT:          0  dMISS:          0  itACCESS:          0  itHIT:          0  itMISS:          0  dtACCESS:          0  dtHIT:          0  dtMISS:          0
cpu0_ITLB RFO          ACCESS:          0  HIT:          0  MISS:          0  iACCESS:          0  iHIT:          0  iMISS:          0  dACCESS:          0  dHIT:          0  dMISS:          0  itACCESS:          0  itHIT:          0  itMISS:          0  dtACCESS:          0  dtHIT:          0  dtMISS:          0
cpu0_ITLB PREFETCH     ACCESS:          0  HIT:          0  MISS:          0  iACCESS:          0  iHIT:          0  iMISS:          0  dACCESS:          0  dHIT:          0  dMISS:          0  itACCESS:          0  itHIT:          0  itMISS:          0  dtACCESS:          0  dtHIT:          0  dtMISS:          0
cpu0_ITLB WRITE        ACCESS:          0  HIT:          0  MISS:          0  iACCESS:          0  iHIT:          0  iMISS:          0  dACCESS:          0  dHIT:          0  dMISS:          0  itACCESS:          0  itHIT:          0  itMISS:          0  dtACCESS:          0  dtHIT:          0  dtMISS:          0
cpu0_ITLB TRANSLATION  ACCESS:          0  HIT:          0  MISS:          0  iACCESS:          0  iHIT:          0  iMISS:          0  dACCESS:          0  dHIT:          0  dMISS:          0  itACCESS:          0  itHIT:          0  itMISS:          0  dtACCESS:          0  dtHIT:          0  dtMISS:          0
cpu0_ITLB PREFETCH  REQUESTED:          0  ISSUED:          0  CROSSED:          0  USEFUL:     388716  USELESS:      78085
cpu0_ITLB AVERAGE iMISS LATENCY: 5.07096 cycles
cpu0_ITLB AVERAGE dMISS LATENCY: 0 cycles
cpu0_ITLB AVERAGE itMISS LATENCY: 0 cycles
cpu0_ITLB AVERAGE dtMISS LATENCY: 0 cycles
cpu0_ITLB PAGE CROSSINGS (TLB HIT):         0 
cpu0_ITLB PAGE CROSSINGS (TLB MISS):         0 
cpu0_ITLB AVERAGE MISS LATENCY: 5.07096 cycles
cpu0_DTLB TOTAL       ACCESS:   28826256  HIT:   25112521  MISS:    3713735  iACCESS:          0  iHIT:          0  iMISS:          0  dACCESS:   28826256  dHIT:   25112521  dMISS:    3713735  itACCESS:          0  itHIT:          0  itMISS:          0  dtACCESS:          0  dtHIT:          0  dtMISS:          0
cpu0_DTLB LOAD         ACCESS:   28826256  HIT:   25112521  MISS:    3713735  iACCESS:          0  iHIT:          0  iMISS:          0  dACCESS:   28826256  dHIT:   25112521  dMISS:    3713735  itACCESS:          0  itHIT:          0  itMISS:          0  dtACCESS:          0  dtHIT:          0  dtMISS:          0
cpu0_DTLB RFO          ACCESS:          0  HIT:          0  MISS:          0  iACCESS:          0  iHIT:          0  iMISS:          0  dACCESS:          0  dHIT:          0  dMISS:          0  itACCESS:          0  itHIT:          0  itMISS:          0  dtACCESS:          0  dtHIT:          0  dtMISS:          0
cpu0_DTLB PREFETCH     ACCESS:          0  HIT:          0  MISS:          0  iACCESS:          0  iHIT:          0  iMISS:          0  dACCESS:          0  dHIT:          0  dMISS:          0  itACCESS:          0  itHIT:          0  itMISS:          0  dtACCESS:          0  dtHIT:          0  dtMISS:          0
cpu0_DTLB WRITE        ACCESS:          0  HIT:          0  MISS:          0  iACCESS:          0  iHIT:          0  iMISS:          0  dACCESS:          0  dHIT:          0  dMISS:          0  itACCESS:          0  itHIT:          0  itMISS:          0  dtACCESS:          0  dtHIT:          0  dtMISS:          0
cpu0_DTLB TRANSLATION  ACCESS:          0  HIT:          0  MISS:          0  iACCESS:          0  iHIT:          0  iMISS:          0  dACCESS:          0  dHIT:          0  dMISS:          0  itACCESS:          0  itHIT:          0  itMISS:          0  dtACCESS:          0  dtHIT:          0  dtMISS:          0
cpu0_DTLB PREFETCH  REQUESTED:          0  ISSUED:          0  CROSSED:          0  USEFUL:          0  USELESS:          0
cpu0_DTLB AVERAGE iMISS LATENCY: 0 cycles
cpu0_DTLB AVERAGE dMISS LATENCY: 18.1215 cycles
cpu0_DTLB AVERAGE itMISS LATENCY: 0 cycles
cpu0_DTLB AVERAGE dtMISS LATENCY: 0 cycles
cpu0_DTLB PAGE CROSSINGS (TLB HIT):         0 
cpu0_DTLB PAGE CROSSINGS (TLB MISS):         0 
cpu0_DTLB AVERAGE MISS LATENCY: 18.1215 cycles
cpu0_STLB TOTAL       ACCESS:    2613249  HIT:    2252568  MISS:     360681  iACCESS:     466806  iHIT:     416833  iMISS:      49973  dACCESS:    2146443  dHIT:    1835735  dMISS:     310708  itACCESS:          0  itHIT:          0  itMISS:          0  dtACCESS:          0  dtHIT:          0  dtMISS:          0
cpu0_STLB LOAD         ACCESS:    2613249  HIT:    2252568  MISS:     360681  iACCESS:     466806  iHIT:     416833  iMISS:      49973  dACCESS:    2146443  dHIT:    1835735  dMISS:     310708  itACCESS:          0  itHIT:          0  itMISS:          0  dtACCESS:          0  dtHIT:          0  dtMISS:          0
cpu0_STLB RFO          ACCESS:          0  HIT:          0  MISS:          0  iACCESS:          0  iHIT:          0  iMISS:          0  dACCESS:          0  dHIT:          0  dMISS:          0  itACCESS:          0  itHIT:          0  itMISS:          0  dtACCESS:          0  dtHIT:          0  dtMISS:          0
cpu0_STLB PREFETCH     ACCESS:          0  HIT:          0  MISS:          0  iACCESS:          0  iHIT:          0  iMISS:          0  dACCESS:          0  dHIT:          0  dMISS:          0  itACCESS:          0  itHIT:          0  itMISS:          0  dtACCESS:          0  dtHIT:          0  dtMISS:          0
cpu0_STLB WRITE        ACCESS:          0  HIT:          0  MISS:          0  iACCESS:          0  iHIT:          0  iMISS:          0  dACCESS:          0  dHIT:          0  dMISS:          0  itACCESS:          0  itHIT:          0  itMISS:          0  dtACCESS:          0  dtHIT:          0  dtMISS:          0
cpu0_STLB TRANSLATION  ACCESS:          0  HIT:          0  MISS:          0  iACCESS:          0  iHIT:          0  iMISS:          0  dACCESS:          0  dHIT:          0  dMISS:          0  itACCESS:          0  itHIT:          0  itMISS:          0  dtACCESS:          0  dtHIT:          0  dtMISS:          0
cpu0_STLB PREFETCH  REQUESTED:          0  ISSUED:          0  CROSSED:          0  USEFUL:          0  USELESS:          0
cpu0_STLB AVERAGE iMISS LATENCY: 21.025 cycles
cpu0_STLB AVERAGE dMISS LATENCY: 138.642 cycles
cpu0_STLB AVERAGE itMISS LATENCY: 0 cycles
cpu0_STLB AVERAGE dtMISS LATENCY: 0 cycles
cpu0_STLB PAGE CROSSINGS (TLB HIT):         0 
cpu0_STLB PAGE CROSSINGS (TLB MISS):         0 
cpu0_STLB AVERAGE MISS LATENCY: 159.667 cycles
cpu0_L1D TOTAL       ACCESS:   44540570  HIT:   39117680  MISS:    5422890  iACCESS:          0  iHIT:          0  iMISS:          0  dACCESS:   43982688  dHIT:   39088263  dMISS:    4894425  itACCESS:      59973  itHIT:       5012  itMISS:      54961  dtACCESS:     497909  dtHIT:      24405  dtMISS:     473504
cpu0_L1D LOAD         ACCESS:   20043588  HIT:   17848104  MISS:    2195484  iACCESS:          0  iHIT:          0  iMISS:          0  dACCESS:   20043588  dHIT:   17848104  dMISS:    2195484  itACCESS:          0  itHIT:          0  itMISS:          0  dtACCESS:          0  dtHIT:          0  dtMISS:          0
cpu0_L1D RFO          ACCESS:          0  HIT:          0  MISS:          0  iACCESS:          0  iHIT:          0  iMISS:          0  dACCESS:          0  dHIT:          0  dMISS:          0  itACCESS:          0  itHIT:          0  itMISS:          0  dtACCESS:          0  dtHIT:          0  dtMISS:          0
cpu0_L1D PREFETCH     ACCESS:   13773027  HIT:   11641101  MISS:    2131926  iACCESS:          0  iHIT:          0  iMISS:          0  dACCESS:   13773027  dHIT:   11641101  dMISS:    2131926  itACCESS:          0  itHIT:          0  itMISS:          0  dtACCESS:          0  dtHIT:          0  dtMISS:          0
cpu0_L1D WRITE        ACCESS:   10166073  HIT:    9599058  MISS:     567015  iACCESS:          0  iHIT:          0  iMISS:          0  dACCESS:   10166073  dHIT:    9599058  dMISS:     567015  itACCESS:          0  itHIT:          0  itMISS:          0  dtACCESS:          0  dtHIT:          0  dtMISS:          0
cpu0_L1D TRANSLATION  ACCESS:     557882  HIT:      29417  MISS:     528465  iACCESS:          0  iHIT:          0  iMISS:          0  dACCESS:          0  dHIT:          0  dMISS:          0  itACCESS:      59973  itHIT:       5012  itMISS:      54961  dtACCESS:     497909  dtHIT:      24405  dtMISS:     473504
cpu0_L1D PREFETCH  REQUESTED:   20043588  ISSUED:   18391932  CROSSED:          0  USEFUL:     358889  USELESS:     936604
cpu0_L1D AVERAGE iMISS LATENCY: 0 cycles
cpu0_L1D AVERAGE dMISS LATENCY: 50.6031 cycles
cpu0_L1D AVERAGE itMISS LATENCY: 1.29962 cycles
cpu0_L1D AVERAGE dtMISS LATENCY: 8.14078 cycles
cpu0_L1D PAGE CROSSINGS (TLB HIT):         0 
cpu0_L1D PAGE CROSSINGS (TLB MISS):         0 
cpu0_L1D AVERAGE MISS LATENCY: 60.0435 cycles
cpu0_L2C TOTAL       ACCESS:    8633778  HIT:    1587691  MISS:    7046087  iACCESS:    3791504  iHIT:     824483  iMISS:    2967021  dACCESS:    4341920  dHIT:     557766  dMISS:    3784154  itACCESS:      54403  itHIT:      14360  itMISS:      40043  dtACCESS:     445951  dtHIT:     191082  dtMISS:     254869
cpu0_L2C LOAD         ACCESS:    2063060  HIT:     223580  MISS:    1839480  iACCESS:     847416  iHIT:     123229  iMISS:     724187  dACCESS:    1215644  dHIT:     100351  dMISS:    1115293  itACCESS:          0  itHIT:          0  itMISS:          0  dtACCESS:          0  dtHIT:          0  dtMISS:          0
cpu0_L2C RFO          ACCESS:     211091  HIT:      32040  MISS:     179051  iACCESS:          0  iHIT:          0  iMISS:          0  dACCESS:     211091  dHIT:      32040  dMISS:     179051  itACCESS:          0  itHIT:          0  itMISS:          0  dtACCESS:          0  dtHIT:          0  dtMISS:          0
cpu0_L2C PREFETCH     ACCESS:    5510011  HIT:    1016893  MISS:    4493118  iACCESS:    2944088  iHIT:     701254  iMISS:    2242834  dACCESS:    2565923  dHIT:     315639  dMISS:    2250284  itACCESS:          0  itHIT:          0  itMISS:          0  dtACCESS:          0  dtHIT:          0  dtMISS:          0
cpu0_L2C WRITE        ACCESS:     349262  HIT:     109736  MISS:     239526  iACCESS:          0  iHIT:          0  iMISS:          0  dACCESS:     349262  dHIT:     109736  dMISS:     239526  itACCESS:          0  itHIT:          0  itMISS:          0  dtACCESS:          0  dtHIT:          0  dtMISS:          0
cpu0_L2C TRANSLATION  ACCESS:     500354  HIT:     205442  MISS:     294912  iACCESS:          0  iHIT:          0  iMISS:          0  dACCESS:          0  dHIT:          0  dMISS:          0  itACCESS:      54403  itHIT:      14360  itMISS:      40043  dtACCESS:     445951  dtHIT:     191082  dtMISS:     254869
cpu0_L2C PREFETCH  REQUESTED:    1518255  ISSUED:    1518255  CROSSED:          0  USEFUL:     413568  USELESS:     487527
cpu0_L2C AVERAGE iMISS LATENCY: 25.3967 cycles
cpu0_L2C AVERAGE dMISS LATENCY: 47.8036 cycles
cpu0_L2C AVERAGE itMISS LATENCY: 0.924859 cycles
cpu0_L2C AVERAGE dtMISS LATENCY: 5.65672 cycles
cpu0_L2C PAGE CROSSINGS (TLB HIT):         0 
cpu0_L2C PAGE CROSSINGS (TLB MISS):         0 
cpu0_L2C AVERAGE MISS LATENCY: 79.7818 cycles
LLC TOTAL       ACCESS:    6866199  HIT:    4323565  MISS:    2542634  iACCESS:    2875568  iHIT:    2095906  iMISS:     779662  dACCESS:    3695719  dHIT:    2150430  dMISS:    1545289  itACCESS:      40043  itHIT:       7938  itMISS:      32105  dtACCESS:     254869  dtHIT:      69291  dtMISS:     185578
LLC LOAD         ACCESS:    1833567  HIT:    1222036  MISS:     611531  iACCESS:     722825  iHIT:     561216  iMISS:     161609  dACCESS:    1110742  dHIT:     660820  dMISS:     449922  itACCESS:          0  itHIT:          0  itMISS:          0  dtACCESS:          0  dtHIT:          0  dtMISS:          0
LLC RFO          ACCESS:     179041  HIT:      95226  MISS:      83815  iACCESS:          0  iHIT:          0  iMISS:          0  dACCESS:     179041  dHIT:      95226  dMISS:      83815  itACCESS:          0  itHIT:          0  itMISS:          0  dtACCESS:          0  dtHIT:          0  dtMISS:          0
LLC PREFETCH     ACCESS:    4285333  HIT:    2663276  MISS:    1622057  iACCESS:    2152743  iHIT:    1534690  iMISS:     618053  dACCESS:    2132590  dHIT:    1128586  dMISS:    1004004  itACCESS:          0  itHIT:          0  itMISS:          0  dtACCESS:          0  dtHIT:          0  dtMISS:          0
LLC WRITE        ACCESS:     273346  HIT:     265798  MISS:       7548  iACCESS:          0  iHIT:          0  iMISS:          0  dACCESS:     273346  dHIT:     265798  dMISS:       7548  itACCESS:          0  itHIT:          0  itMISS:          0  dtACCESS:          0  dtHIT:          0  dtMISS:          0
LLC TRANSLATION  ACCESS:     294912  HIT:      77229  MISS:     217683  iACCESS:          0  iHIT:          0  iMISS:          0  dACCESS:          0  dHIT:          0  dMISS:          0  itACCESS:      40043  itHIT:       7938  itMISS:      32105  dtACCESS:     254869  dtHIT:      69291  dtMISS:     185578
LLC PREFETCH  REQUESTED:          0  ISSUED:          0  CROSSED:          0  USEFUL:          0  USELESS:          0
LLC AVERAGE iMISS LATENCY: 48.4344 cycles
LLC AVERAGE dMISS LATENCY: 106.959 cycles
LLC AVERAGE itMISS LATENCY: 2.2523 cycles
LLC AVERAGE dtMISS LATENCY: 13.704 cycles
LLC PAGE CROSSINGS (TLB HIT):         0 
LLC PAGE CROSSINGS (TLB MISS):         0 
LLC AVERAGE MISS LATENCY: 171.35 cycles

PageTableWalker TOTAL       ACCESS:     181032  
PageTableWalker AVERAGE LATENCY: 6.16775 cycles
PageTableWalker TOTAL LATENCY: 1116559 cycles

DRAM Statistics
Channel 0
 RQ ROW_BUFFER_HIT:     567583
  ROW_BUFFER_MISS:    1957297
 AVG DBUS CONGESTED CYCLE:    3.65044
 WQ ROW_BUFFER_HIT:      62243
  ROW_BUFFER_MISS:      61062  FULL:          0

