last_page:0x200000000000000
VMEM_RES_CAP:0x100000
PAGE_SIZE:4096
LOG2_PAGE_SIZE:12
LOG2_PAGE_TABLE_SIZE:9
page_table_levels:5
WARNING: physical memory size is smaller than virtual memory size
FDiP enabled with aggresivity 16

*** ChampSim Multicore Out-of-Order Simulator ***

Warmup Instructions: 50000000
Simulation Instructions: 100000000
Number of CPUs: 1
Small page size: 4096
Large page size: 2097152

CPU 0 Bimodal branch predictor
Basic BTB sets: 1024 ways: 8 indirect buffer size: 4096 RAS size: 64
Instruction page size distrubution: 0
Loading instruction page size distribution from /home/bsc/bsc018186/scratch/itp_asplos25_AE/dump/smt_srv537_ap_srv194_ap_1024i.pdst
Data page size distrubution: 0
Loading data page size distribution from /home/bsc/bsc018186/scratch/itp_asplos25_AE/dump/smt_srv537_ap_srv194_ap_1024i.pdst
cpu0_L2C IP-based stride prefetcher
cpu0_L2C is using PTP replacement policy:
	TLB_STRESS_THRESHOLD:0
	PTE_EVICTION_RATIO:0
cpu0_L1D next line prefetcher
CHiRPing...
cpu0_L1I next line prefetcher
Off-chip DRAM Size: 4 GiB Channels: 1 Width: 64-bit Data Rate: 3200 MT/s
Heartbeat CPU 0 instructions: 10000001 cycles: 2500628 heartbeat IPC: 3.999 cumulative IPC: 3.999 (Simulation time: 0 hr 0 min 36 sec) 
Heartbeat CPU 0 instructions: 20000000 cycles: 5001088 heartbeat IPC: 3.99927 cumulative IPC: 3.99913 (Simulation time: 0 hr 1 min 14 sec) 
Heartbeat CPU 0 instructions: 30000000 cycles: 7501455 heartbeat IPC: 3.99942 cumulative IPC: 3.99923 (Simulation time: 0 hr 1 min 52 sec) 
Heartbeat CPU 0 instructions: 40000000 cycles: 10002200 heartbeat IPC: 3.99881 cumulative IPC: 3.99913 (Simulation time: 0 hr 2 min 31 sec) 
Heartbeat CPU 0 instructions: 50000002 cycles: 12579600 heartbeat IPC: 3.87988 cumulative IPC: 3.97469 (Simulation time: 0 hr 3 min 8 sec) 
Warmup finished CPU 0 instructions: 50000002 cycles: 12579601 cumulative IPC: 3.97469 (Simulation time: 0 hr 3 min 8 sec) 

Warmup complete CPU 0 instructions: 50000002 cycles: 12579601 (Simulation time: 0 hr 3 min 8 sec) 

Heartbeat CPU 0 instructions: 60000004 cycles: 29782065 heartbeat IPC: 0.581313 cumulative IPC: 0.581313 (Simulation time: 0 hr 4 min 15 sec) 
Heartbeat CPU 0 instructions: 70000001 cycles: 51738233 heartbeat IPC: 0.455453 cumulative IPC: 0.510744 (Simulation time: 0 hr 5 min 27 sec) 
Heartbeat CPU 0 instructions: 80000003 cycles: 83952396 heartbeat IPC: 0.310423 cumulative IPC: 0.420329 (Simulation time: 0 hr 6 min 52 sec) 
Heartbeat CPU 0 instructions: 90000000 cycles: 114956304 heartbeat IPC: 0.32254 cumulative IPC: 0.390714 (Simulation time: 0 hr 8 min 15 sec) 
Heartbeat CPU 0 instructions: 100000003 cycles: 146040677 heartbeat IPC: 0.321706 cumulative IPC: 0.374642 (Simulation time: 0 hr 9 min 38 sec) 
Heartbeat CPU 0 instructions: 110000000 cycles: 177452563 heartbeat IPC: 0.318351 cumulative IPC: 0.363917 (Simulation time: 0 hr 11 min 2 sec) 
Heartbeat CPU 0 instructions: 120000003 cycles: 209179371 heartbeat IPC: 0.315191 cumulative IPC: 0.356054 (Simulation time: 0 hr 12 min 26 sec) 
Heartbeat CPU 0 instructions: 130000001 cycles: 240404527 heartbeat IPC: 0.320255 cumulative IPC: 0.351147 (Simulation time: 0 hr 13 min 49 sec) 
Heartbeat CPU 0 instructions: 140000004 cycles: 272757778 heartbeat IPC: 0.309089 cumulative IPC: 0.345917 (Simulation time: 0 hr 15 min 14 sec) 
Heartbeat CPU 0 instructions: 150000003 cycles: 305355814 heartbeat IPC: 0.306767 cumulative IPC: 0.341558 (Simulation time: 0 hr 16 min 44 sec) 
Simulation finished CPU 0 instructions: 100000001 cycles: 292776214 cumulative IPC: 0.341558 (Simulation time: 0 hr 16 min 44 sec) 

Simulation complete CPU 0 instructions: 100000001 cycles: 292776214 (Simulation time: 0 hr 16 min 44 sec) 


ChampSim completed all CPUs

Saving instructions large page distribution to /home/bsc/bsc018186/scratch/itp_asplos25_AE/dump/smt_srv537_ap_srv194_ap_1024i.pdst...
Saving data large page distribution to /home/bsc/bsc018186/scratch/itp_asplos25_AE/dump/smt_srv537_ap_srv194_ap_1024i.pdst...
=== Simulation ===
CPU 0 runs /gpfs/projects/bsc18/MN4/bsc18/romol/ChampSim/traces/qualcomm_srv/smt_srv537_ap_srv194_ap_1024i.champsimtrace.xz

Region of Interest Statistics

CPU 0 cumulative IPC: 0.341558 instructions: 100000001 cycles: 292776214
CPU 0 Branch Prediction Accuracy: 76.883% MPKI: 44.0864 Average ROB Occupancy at Mispredict: 10.5266
Branch type MPKI
BRANCH_DIRECT_JUMP: 1.38074
BRANCH_INDIRECT: 23.1592
BRANCH_CONDITIONAL: 12.3292
BRANCH_DIRECT_CALL: 2.63954
BRANCH_INDIRECT_CALL: 1.12195
BRANCH_RETURN: 3.45581

Instructions large pages: 0
Instructions small pages: 11612
Large page distribution for instructions: 0%

Data large pages: 0
Data small pages: 9842
Large page distribution for data: 0%

cpu0_L1I TOTAL       ACCESS:   39858368  HIT:   31534631  MISS:    8323737  iACCESS:   39858368  iHIT:   31534631  iMISS:    8323737  dACCESS:          0  dHIT:          0  dMISS:          0  itACCESS:          0  itHIT:          0  itMISS:          0  dtACCESS:          0  dtHIT:          0  dtMISS:          0
cpu0_L1I LOAD         ACCESS:   11466201  HIT:    9189357  MISS:    2276844  iACCESS:   11466201  iHIT:    9189357  iMISS:    2276844  dACCESS:          0  dHIT:          0  dMISS:          0  itACCESS:          0  itHIT:          0  itMISS:          0  dtACCESS:          0  dtHIT:          0  dtMISS:          0
cpu0_L1I RFO          ACCESS:          0  HIT:          0  MISS:          0  iACCESS:          0  iHIT:          0  iMISS:          0  dACCESS:          0  dHIT:          0  dMISS:          0  itACCESS:          0  itHIT:          0  itMISS:          0  dtACCESS:          0  dtHIT:          0  dtMISS:          0
cpu0_L1I PREFETCH     ACCESS:   28392167  HIT:   22345274  MISS:    6046893  iACCESS:   28392167  iHIT:   22345274  iMISS:    6046893  dACCESS:          0  dHIT:          0  dMISS:          0  itACCESS:          0  itHIT:          0  itMISS:          0  dtACCESS:          0  dtHIT:          0  dtMISS:          0
cpu0_L1I WRITE        ACCESS:          0  HIT:          0  MISS:          0  iACCESS:          0  iHIT:          0  iMISS:          0  dACCESS:          0  dHIT:          0  dMISS:          0  itACCESS:          0  itHIT:          0  itMISS:          0  dtACCESS:          0  dtHIT:          0  dtMISS:          0
cpu0_L1I TRANSLATION  ACCESS:          0  HIT:          0  MISS:          0  iACCESS:          0  iHIT:          0  iMISS:          0  dACCESS:          0  dHIT:          0  dMISS:          0  itACCESS:          0  itHIT:          0  itMISS:          0  dtACCESS:          0  dtHIT:          0  dtMISS:          0
cpu0_L1I PREFETCH  REQUESTED:   31042357  ISSUED:   31042348  CROSSED:          0  USEFUL:    2099808  USELESS:     752316
cpu0_L1I AVERAGE iMISS LATENCY: 25.0362 cycles
cpu0_L1I AVERAGE dMISS LATENCY: 0 cycles
cpu0_L1I AVERAGE itMISS LATENCY: 0 cycles
cpu0_L1I AVERAGE dtMISS LATENCY: 0 cycles
cpu0_L1I PAGE CROSSINGS (TLB HIT):         0 
cpu0_L1I PAGE CROSSINGS (TLB MISS):         0 
cpu0_L1I AVERAGE MISS LATENCY: 25.0362 cycles
cpu0_ITLB TOTAL       ACCESS:   33722416  HIT:   31545523  MISS:    2176893  iACCESS:   33722416  iHIT:   31545523  iMISS:    2176893  dACCESS:          0  dHIT:          0  dMISS:          0  itACCESS:          0  itHIT:          0  itMISS:          0  dtACCESS:          0  dtHIT:          0  dtMISS:          0
cpu0_ITLB LOAD         ACCESS:   33722416  HIT:   31545523  MISS:    2176893  iACCESS:   33722416  iHIT:   31545523  iMISS:    2176893  dACCESS:          0  dHIT:          0  dMISS:          0  itACCESS:          0  itHIT:          0  itMISS:          0  dtACCESS:          0  dtHIT:          0  dtMISS:          0
cpu0_ITLB RFO          ACCESS:          0  HIT:          0  MISS:          0  iACCESS:          0  iHIT:          0  iMISS:          0  dACCESS:          0  dHIT:          0  dMISS:          0  itACCESS:          0  itHIT:          0  itMISS:          0  dtACCESS:          0  dtHIT:          0  dtMISS:          0
cpu0_ITLB PREFETCH     ACCESS:          0  HIT:          0  MISS:          0  iACCESS:          0  iHIT:          0  iMISS:          0  dACCESS:          0  dHIT:          0  dMISS:          0  itACCESS:          0  itHIT:          0  itMISS:          0  dtACCESS:          0  dtHIT:          0  dtMISS:          0
cpu0_ITLB WRITE        ACCESS:          0  HIT:          0  MISS:          0  iACCESS:          0  iHIT:          0  iMISS:          0  dACCESS:          0  dHIT:          0  dMISS:          0  itACCESS:          0  itHIT:          0  itMISS:          0  dtACCESS:          0  dtHIT:          0  dtMISS:          0
cpu0_ITLB TRANSLATION  ACCESS:          0  HIT:          0  MISS:          0  iACCESS:          0  iHIT:          0  iMISS:          0  dACCESS:          0  dHIT:          0  dMISS:          0  itACCESS:          0  itHIT:          0  itMISS:          0  dtACCESS:          0  dtHIT:          0  dtMISS:          0
cpu0_ITLB PREFETCH  REQUESTED:          0  ISSUED:          0  CROSSED:          0  USEFUL:     380744  USELESS:      82290
cpu0_ITLB AVERAGE iMISS LATENCY: 10.5183 cycles
cpu0_ITLB AVERAGE dMISS LATENCY: 0 cycles
cpu0_ITLB AVERAGE itMISS LATENCY: 0 cycles
cpu0_ITLB AVERAGE dtMISS LATENCY: 0 cycles
cpu0_ITLB PAGE CROSSINGS (TLB HIT):         0 
cpu0_ITLB PAGE CROSSINGS (TLB MISS):         0 
cpu0_ITLB AVERAGE MISS LATENCY: 10.5183 cycles
cpu0_DTLB TOTAL       ACCESS:   30314835  HIT:   25256560  MISS:    5058275  iACCESS:          0  iHIT:          0  iMISS:          0  dACCESS:   30314835  dHIT:   25256560  dMISS:    5058275  itACCESS:          0  itHIT:          0  itMISS:          0  dtACCESS:          0  dtHIT:          0  dtMISS:          0
cpu0_DTLB LOAD         ACCESS:   30314835  HIT:   25256560  MISS:    5058275  iACCESS:          0  iHIT:          0  iMISS:          0  dACCESS:   30314835  dHIT:   25256560  dMISS:    5058275  itACCESS:          0  itHIT:          0  itMISS:          0  dtACCESS:          0  dtHIT:          0  dtMISS:          0
cpu0_DTLB RFO          ACCESS:          0  HIT:          0  MISS:          0  iACCESS:          0  iHIT:          0  iMISS:          0  dACCESS:          0  dHIT:          0  dMISS:          0  itACCESS:          0  itHIT:          0  itMISS:          0  dtACCESS:          0  dtHIT:          0  dtMISS:          0
cpu0_DTLB PREFETCH     ACCESS:          0  HIT:          0  MISS:          0  iACCESS:          0  iHIT:          0  iMISS:          0  dACCESS:          0  dHIT:          0  dMISS:          0  itACCESS:          0  itHIT:          0  itMISS:          0  dtACCESS:          0  dtHIT:          0  dtMISS:          0
cpu0_DTLB WRITE        ACCESS:          0  HIT:          0  MISS:          0  iACCESS:          0  iHIT:          0  iMISS:          0  dACCESS:          0  dHIT:          0  dMISS:          0  itACCESS:          0  itHIT:          0  itMISS:          0  dtACCESS:          0  dtHIT:          0  dtMISS:          0
cpu0_DTLB TRANSLATION  ACCESS:          0  HIT:          0  MISS:          0  iACCESS:          0  iHIT:          0  iMISS:          0  dACCESS:          0  dHIT:          0  dMISS:          0  itACCESS:          0  itHIT:          0  itMISS:          0  dtACCESS:          0  dtHIT:          0  dtMISS:          0
cpu0_DTLB PREFETCH  REQUESTED:          0  ISSUED:          0  CROSSED:          0  USEFUL:          0  USELESS:          0
cpu0_DTLB AVERAGE iMISS LATENCY: 0 cycles
cpu0_DTLB AVERAGE dMISS LATENCY: 17.4553 cycles
cpu0_DTLB AVERAGE itMISS LATENCY: 0 cycles
cpu0_DTLB AVERAGE dtMISS LATENCY: 0 cycles
cpu0_DTLB PAGE CROSSINGS (TLB HIT):         0 
cpu0_DTLB PAGE CROSSINGS (TLB MISS):         0 
cpu0_DTLB AVERAGE MISS LATENCY: 17.4553 cycles
cpu0_STLB TOTAL       ACCESS:    3175835  HIT:    2825130  MISS:     350705  iACCESS:     463035  iHIT:     347758  iMISS:     115277  dACCESS:    2712800  dHIT:    2477372  dMISS:     235428  itACCESS:          0  itHIT:          0  itMISS:          0  dtACCESS:          0  dtHIT:          0  dtMISS:          0
cpu0_STLB LOAD         ACCESS:    3175835  HIT:    2825130  MISS:     350705  iACCESS:     463035  iHIT:     347758  iMISS:     115277  dACCESS:    2712800  dHIT:    2477372  dMISS:     235428  itACCESS:          0  itHIT:          0  itMISS:          0  dtACCESS:          0  dtHIT:          0  dtMISS:          0
cpu0_STLB RFO          ACCESS:          0  HIT:          0  MISS:          0  iACCESS:          0  iHIT:          0  iMISS:          0  dACCESS:          0  dHIT:          0  dMISS:          0  itACCESS:          0  itHIT:          0  itMISS:          0  dtACCESS:          0  dtHIT:          0  dtMISS:          0
cpu0_STLB PREFETCH     ACCESS:          0  HIT:          0  MISS:          0  iACCESS:          0  iHIT:          0  iMISS:          0  dACCESS:          0  dHIT:          0  dMISS:          0  itACCESS:          0  itHIT:          0  itMISS:          0  dtACCESS:          0  dtHIT:          0  dtMISS:          0
cpu0_STLB WRITE        ACCESS:          0  HIT:          0  MISS:          0  iACCESS:          0  iHIT:          0  iMISS:          0  dACCESS:          0  dHIT:          0  dMISS:          0  itACCESS:          0  itHIT:          0  itMISS:          0  dtACCESS:          0  dtHIT:          0  dtMISS:          0
cpu0_STLB TRANSLATION  ACCESS:          0  HIT:          0  MISS:          0  iACCESS:          0  iHIT:          0  iMISS:          0  dACCESS:          0  dHIT:          0  dMISS:          0  itACCESS:          0  itHIT:          0  itMISS:          0  dtACCESS:          0  dtHIT:          0  dtMISS:          0
cpu0_STLB PREFETCH  REQUESTED:          0  ISSUED:          0  CROSSED:          0  USEFUL:          0  USELESS:          0
cpu0_STLB AVERAGE iMISS LATENCY: 54.719 cycles
cpu0_STLB AVERAGE dMISS LATENCY: 189.206 cycles
cpu0_STLB AVERAGE itMISS LATENCY: 0 cycles
cpu0_STLB AVERAGE dtMISS LATENCY: 0 cycles
cpu0_STLB PAGE CROSSINGS (TLB HIT):         0 
cpu0_STLB PAGE CROSSINGS (TLB MISS):         0 
cpu0_STLB AVERAGE MISS LATENCY: 243.925 cycles
cpu0_L1D TOTAL       ACCESS:   47260694  HIT:   39783808  MISS:    7476886  iACCESS:          0  iHIT:          0  iMISS:          0  dACCESS:   46744881  dHIT:   39753566  dMISS:    6991315  itACCESS:     128033  itHIT:      14657  itMISS:     113376  dtACCESS:     387780  dtHIT:      15585  dtMISS:     372195
cpu0_L1D LOAD         ACCESS:   22007168  HIT:   18253121  MISS:    3754047  iACCESS:          0  iHIT:          0  iMISS:          0  dACCESS:   22007168  dHIT:   18253121  dMISS:    3754047  itACCESS:          0  itHIT:          0  itMISS:          0  dtACCESS:          0  dtHIT:          0  dtMISS:          0
cpu0_L1D RFO          ACCESS:          0  HIT:          0  MISS:          0  iACCESS:          0  iHIT:          0  iMISS:          0  dACCESS:          0  dHIT:          0  dMISS:          0  itACCESS:          0  itHIT:          0  itMISS:          0  dtACCESS:          0  dtHIT:          0  dtMISS:          0
cpu0_L1D PREFETCH     ACCESS:   14651840  HIT:   12011615  MISS:    2640225  iACCESS:          0  iHIT:          0  iMISS:          0  dACCESS:   14651840  dHIT:   12011615  dMISS:    2640225  itACCESS:          0  itHIT:          0  itMISS:          0  dtACCESS:          0  dtHIT:          0  dtMISS:          0
cpu0_L1D WRITE        ACCESS:   10085873  HIT:    9488830  MISS:     597043  iACCESS:          0  iHIT:          0  iMISS:          0  dACCESS:   10085873  dHIT:    9488830  dMISS:     597043  itACCESS:          0  itHIT:          0  itMISS:          0  dtACCESS:          0  dtHIT:          0  dtMISS:          0
cpu0_L1D TRANSLATION  ACCESS:     515813  HIT:      30242  MISS:     485571  iACCESS:          0  iHIT:          0  iMISS:          0  dACCESS:          0  dHIT:          0  dMISS:          0  itACCESS:     128033  itHIT:      14657  itMISS:     113376  dtACCESS:     387780  dtHIT:      15585  dtMISS:     372195
cpu0_L1D PREFETCH  REQUESTED:   22007168  ISSUED:   18777384  CROSSED:          0  USEFUL:     344223  USELESS:     995971
cpu0_L1D AVERAGE iMISS LATENCY: 0 cycles
cpu0_L1D AVERAGE dMISS LATENCY: 38.7161 cycles
cpu0_L1D AVERAGE itMISS LATENCY: 2.42148 cycles
cpu0_L1D AVERAGE dtMISS LATENCY: 8.3095 cycles
cpu0_L1D PAGE CROSSINGS (TLB HIT):         0 
cpu0_L1D PAGE CROSSINGS (TLB MISS):         0 
cpu0_L1D AVERAGE MISS LATENCY: 49.447 cycles
cpu0_L2C TOTAL       ACCESS:    9544360  HIT:    5123700  MISS:    4420660  iACCESS:    3641578  iHIT:    2131246  iMISS:    1510332  dACCESS:    5452527  dHIT:    2935011  dMISS:    2517516  itACCESS:     113193  itHIT:      20156  itMISS:      93037  dtACCESS:     337062  dtHIT:      37287  dtMISS:     299775
cpu0_L2C LOAD         ACCESS:    3161979  HIT:    2029891  MISS:    1132088  iACCESS:     822124  iHIT:     506305  iMISS:     315819  dACCESS:    2339855  dHIT:    1523586  dMISS:     816269  itACCESS:          0  itHIT:          0  itMISS:          0  dtACCESS:          0  dtHIT:          0  dtMISS:          0
cpu0_L2C RFO          ACCESS:     239385  HIT:     107146  MISS:     132239  iACCESS:          0  iHIT:          0  iMISS:          0  dACCESS:     239385  dHIT:     107146  dMISS:     132239  itACCESS:          0  itHIT:          0  itMISS:          0  dtACCESS:          0  dtHIT:          0  dtMISS:          0
cpu0_L2C PREFETCH     ACCESS:    5355856  HIT:    2606847  MISS:    2749009  iACCESS:    2819454  iHIT:    1624941  iMISS:    1194513  dACCESS:    2536402  dHIT:     981906  dMISS:    1554496  itACCESS:          0  itHIT:          0  itMISS:          0  dtACCESS:          0  dtHIT:          0  dtMISS:          0
cpu0_L2C WRITE        ACCESS:     336885  HIT:     322373  MISS:      14512  iACCESS:          0  iHIT:          0  iMISS:          0  dACCESS:     336885  dHIT:     322373  dMISS:      14512  itACCESS:          0  itHIT:          0  itMISS:          0  dtACCESS:          0  dtHIT:          0  dtMISS:          0
cpu0_L2C TRANSLATION  ACCESS:     450255  HIT:      57443  MISS:     392812  iACCESS:          0  iHIT:          0  iMISS:          0  dACCESS:          0  dHIT:          0  dMISS:          0  itACCESS:     113193  itHIT:      20156  itMISS:      93037  dtACCESS:     337062  dtHIT:      37287  dtMISS:     299775
cpu0_L2C PREFETCH  REQUESTED:    1413438  ISSUED:    1413435  CROSSED:          0  USEFUL:     329912  USELESS:     311647
cpu0_L2C AVERAGE iMISS LATENCY: 40.2351 cycles
cpu0_L2C AVERAGE dMISS LATENCY: 76.6099 cycles
cpu0_L2C AVERAGE itMISS LATENCY: 3.84335 cycles
cpu0_L2C AVERAGE dtMISS LATENCY: 13.2961 cycles
cpu0_L2C PAGE CROSSINGS (TLB HIT):         0 
cpu0_L2C PAGE CROSSINGS (TLB MISS):         0 
cpu0_L2C AVERAGE MISS LATENCY: 133.985 cycles
LLC TOTAL       ACCESS:    4404502  HIT:    1443050  MISS:    2961452  iACCESS:    1428541  iHIT:     485849  iMISS:     942692  dACCESS:    2583149  dHIT:     920402  dMISS:    1662747  itACCESS:      93037  itHIT:       8385  itMISS:      84652  dtACCESS:     299775  dtHIT:      28414  dtMISS:     271361
LLC LOAD         ACCESS:    1124874  HIT:     438866  MISS:     686008  iACCESS:     314776  iHIT:     115815  iMISS:     198961  dACCESS:     810098  dHIT:     323051  dMISS:     487047  itACCESS:          0  itHIT:          0  itMISS:          0  dtACCESS:          0  dtHIT:          0  dtMISS:          0
LLC RFO          ACCESS:     132238  HIT:      39669  MISS:      92569  iACCESS:          0  iHIT:          0  iMISS:          0  dACCESS:     132238  dHIT:      39669  dMISS:      92569  itACCESS:          0  itHIT:          0  itMISS:          0  dtACCESS:          0  dtHIT:          0  dtMISS:          0
LLC PREFETCH     ACCESS:    2555286  HIT:     737748  MISS:    1817538  iACCESS:    1113765  iHIT:     370034  iMISS:     743731  dACCESS:    1441521  dHIT:     367714  dMISS:    1073807  itACCESS:          0  itHIT:          0  itMISS:          0  dtACCESS:          0  dtHIT:          0  dtMISS:          0
LLC WRITE        ACCESS:     199292  HIT:     189968  MISS:       9324  iACCESS:          0  iHIT:          0  iMISS:          0  dACCESS:     199292  dHIT:     189968  dMISS:       9324  itACCESS:          0  itHIT:          0  itMISS:          0  dtACCESS:          0  dtHIT:          0  dtMISS:          0
LLC TRANSLATION  ACCESS:     392812  HIT:      36799  MISS:     356013  iACCESS:          0  iHIT:          0  iMISS:          0  dACCESS:          0  dHIT:          0  dMISS:          0  itACCESS:      93037  itHIT:       8385  itMISS:      84652  dtACCESS:     299775  dtHIT:      28414  dtMISS:     271361
LLC PREFETCH  REQUESTED:          0  ISSUED:          0  CROSSED:          0  USEFUL:          0  USELESS:          0
LLC AVERAGE iMISS LATENCY: 50.5708 cycles
LLC AVERAGE dMISS LATENCY: 99.2705 cycles
LLC AVERAGE itMISS LATENCY: 5.11436 cycles
LLC AVERAGE dtMISS LATENCY: 17.8456 cycles
LLC PAGE CROSSINGS (TLB HIT):         0 
LLC PAGE CROSSINGS (TLB MISS):         0 
LLC AVERAGE MISS LATENCY: 172.802 cycles

PageTableWalker TOTAL       ACCESS:     169895  
PageTableWalker AVERAGE LATENCY: 6.39964 cycles
PageTableWalker TOTAL LATENCY: 1087266 cycles

DRAM Statistics
Channel 0
 RQ ROW_BUFFER_HIT:     606986
  ROW_BUFFER_MISS:    2328266
 AVG DBUS CONGESTED CYCLE:    3.65163
 WQ ROW_BUFFER_HIT:      63193
  ROW_BUFFER_MISS:      55397  FULL:          0

