last_page:0x200000000000000
VMEM_RES_CAP:0x100000
PAGE_SIZE:4096
LOG2_PAGE_SIZE:12
LOG2_PAGE_TABLE_SIZE:9
page_table_levels:5
WARNING: physical memory size is smaller than virtual memory size
FDiP enabled with aggresivity 16

*** ChampSim Multicore Out-of-Order Simulator ***

Warmup Instructions: 50000000
Simulation Instructions: 100000000
Number of CPUs: 1
Small page size: 4096
Large page size: 2097152

CPU 0 Bimodal branch predictor
Basic BTB sets: 1024 ways: 8 indirect buffer size: 4096 RAS size: 64
Instruction page size distrubution: 0
Loading instruction page size distribution from /home/bsc/bsc018186/scratch/itp_asplos25_AE/dump/smt_srv85_ap_srv582_ap_1024i.pdst
Data page size distrubution: 0
Loading data page size distribution from /home/bsc/bsc018186/scratch/itp_asplos25_AE/dump/smt_srv85_ap_srv582_ap_1024i.pdst
cpu0_L2C IP-based stride prefetcher
cpu0_L2C is using PTP replacement policy:
	TLB_STRESS_THRESHOLD:0
	PTE_EVICTION_RATIO:0
cpu0_L1D next line prefetcher
cpu0_L1I next line prefetcher
Off-chip DRAM Size: 4 GiB Channels: 1 Width: 64-bit Data Rate: 3200 MT/s
Heartbeat CPU 0 instructions: 10000003 cycles: 2500477 heartbeat IPC: 3.99924 cumulative IPC: 3.99924 (Simulation time: 0 hr 0 min 39 sec) 
Heartbeat CPU 0 instructions: 20000002 cycles: 5000926 heartbeat IPC: 3.99929 cumulative IPC: 3.99926 (Simulation time: 0 hr 1 min 19 sec) 
Heartbeat CPU 0 instructions: 30000001 cycles: 7501305 heartbeat IPC: 3.9994 cumulative IPC: 3.99931 (Simulation time: 0 hr 2 min 0 sec) 
Heartbeat CPU 0 instructions: 40000002 cycles: 10001792 heartbeat IPC: 3.99923 cumulative IPC: 3.99929 (Simulation time: 0 hr 2 min 43 sec) 
Heartbeat CPU 0 instructions: 50000001 cycles: 12502343 heartbeat IPC: 3.99912 cumulative IPC: 3.99926 (Simulation time: 0 hr 3 min 30 sec) 
Warmup finished CPU 0 instructions: 50000001 cycles: 12502344 cumulative IPC: 3.99926 (Simulation time: 0 hr 3 min 30 sec) 

Warmup complete CPU 0 instructions: 50000001 cycles: 12502344 (Simulation time: 0 hr 3 min 30 sec) 

Heartbeat CPU 0 instructions: 60000002 cycles: 42848982 heartbeat IPC: 0.329526 cumulative IPC: 0.329526 (Simulation time: 0 hr 5 min 10 sec) 
Heartbeat CPU 0 instructions: 70000000 cycles: 74196132 heartbeat IPC: 0.319009 cumulative IPC: 0.324182 (Simulation time: 0 hr 6 min 49 sec) 
Heartbeat CPU 0 instructions: 80000001 cycles: 104398061 heartbeat IPC: 0.331105 cumulative IPC: 0.326457 (Simulation time: 0 hr 8 min 28 sec) 
Heartbeat CPU 0 instructions: 90000002 cycles: 135055011 heartbeat IPC: 0.326191 cumulative IPC: 0.326391 (Simulation time: 0 hr 10 min 8 sec) 
Heartbeat CPU 0 instructions: 100000000 cycles: 166101298 heartbeat IPC: 0.3221 cumulative IPC: 0.325524 (Simulation time: 0 hr 11 min 47 sec) 
Heartbeat CPU 0 instructions: 110000004 cycles: 196879273 heartbeat IPC: 0.324908 cumulative IPC: 0.325421 (Simulation time: 0 hr 13 min 27 sec) 
Heartbeat CPU 0 instructions: 120000004 cycles: 227432053 heartbeat IPC: 0.327303 cumulative IPC: 0.325688 (Simulation time: 0 hr 15 min 6 sec) 
Heartbeat CPU 0 instructions: 130000000 cycles: 258275781 heartbeat IPC: 0.324215 cumulative IPC: 0.325504 (Simulation time: 0 hr 16 min 46 sec) 
Heartbeat CPU 0 instructions: 140000004 cycles: 288701631 heartbeat IPC: 0.328669 cumulative IPC: 0.325852 (Simulation time: 0 hr 18 min 26 sec) 
Heartbeat CPU 0 instructions: 150000002 cycles: 319137202 heartbeat IPC: 0.328563 cumulative IPC: 0.326121 (Simulation time: 0 hr 20 min 3 sec) 
Simulation finished CPU 0 instructions: 100000001 cycles: 306634859 cumulative IPC: 0.326121 (Simulation time: 0 hr 20 min 3 sec) 

Simulation complete CPU 0 instructions: 100000001 cycles: 306634859 (Simulation time: 0 hr 20 min 3 sec) 


ChampSim completed all CPUs

Saving instructions large page distribution to /home/bsc/bsc018186/scratch/itp_asplos25_AE/dump/smt_srv85_ap_srv582_ap_1024i.pdst...
Saving data large page distribution to /home/bsc/bsc018186/scratch/itp_asplos25_AE/dump/smt_srv85_ap_srv582_ap_1024i.pdst...
=== Simulation ===
CPU 0 runs /gpfs/projects/bsc18/MN4/bsc18/romol/ChampSim/traces/qualcomm_srv/smt_srv85_ap_srv582_ap_1024i.champsimtrace.xz

Region of Interest Statistics

CPU 0 cumulative IPC: 0.326121 instructions: 100000001 cycles: 306634859
CPU 0 Branch Prediction Accuracy: 75.0525% MPKI: 44.971 Average ROB Occupancy at Mispredict: 10.8101
Branch type MPKI
BRANCH_DIRECT_JUMP: 1.39299
BRANCH_INDIRECT: 23.3201
BRANCH_CONDITIONAL: 13.0416
BRANCH_DIRECT_CALL: 2.67026
BRANCH_INDIRECT_CALL: 1.01656
BRANCH_RETURN: 3.52954

Instructions large pages: 0
Instructions small pages: 9946
Large page distribution for instructions: 0%

Data large pages: 0
Data small pages: 8571
Large page distribution for data: 0%

cpu0_L1I TOTAL       ACCESS:   39246424  HIT:   30481727  MISS:    8764697  iACCESS:   39246424  iHIT:   30481727  iMISS:    8764697  dACCESS:          0  dHIT:          0  dMISS:          0  itACCESS:          0  itHIT:          0  itMISS:          0  dtACCESS:          0  dtHIT:          0  dtMISS:          0
cpu0_L1I LOAD         ACCESS:   11734968  HIT:    9349912  MISS:    2385056  iACCESS:   11734968  iHIT:    9349912  iMISS:    2385056  dACCESS:          0  dHIT:          0  dMISS:          0  itACCESS:          0  itHIT:          0  itMISS:          0  dtACCESS:          0  dtHIT:          0  dtMISS:          0
cpu0_L1I RFO          ACCESS:          0  HIT:          0  MISS:          0  iACCESS:          0  iHIT:          0  iMISS:          0  dACCESS:          0  dHIT:          0  dMISS:          0  itACCESS:          0  itHIT:          0  itMISS:          0  dtACCESS:          0  dtHIT:          0  dtMISS:          0
cpu0_L1I PREFETCH     ACCESS:   27511456  HIT:   21131815  MISS:    6379641  iACCESS:   27511456  iHIT:   21131815  iMISS:    6379641  dACCESS:          0  dHIT:          0  dMISS:          0  itACCESS:          0  itHIT:          0  itMISS:          0  dtACCESS:          0  dtHIT:          0  dtMISS:          0
cpu0_L1I WRITE        ACCESS:          0  HIT:          0  MISS:          0  iACCESS:          0  iHIT:          0  iMISS:          0  dACCESS:          0  dHIT:          0  dMISS:          0  itACCESS:          0  itHIT:          0  itMISS:          0  dtACCESS:          0  dtHIT:          0  dtMISS:          0
cpu0_L1I TRANSLATION  ACCESS:          0  HIT:          0  MISS:          0  iACCESS:          0  iHIT:          0  iMISS:          0  dACCESS:          0  dHIT:          0  dMISS:          0  itACCESS:          0  itHIT:          0  itMISS:          0  dtACCESS:          0  dtHIT:          0  dtMISS:          0
cpu0_L1I PREFETCH  REQUESTED:   30310760  ISSUED:   30310598  CROSSED:          0  USEFUL:    2218220  USELESS:     775135
cpu0_L1I AVERAGE iMISS LATENCY: 24.7305 cycles
cpu0_L1I AVERAGE dMISS LATENCY: 0 cycles
cpu0_L1I AVERAGE itMISS LATENCY: 0 cycles
cpu0_L1I AVERAGE dtMISS LATENCY: 0 cycles
cpu0_L1I PAGE CROSSINGS (TLB HIT):         0 
cpu0_L1I PAGE CROSSINGS (TLB MISS):         0 
cpu0_L1I AVERAGE MISS LATENCY: 24.7305 cycles
cpu0_ITLB TOTAL       ACCESS:   33244113  HIT:   30982758  MISS:    2261355  iACCESS:   33244113  iHIT:   30982758  iMISS:    2261355  dACCESS:          0  dHIT:          0  dMISS:          0  itACCESS:          0  itHIT:          0  itMISS:          0  dtACCESS:          0  dtHIT:          0  dtMISS:          0
cpu0_ITLB LOAD         ACCESS:   33244113  HIT:   30982758  MISS:    2261355  iACCESS:   33244113  iHIT:   30982758  iMISS:    2261355  dACCESS:          0  dHIT:          0  dMISS:          0  itACCESS:          0  itHIT:          0  itMISS:          0  dtACCESS:          0  dtHIT:          0  dtMISS:          0
cpu0_ITLB RFO          ACCESS:          0  HIT:          0  MISS:          0  iACCESS:          0  iHIT:          0  iMISS:          0  dACCESS:          0  dHIT:          0  dMISS:          0  itACCESS:          0  itHIT:          0  itMISS:          0  dtACCESS:          0  dtHIT:          0  dtMISS:          0
cpu0_ITLB PREFETCH     ACCESS:          0  HIT:          0  MISS:          0  iACCESS:          0  iHIT:          0  iMISS:          0  dACCESS:          0  dHIT:          0  dMISS:          0  itACCESS:          0  itHIT:          0  itMISS:          0  dtACCESS:          0  dtHIT:          0  dtMISS:          0
cpu0_ITLB WRITE        ACCESS:          0  HIT:          0  MISS:          0  iACCESS:          0  iHIT:          0  iMISS:          0  dACCESS:          0  dHIT:          0  dMISS:          0  itACCESS:          0  itHIT:          0  itMISS:          0  dtACCESS:          0  dtHIT:          0  dtMISS:          0
cpu0_ITLB TRANSLATION  ACCESS:          0  HIT:          0  MISS:          0  iACCESS:          0  iHIT:          0  iMISS:          0  dACCESS:          0  dHIT:          0  dMISS:          0  itACCESS:          0  itHIT:          0  itMISS:          0  dtACCESS:          0  dtHIT:          0  dtMISS:          0
cpu0_ITLB PREFETCH  REQUESTED:          0  ISSUED:          0  CROSSED:          0  USEFUL:     393762  USELESS:      81093
cpu0_ITLB AVERAGE iMISS LATENCY: 10.49 cycles
cpu0_ITLB AVERAGE dMISS LATENCY: 0 cycles
cpu0_ITLB AVERAGE itMISS LATENCY: 0 cycles
cpu0_ITLB AVERAGE dtMISS LATENCY: 0 cycles
cpu0_ITLB PAGE CROSSINGS (TLB HIT):         0 
cpu0_ITLB PAGE CROSSINGS (TLB MISS):         0 
cpu0_ITLB AVERAGE MISS LATENCY: 10.49 cycles
cpu0_DTLB TOTAL       ACCESS:   28871110  HIT:   25244526  MISS:    3626584  iACCESS:          0  iHIT:          0  iMISS:          0  dACCESS:   28871110  dHIT:   25244526  dMISS:    3626584  itACCESS:          0  itHIT:          0  itMISS:          0  dtACCESS:          0  dtHIT:          0  dtMISS:          0
cpu0_DTLB LOAD         ACCESS:   28871110  HIT:   25244526  MISS:    3626584  iACCESS:          0  iHIT:          0  iMISS:          0  dACCESS:   28871110  dHIT:   25244526  dMISS:    3626584  itACCESS:          0  itHIT:          0  itMISS:          0  dtACCESS:          0  dtHIT:          0  dtMISS:          0
cpu0_DTLB RFO          ACCESS:          0  HIT:          0  MISS:          0  iACCESS:          0  iHIT:          0  iMISS:          0  dACCESS:          0  dHIT:          0  dMISS:          0  itACCESS:          0  itHIT:          0  itMISS:          0  dtACCESS:          0  dtHIT:          0  dtMISS:          0
cpu0_DTLB PREFETCH     ACCESS:          0  HIT:          0  MISS:          0  iACCESS:          0  iHIT:          0  iMISS:          0  dACCESS:          0  dHIT:          0  dMISS:          0  itACCESS:          0  itHIT:          0  itMISS:          0  dtACCESS:          0  dtHIT:          0  dtMISS:          0
cpu0_DTLB WRITE        ACCESS:          0  HIT:          0  MISS:          0  iACCESS:          0  iHIT:          0  iMISS:          0  dACCESS:          0  dHIT:          0  dMISS:          0  itACCESS:          0  itHIT:          0  itMISS:          0  dtACCESS:          0  dtHIT:          0  dtMISS:          0
cpu0_DTLB TRANSLATION  ACCESS:          0  HIT:          0  MISS:          0  iACCESS:          0  iHIT:          0  iMISS:          0  dACCESS:          0  dHIT:          0  dMISS:          0  itACCESS:          0  itHIT:          0  itMISS:          0  dtACCESS:          0  dtHIT:          0  dtMISS:          0
cpu0_DTLB PREFETCH  REQUESTED:          0  ISSUED:          0  CROSSED:          0  USEFUL:          0  USELESS:          0
cpu0_DTLB AVERAGE iMISS LATENCY: 0 cycles
cpu0_DTLB AVERAGE dMISS LATENCY: 25.5355 cycles
cpu0_DTLB AVERAGE itMISS LATENCY: 0 cycles
cpu0_DTLB AVERAGE dtMISS LATENCY: 0 cycles
cpu0_DTLB PAGE CROSSINGS (TLB HIT):         0 
cpu0_DTLB PAGE CROSSINGS (TLB MISS):         0 
cpu0_DTLB AVERAGE MISS LATENCY: 25.5355 cycles
cpu0_STLB TOTAL       ACCESS:    2599710  HIT:    2209842  MISS:     389868  iACCESS:     474859  iHIT:     356587  iMISS:     118272  dACCESS:    2124851  dHIT:    1853255  dMISS:     271596  itACCESS:          0  itHIT:          0  itMISS:          0  dtACCESS:          0  dtHIT:          0  dtMISS:          0
cpu0_STLB LOAD         ACCESS:    2599710  HIT:    2209842  MISS:     389868  iACCESS:     474859  iHIT:     356587  iMISS:     118272  dACCESS:    2124851  dHIT:    1853255  dMISS:     271596  itACCESS:          0  itHIT:          0  itMISS:          0  dtACCESS:          0  dtHIT:          0  dtMISS:          0
cpu0_STLB RFO          ACCESS:          0  HIT:          0  MISS:          0  iACCESS:          0  iHIT:          0  iMISS:          0  dACCESS:          0  dHIT:          0  dMISS:          0  itACCESS:          0  itHIT:          0  itMISS:          0  dtACCESS:          0  dtHIT:          0  dtMISS:          0
cpu0_STLB PREFETCH     ACCESS:          0  HIT:          0  MISS:          0  iACCESS:          0  iHIT:          0  iMISS:          0  dACCESS:          0  dHIT:          0  dMISS:          0  itACCESS:          0  itHIT:          0  itMISS:          0  dtACCESS:          0  dtHIT:          0  dtMISS:          0
cpu0_STLB WRITE        ACCESS:          0  HIT:          0  MISS:          0  iACCESS:          0  iHIT:          0  iMISS:          0  dACCESS:          0  dHIT:          0  dMISS:          0  itACCESS:          0  itHIT:          0  itMISS:          0  dtACCESS:          0  dtHIT:          0  dtMISS:          0
cpu0_STLB TRANSLATION  ACCESS:          0  HIT:          0  MISS:          0  iACCESS:          0  iHIT:          0  iMISS:          0  dACCESS:          0  dHIT:          0  dMISS:          0  itACCESS:          0  itHIT:          0  itMISS:          0  dtACCESS:          0  dtHIT:          0  dtMISS:          0
cpu0_STLB PREFETCH  REQUESTED:          0  ISSUED:          0  CROSSED:          0  USEFUL:          0  USELESS:          0
cpu0_STLB AVERAGE iMISS LATENCY: 51.0897 cycles
cpu0_STLB AVERAGE dMISS LATENCY: 193.637 cycles
cpu0_STLB AVERAGE itMISS LATENCY: 0 cycles
cpu0_STLB AVERAGE dtMISS LATENCY: 0 cycles
cpu0_STLB PAGE CROSSINGS (TLB HIT):         0 
cpu0_STLB PAGE CROSSINGS (TLB MISS):         0 
cpu0_STLB AVERAGE MISS LATENCY: 244.726 cycles
cpu0_L1D TOTAL       ACCESS:   44953332  HIT:   39222974  MISS:    5730358  iACCESS:          0  iHIT:          0  iMISS:          0  dACCESS:   44389301  dHIT:   39189651  dMISS:    5199650  itACCESS:     132230  itHIT:      14514  itMISS:     117716  dtACCESS:     431801  dtHIT:      18809  dtMISS:     412992
cpu0_L1D LOAD         ACCESS:   20244489  HIT:   17909241  MISS:    2335248  iACCESS:          0  iHIT:          0  iMISS:          0  dACCESS:   20244489  dHIT:   17909241  dMISS:    2335248  itACCESS:          0  itHIT:          0  itMISS:          0  dtACCESS:          0  dtHIT:          0  dtMISS:          0
cpu0_L1D RFO          ACCESS:          0  HIT:          0  MISS:          0  iACCESS:          0  iHIT:          0  iMISS:          0  dACCESS:          0  dHIT:          0  dMISS:          0  itACCESS:          0  itHIT:          0  itMISS:          0  dtACCESS:          0  dtHIT:          0  dtMISS:          0
cpu0_L1D PREFETCH     ACCESS:   13988905  HIT:   11705146  MISS:    2283759  iACCESS:          0  iHIT:          0  iMISS:          0  dACCESS:   13988905  dHIT:   11705146  dMISS:    2283759  itACCESS:          0  itHIT:          0  itMISS:          0  dtACCESS:          0  dtHIT:          0  dtMISS:          0
cpu0_L1D WRITE        ACCESS:   10155907  HIT:    9575264  MISS:     580643  iACCESS:          0  iHIT:          0  iMISS:          0  dACCESS:   10155907  dHIT:    9575264  dMISS:     580643  itACCESS:          0  itHIT:          0  itMISS:          0  dtACCESS:          0  dtHIT:          0  dtMISS:          0
cpu0_L1D TRANSLATION  ACCESS:     564031  HIT:      33323  MISS:     530708  iACCESS:          0  iHIT:          0  iMISS:          0  dACCESS:          0  dHIT:          0  dMISS:          0  itACCESS:     132230  itHIT:      14514  itMISS:     117716  dtACCESS:     431801  dtHIT:      18809  dtMISS:     412992
cpu0_L1D PREFETCH  REQUESTED:   20244489  ISSUED:   18480914  CROSSED:          0  USEFUL:     359679  USELESS:     941073
cpu0_L1D AVERAGE iMISS LATENCY: 0 cycles
cpu0_L1D AVERAGE dMISS LATENCY: 50.8676 cycles
cpu0_L1D AVERAGE itMISS LATENCY: 3.28362 cycles
cpu0_L1D AVERAGE dtMISS LATENCY: 12.3543 cycles
cpu0_L1D PAGE CROSSINGS (TLB HIT):         0 
cpu0_L1D PAGE CROSSINGS (TLB MISS):         0 
cpu0_L1D AVERAGE MISS LATENCY: 66.5054 cycles
cpu0_L2C TOTAL       ACCESS:    8695991  HIT:    4126077  MISS:    4569914  iACCESS:    3810507  iHIT:    2273644  iMISS:    1536863  dACCESS:    4381563  dHIT:    1787466  dMISS:    2594097  itACCESS:     117374  itHIT:      21478  itMISS:      95896  dtACCESS:     386547  dtHIT:      43489  dtMISS:     343058
cpu0_L2C LOAD         ACCESS:    2078667  HIT:     989066  MISS:    1089601  iACCESS:     854503  iHIT:     531788  iMISS:     322715  dACCESS:    1224164  dHIT:     457278  dMISS:     766886  itACCESS:          0  itHIT:          0  itMISS:          0  dtACCESS:          0  dtHIT:          0  dtMISS:          0
cpu0_L2C RFO          ACCESS:     216504  HIT:      81229  MISS:     135275  iACCESS:          0  iHIT:          0  iMISS:          0  dACCESS:     216504  dHIT:      81229  dMISS:     135275  itACCESS:          0  itHIT:          0  itMISS:          0  dtACCESS:          0  dtHIT:          0  dtMISS:          0
cpu0_L2C PREFETCH     ACCESS:    5551178  HIT:    2655868  MISS:    2895310  iACCESS:    2956004  iHIT:    1741856  iMISS:    1214148  dACCESS:    2595174  dHIT:     914012  dMISS:    1681162  itACCESS:          0  itHIT:          0  itMISS:          0  dtACCESS:          0  dtHIT:          0  dtMISS:          0
cpu0_L2C WRITE        ACCESS:     345721  HIT:     334947  MISS:      10774  iACCESS:          0  iHIT:          0  iMISS:          0  dACCESS:     345721  dHIT:     334947  dMISS:      10774  itACCESS:          0  itHIT:          0  itMISS:          0  dtACCESS:          0  dtHIT:          0  dtMISS:          0
cpu0_L2C TRANSLATION  ACCESS:     503921  HIT:      64967  MISS:     438954  iACCESS:          0  iHIT:          0  iMISS:          0  dACCESS:          0  dHIT:          0  dMISS:          0  itACCESS:     117374  itHIT:      21478  itMISS:      95896  dtACCESS:     386547  dtHIT:      43489  dtMISS:     343058
cpu0_L2C PREFETCH  REQUESTED:    1536997  ISSUED:    1536988  CROSSED:          0  USEFUL:     360402  USELESS:     332331
cpu0_L2C AVERAGE iMISS LATENCY: 40.4758 cycles
cpu0_L2C AVERAGE dMISS LATENCY: 79.4721 cycles
cpu0_L2C AVERAGE itMISS LATENCY: 3.86453 cycles
cpu0_L2C AVERAGE dtMISS LATENCY: 14.6502 cycles
cpu0_L2C PAGE CROSSINGS (TLB HIT):         0 
cpu0_L2C PAGE CROSSINGS (TLB MISS):         0 
cpu0_L2C AVERAGE MISS LATENCY: 138.463 cycles
LLC TOTAL       ACCESS:    4553016  HIT:    1371695  MISS:    3181321  iACCESS:    1445049  iHIT:     457114  iMISS:     987935  dACCESS:    2669013  dHIT:     873055  dMISS:    1795958  itACCESS:      95896  itHIT:       8000  itMISS:      87896  dtACCESS:     343058  dtHIT:      33526  dtMISS:     309532
LLC LOAD         ACCESS:    1081680  HIT:     348280  MISS:     733400  iACCESS:     321443  iHIT:     111094  iMISS:     210349  dACCESS:     760237  dHIT:     237186  dMISS:     523051  itACCESS:          0  itHIT:          0  itMISS:          0  dtACCESS:          0  dtHIT:          0  dtMISS:          0
LLC RFO          ACCESS:     135268  HIT:      39382  MISS:      95886  iACCESS:          0  iHIT:          0  iMISS:          0  dACCESS:     135268  dHIT:      39382  dMISS:      95886  itACCESS:          0  itHIT:          0  itMISS:          0  dtACCESS:          0  dtHIT:          0  dtMISS:          0
LLC PREFETCH     ACCESS:    2679493  HIT:     735605  MISS:    1943888  iACCESS:    1123606  iHIT:     346020  iMISS:     777586  dACCESS:    1555887  dHIT:     389585  dMISS:    1166302  itACCESS:          0  itHIT:          0  itMISS:          0  dtACCESS:          0  dtHIT:          0  dtMISS:          0
LLC WRITE        ACCESS:     217621  HIT:     206902  MISS:      10719  iACCESS:          0  iHIT:          0  iMISS:          0  dACCESS:     217621  dHIT:     206902  dMISS:      10719  itACCESS:          0  itHIT:          0  itMISS:          0  dtACCESS:          0  dtHIT:          0  dtMISS:          0
LLC TRANSLATION  ACCESS:     438954  HIT:      41526  MISS:     397428  iACCESS:          0  iHIT:          0  iMISS:          0  dACCESS:          0  dHIT:          0  dMISS:          0  itACCESS:      95896  itHIT:       8000  itMISS:      87896  dtACCESS:     343058  dtHIT:      33526  dtMISS:     309532
LLC PREFETCH  REQUESTED:          0  ISSUED:          0  CROSSED:          0  USEFUL:          0  USELESS:          0
LLC AVERAGE iMISS LATENCY: 49.192 cycles
LLC AVERAGE dMISS LATENCY: 99.8793 cycles
LLC AVERAGE itMISS LATENCY: 4.95366 cycles
LLC AVERAGE dtMISS LATENCY: 18.9121 cycles
LLC PAGE CROSSINGS (TLB HIT):         0 
LLC PAGE CROSSINGS (TLB MISS):         0 
LLC AVERAGE MISS LATENCY: 172.937 cycles

PageTableWalker TOTAL       ACCESS:     198199  
PageTableWalker AVERAGE LATENCY: 6.38661 cycles
PageTableWalker TOTAL LATENCY: 1265818 cycles

DRAM Statistics
Channel 0
 RQ ROW_BUFFER_HIT:     663515
  ROW_BUFFER_MISS:    2488854
 AVG DBUS CONGESTED CYCLE:    3.65227
 WQ ROW_BUFFER_HIT:      69566
  ROW_BUFFER_MISS:      59418  FULL:          0

