last_page:0x200000000000000
VMEM_RES_CAP:0x100000
PAGE_SIZE:4096
LOG2_PAGE_SIZE:12
LOG2_PAGE_TABLE_SIZE:9
page_table_levels:5
WARNING: physical memory size is smaller than virtual memory size
FDiP enabled with aggresivity 16

*** ChampSim Multicore Out-of-Order Simulator ***

Warmup Instructions: 50000000
Simulation Instructions: 100000000
Number of CPUs: 1
Small page size: 4096
Large page size: 2097152

CPU 0 Bimodal branch predictor
Basic BTB sets: 1024 ways: 8 indirect buffer size: 4096 RAS size: 64
Instruction page size distrubution: 0
Loading instruction page size distribution from /home/bsc/bsc018186/scratch/itp_asplos25_AE/dump/smt_srv207_ap_srv346_ap_1024i.pdst
Data page size distrubution: 0
Loading data page size distribution from /home/bsc/bsc018186/scratch/itp_asplos25_AE/dump/smt_srv207_ap_srv346_ap_1024i.pdst
cpu0_L2C IP-based stride prefetcher
cpu0_L2C is using PTP replacement policy:
	TLB_STRESS_THRESHOLD:0
	PTE_EVICTION_RATIO:0
cpu0_L1D next line prefetcher
cpu0_L1I next line prefetcher
Off-chip DRAM Size: 4 GiB Channels: 1 Width: 64-bit Data Rate: 3200 MT/s
Heartbeat CPU 0 instructions: 10000001 cycles: 2500838 heartbeat IPC: 3.99867 cumulative IPC: 3.99867 (Simulation time: 0 hr 0 min 39 sec) 
Heartbeat CPU 0 instructions: 20000000 cycles: 5001413 heartbeat IPC: 3.99908 cumulative IPC: 3.99887 (Simulation time: 0 hr 1 min 19 sec) 
Heartbeat CPU 0 instructions: 30000003 cycles: 7501684 heartbeat IPC: 3.99957 cumulative IPC: 3.99911 (Simulation time: 0 hr 2 min 0 sec) 
Heartbeat CPU 0 instructions: 40000001 cycles: 10002022 heartbeat IPC: 3.99946 cumulative IPC: 3.9992 (Simulation time: 0 hr 2 min 41 sec) 
Heartbeat CPU 0 instructions: 50000003 cycles: 12502404 heartbeat IPC: 3.99939 cumulative IPC: 3.99924 (Simulation time: 0 hr 3 min 23 sec) 
Warmup finished CPU 0 instructions: 50000003 cycles: 12502405 cumulative IPC: 3.99924 (Simulation time: 0 hr 3 min 23 sec) 

Warmup complete CPU 0 instructions: 50000003 cycles: 12502405 (Simulation time: 0 hr 3 min 23 sec) 

Heartbeat CPU 0 instructions: 60000000 cycles: 42577412 heartbeat IPC: 0.332502 cumulative IPC: 0.332502 (Simulation time: 0 hr 4 min 49 sec) 
Heartbeat CPU 0 instructions: 70000003 cycles: 72267662 heartbeat IPC: 0.336812 cumulative IPC: 0.334643 (Simulation time: 0 hr 6 min 16 sec) 
Heartbeat CPU 0 instructions: 80000001 cycles: 103777240 heartbeat IPC: 0.317364 cumulative IPC: 0.328678 (Simulation time: 0 hr 7 min 44 sec) 
Heartbeat CPU 0 instructions: 90000000 cycles: 133270601 heartbeat IPC: 0.33906 cumulative IPC: 0.331214 (Simulation time: 0 hr 9 min 10 sec) 
Heartbeat CPU 0 instructions: 100000003 cycles: 162854132 heartbeat IPC: 0.338027 cumulative IPC: 0.332554 (Simulation time: 0 hr 10 min 36 sec) 
Heartbeat CPU 0 instructions: 110000001 cycles: 192702453 heartbeat IPC: 0.335028 cumulative IPC: 0.332964 (Simulation time: 0 hr 12 min 3 sec) 
Heartbeat CPU 0 instructions: 120000000 cycles: 222147479 heartbeat IPC: 0.339616 cumulative IPC: 0.333898 (Simulation time: 0 hr 13 min 29 sec) 
Heartbeat CPU 0 instructions: 130000002 cycles: 251399036 heartbeat IPC: 0.341863 cumulative IPC: 0.334873 (Simulation time: 0 hr 14 min 55 sec) 
Heartbeat CPU 0 instructions: 140000002 cycles: 281773820 heartbeat IPC: 0.329221 cumulative IPC: 0.334236 (Simulation time: 0 hr 16 min 23 sec) 
Heartbeat CPU 0 instructions: 150000000 cycles: 310996074 heartbeat IPC: 0.342205 cumulative IPC: 0.335016 (Simulation time: 0 hr 17 min 53 sec) 
Simulation finished CPU 0 instructions: 100000002 cycles: 298493671 cumulative IPC: 0.335016 (Simulation time: 0 hr 17 min 53 sec) 

Simulation complete CPU 0 instructions: 100000002 cycles: 298493671 (Simulation time: 0 hr 17 min 53 sec) 


ChampSim completed all CPUs

Saving instructions large page distribution to /home/bsc/bsc018186/scratch/itp_asplos25_AE/dump/smt_srv207_ap_srv346_ap_1024i.pdst...
Saving data large page distribution to /home/bsc/bsc018186/scratch/itp_asplos25_AE/dump/smt_srv207_ap_srv346_ap_1024i.pdst...
=== Simulation ===
CPU 0 runs /gpfs/projects/bsc18/MN4/bsc18/romol/ChampSim/traces/qualcomm_srv/smt_srv207_ap_srv346_ap_1024i.champsimtrace.xz

Region of Interest Statistics

CPU 0 cumulative IPC: 0.335016 instructions: 100000002 cycles: 298493671
CPU 0 Branch Prediction Accuracy: 75.4377% MPKI: 44.1056 Average ROB Occupancy at Mispredict: 11.474
Branch type MPKI
BRANCH_DIRECT_JUMP: 1.34654
BRANCH_INDIRECT: 23.3342
BRANCH_CONDITIONAL: 12.4584
BRANCH_DIRECT_CALL: 2.53532
BRANCH_INDIRECT_CALL: 0.94028
BRANCH_RETURN: 3.49091

Instructions large pages: 0
Instructions small pages: 14696
Large page distribution for instructions: 0%

Data large pages: 0
Data small pages: 13288
Large page distribution for data: 0%

cpu0_L1I TOTAL       ACCESS:   38887165  HIT:   30229667  MISS:    8657498  iACCESS:   38887165  iHIT:   30229667  iMISS:    8657498  dACCESS:          0  dHIT:          0  dMISS:          0  itACCESS:          0  itHIT:          0  itMISS:          0  dtACCESS:          0  dtHIT:          0  dtMISS:          0
cpu0_L1I LOAD         ACCESS:   11574179  HIT:    9206023  MISS:    2368156  iACCESS:   11574179  iHIT:    9206023  iMISS:    2368156  dACCESS:          0  dHIT:          0  dMISS:          0  itACCESS:          0  itHIT:          0  itMISS:          0  dtACCESS:          0  dtHIT:          0  dtMISS:          0
cpu0_L1I RFO          ACCESS:          0  HIT:          0  MISS:          0  iACCESS:          0  iHIT:          0  iMISS:          0  dACCESS:          0  dHIT:          0  dMISS:          0  itACCESS:          0  itHIT:          0  itMISS:          0  dtACCESS:          0  dtHIT:          0  dtMISS:          0
cpu0_L1I PREFETCH     ACCESS:   27312986  HIT:   21023644  MISS:    6289342  iACCESS:   27312986  iHIT:   21023644  iMISS:    6289342  dACCESS:          0  dHIT:          0  dMISS:          0  itACCESS:          0  itHIT:          0  itMISS:          0  dtACCESS:          0  dtHIT:          0  dtMISS:          0
cpu0_L1I WRITE        ACCESS:          0  HIT:          0  MISS:          0  iACCESS:          0  iHIT:          0  iMISS:          0  dACCESS:          0  dHIT:          0  dMISS:          0  itACCESS:          0  itHIT:          0  itMISS:          0  dtACCESS:          0  dtHIT:          0  dtMISS:          0
cpu0_L1I TRANSLATION  ACCESS:          0  HIT:          0  MISS:          0  iACCESS:          0  iHIT:          0  iMISS:          0  dACCESS:          0  dHIT:          0  dMISS:          0  itACCESS:          0  itHIT:          0  itMISS:          0  dtACCESS:          0  dtHIT:          0  dtMISS:          0
cpu0_L1I PREFETCH  REQUESTED:   30089931  ISSUED:   30089916  CROSSED:          0  USEFUL:    2180800  USELESS:     774883
cpu0_L1I AVERAGE iMISS LATENCY: 24.1073 cycles
cpu0_L1I AVERAGE dMISS LATENCY: 0 cycles
cpu0_L1I AVERAGE itMISS LATENCY: 0 cycles
cpu0_L1I AVERAGE dtMISS LATENCY: 0 cycles
cpu0_L1I PAGE CROSSINGS (TLB HIT):         0 
cpu0_L1I PAGE CROSSINGS (TLB MISS):         0 
cpu0_L1I AVERAGE MISS LATENCY: 24.1073 cycles
cpu0_ITLB TOTAL       ACCESS:   32904147  HIT:   30681445  MISS:    2222702  iACCESS:   32904147  iHIT:   30681445  iMISS:    2222702  dACCESS:          0  dHIT:          0  dMISS:          0  itACCESS:          0  itHIT:          0  itMISS:          0  dtACCESS:          0  dtHIT:          0  dtMISS:          0
cpu0_ITLB LOAD         ACCESS:   32904147  HIT:   30681445  MISS:    2222702  iACCESS:   32904147  iHIT:   30681445  iMISS:    2222702  dACCESS:          0  dHIT:          0  dMISS:          0  itACCESS:          0  itHIT:          0  itMISS:          0  dtACCESS:          0  dtHIT:          0  dtMISS:          0
cpu0_ITLB RFO          ACCESS:          0  HIT:          0  MISS:          0  iACCESS:          0  iHIT:          0  iMISS:          0  dACCESS:          0  dHIT:          0  dMISS:          0  itACCESS:          0  itHIT:          0  itMISS:          0  dtACCESS:          0  dtHIT:          0  dtMISS:          0
cpu0_ITLB PREFETCH     ACCESS:          0  HIT:          0  MISS:          0  iACCESS:          0  iHIT:          0  iMISS:          0  dACCESS:          0  dHIT:          0  dMISS:          0  itACCESS:          0  itHIT:          0  itMISS:          0  dtACCESS:          0  dtHIT:          0  dtMISS:          0
cpu0_ITLB WRITE        ACCESS:          0  HIT:          0  MISS:          0  iACCESS:          0  iHIT:          0  iMISS:          0  dACCESS:          0  dHIT:          0  dMISS:          0  itACCESS:          0  itHIT:          0  itMISS:          0  dtACCESS:          0  dtHIT:          0  dtMISS:          0
cpu0_ITLB TRANSLATION  ACCESS:          0  HIT:          0  MISS:          0  iACCESS:          0  iHIT:          0  iMISS:          0  dACCESS:          0  dHIT:          0  dMISS:          0  itACCESS:          0  itHIT:          0  itMISS:          0  dtACCESS:          0  dtHIT:          0  dtMISS:          0
cpu0_ITLB PREFETCH  REQUESTED:          0  ISSUED:          0  CROSSED:          0  USEFUL:     390815  USELESS:      79604
cpu0_ITLB AVERAGE iMISS LATENCY: 10.1651 cycles
cpu0_ITLB AVERAGE dMISS LATENCY: 0 cycles
cpu0_ITLB AVERAGE itMISS LATENCY: 0 cycles
cpu0_ITLB AVERAGE dtMISS LATENCY: 0 cycles
cpu0_ITLB PAGE CROSSINGS (TLB HIT):         0 
cpu0_ITLB PAGE CROSSINGS (TLB MISS):         0 
cpu0_ITLB AVERAGE MISS LATENCY: 10.1651 cycles
cpu0_DTLB TOTAL       ACCESS:   29098440  HIT:   25531972  MISS:    3566468  iACCESS:          0  iHIT:          0  iMISS:          0  dACCESS:   29098440  dHIT:   25531972  dMISS:    3566468  itACCESS:          0  itHIT:          0  itMISS:          0  dtACCESS:          0  dtHIT:          0  dtMISS:          0
cpu0_DTLB LOAD         ACCESS:   29098440  HIT:   25531972  MISS:    3566468  iACCESS:          0  iHIT:          0  iMISS:          0  dACCESS:   29098440  dHIT:   25531972  dMISS:    3566468  itACCESS:          0  itHIT:          0  itMISS:          0  dtACCESS:          0  dtHIT:          0  dtMISS:          0
cpu0_DTLB RFO          ACCESS:          0  HIT:          0  MISS:          0  iACCESS:          0  iHIT:          0  iMISS:          0  dACCESS:          0  dHIT:          0  dMISS:          0  itACCESS:          0  itHIT:          0  itMISS:          0  dtACCESS:          0  dtHIT:          0  dtMISS:          0
cpu0_DTLB PREFETCH     ACCESS:          0  HIT:          0  MISS:          0  iACCESS:          0  iHIT:          0  iMISS:          0  dACCESS:          0  dHIT:          0  dMISS:          0  itACCESS:          0  itHIT:          0  itMISS:          0  dtACCESS:          0  dtHIT:          0  dtMISS:          0
cpu0_DTLB WRITE        ACCESS:          0  HIT:          0  MISS:          0  iACCESS:          0  iHIT:          0  iMISS:          0  dACCESS:          0  dHIT:          0  dMISS:          0  itACCESS:          0  itHIT:          0  itMISS:          0  dtACCESS:          0  dtHIT:          0  dtMISS:          0
cpu0_DTLB TRANSLATION  ACCESS:          0  HIT:          0  MISS:          0  iACCESS:          0  iHIT:          0  iMISS:          0  dACCESS:          0  dHIT:          0  dMISS:          0  itACCESS:          0  itHIT:          0  itMISS:          0  dtACCESS:          0  dtHIT:          0  dtMISS:          0
cpu0_DTLB PREFETCH  REQUESTED:          0  ISSUED:          0  CROSSED:          0  USEFUL:          0  USELESS:          0
cpu0_DTLB AVERAGE iMISS LATENCY: 0 cycles
cpu0_DTLB AVERAGE dMISS LATENCY: 25.3699 cycles
cpu0_DTLB AVERAGE itMISS LATENCY: 0 cycles
cpu0_DTLB AVERAGE dtMISS LATENCY: 0 cycles
cpu0_DTLB PAGE CROSSINGS (TLB HIT):         0 
cpu0_DTLB PAGE CROSSINGS (TLB MISS):         0 
cpu0_DTLB AVERAGE MISS LATENCY: 25.3699 cycles
cpu0_STLB TOTAL       ACCESS:    2557386  HIT:    2185307  MISS:     372079  iACCESS:     470430  iHIT:     360137  iMISS:     110293  dACCESS:    2086956  dHIT:    1825170  dMISS:     261786  itACCESS:          0  itHIT:          0  itMISS:          0  dtACCESS:          0  dtHIT:          0  dtMISS:          0
cpu0_STLB LOAD         ACCESS:    2557386  HIT:    2185307  MISS:     372079  iACCESS:     470430  iHIT:     360137  iMISS:     110293  dACCESS:    2086956  dHIT:    1825170  dMISS:     261786  itACCESS:          0  itHIT:          0  itMISS:          0  dtACCESS:          0  dtHIT:          0  dtMISS:          0
cpu0_STLB RFO          ACCESS:          0  HIT:          0  MISS:          0  iACCESS:          0  iHIT:          0  iMISS:          0  dACCESS:          0  dHIT:          0  dMISS:          0  itACCESS:          0  itHIT:          0  itMISS:          0  dtACCESS:          0  dtHIT:          0  dtMISS:          0
cpu0_STLB PREFETCH     ACCESS:          0  HIT:          0  MISS:          0  iACCESS:          0  iHIT:          0  iMISS:          0  dACCESS:          0  dHIT:          0  dMISS:          0  itACCESS:          0  itHIT:          0  itMISS:          0  dtACCESS:          0  dtHIT:          0  dtMISS:          0
cpu0_STLB WRITE        ACCESS:          0  HIT:          0  MISS:          0  iACCESS:          0  iHIT:          0  iMISS:          0  dACCESS:          0  dHIT:          0  dMISS:          0  itACCESS:          0  itHIT:          0  itMISS:          0  dtACCESS:          0  dtHIT:          0  dtMISS:          0
cpu0_STLB TRANSLATION  ACCESS:          0  HIT:          0  MISS:          0  iACCESS:          0  iHIT:          0  iMISS:          0  dACCESS:          0  dHIT:          0  dMISS:          0  itACCESS:          0  itHIT:          0  itMISS:          0  dtACCESS:          0  dtHIT:          0  dtMISS:          0
cpu0_STLB PREFETCH  REQUESTED:          0  ISSUED:          0  CROSSED:          0  USEFUL:          0  USELESS:          0
cpu0_STLB AVERAGE iMISS LATENCY: 50.625 cycles
cpu0_STLB AVERAGE dMISS LATENCY: 198.035 cycles
cpu0_STLB AVERAGE itMISS LATENCY: 0 cycles
cpu0_STLB AVERAGE dtMISS LATENCY: 0 cycles
cpu0_STLB PAGE CROSSINGS (TLB HIT):         0 
cpu0_STLB PAGE CROSSINGS (TLB MISS):         0 
cpu0_STLB AVERAGE MISS LATENCY: 248.66 cycles
cpu0_L1D TOTAL       ACCESS:   45173276  HIT:   39509664  MISS:    5663612  iACCESS:          0  iHIT:          0  iMISS:          0  dACCESS:   44624845  dHIT:   39474839  dMISS:    5150006  itACCESS:     123731  itHIT:      14401  itMISS:     109330  dtACCESS:     424700  dtHIT:      20424  dtMISS:     404276
cpu0_L1D LOAD         ACCESS:   20446092  HIT:   18130988  MISS:    2315104  iACCESS:          0  iHIT:          0  iMISS:          0  dACCESS:   20446092  dHIT:   18130988  dMISS:    2315104  itACCESS:          0  itHIT:          0  itMISS:          0  dtACCESS:          0  dtHIT:          0  dtMISS:          0
cpu0_L1D RFO          ACCESS:          0  HIT:          0  MISS:          0  iACCESS:          0  iHIT:          0  iMISS:          0  dACCESS:          0  dHIT:          0  dMISS:          0  itACCESS:          0  itHIT:          0  itMISS:          0  dtACCESS:          0  dtHIT:          0  dtMISS:          0
cpu0_L1D PREFETCH     ACCESS:   14074654  HIT:   11807439  MISS:    2267215  iACCESS:          0  iHIT:          0  iMISS:          0  dACCESS:   14074654  dHIT:   11807439  dMISS:    2267215  itACCESS:          0  itHIT:          0  itMISS:          0  dtACCESS:          0  dtHIT:          0  dtMISS:          0
cpu0_L1D WRITE        ACCESS:   10104099  HIT:    9536412  MISS:     567687  iACCESS:          0  iHIT:          0  iMISS:          0  dACCESS:   10104099  dHIT:    9536412  dMISS:     567687  itACCESS:          0  itHIT:          0  itMISS:          0  dtACCESS:          0  dtHIT:          0  dtMISS:          0
cpu0_L1D TRANSLATION  ACCESS:     548431  HIT:      34825  MISS:     513606  iACCESS:          0  iHIT:          0  iMISS:          0  dACCESS:          0  dHIT:          0  dMISS:          0  itACCESS:     123731  itHIT:      14401  itMISS:     109330  dtACCESS:     424700  dtHIT:      20424  dtMISS:     404276
cpu0_L1D PREFETCH  REQUESTED:   20446092  ISSUED:   18701479  CROSSED:          0  USEFUL:     376643  USELESS:     952130
cpu0_L1D AVERAGE iMISS LATENCY: 0 cycles
cpu0_L1D AVERAGE dMISS LATENCY: 50.431 cycles
cpu0_L1D AVERAGE itMISS LATENCY: 3.14352 cycles
cpu0_L1D AVERAGE dtMISS LATENCY: 12.0633 cycles
cpu0_L1D PAGE CROSSINGS (TLB HIT):         0 
cpu0_L1D PAGE CROSSINGS (TLB MISS):         0 
cpu0_L1D AVERAGE MISS LATENCY: 65.6378 cycles
cpu0_L2C TOTAL       ACCESS:    8626055  HIT:    4196049  MISS:    4430006  iACCESS:    3766509  iHIT:    2282147  iMISS:    1484362  dACCESS:    4378142  dHIT:    1856936  dMISS:    2521206  itACCESS:     109164  itHIT:      19342  itMISS:      89822  dtACCESS:     372240  dtHIT:      37624  dtMISS:     334616
cpu0_L2C LOAD         ACCESS:    2086488  HIT:    1021244  MISS:    1065244  iACCESS:     846984  iHIT:     536318  iMISS:     310666  dACCESS:    1239504  dHIT:     484926  dMISS:     754578  itACCESS:          0  itHIT:          0  itMISS:          0  dtACCESS:          0  dtHIT:          0  dtMISS:          0
cpu0_L2C RFO          ACCESS:     218964  HIT:      88546  MISS:     130418  iACCESS:          0  iHIT:          0  iMISS:          0  dACCESS:     218964  dHIT:      88546  dMISS:     130418  itACCESS:          0  itHIT:          0  itMISS:          0  dtACCESS:          0  dtHIT:          0  dtMISS:          0
cpu0_L2C PREFETCH     ACCESS:    5489513  HIT:    2684300  MISS:    2805213  iACCESS:    2919525  iHIT:    1745829  iMISS:    1173696  dACCESS:    2569988  dHIT:     938471  dMISS:    1631517  itACCESS:          0  itHIT:          0  itMISS:          0  dtACCESS:          0  dtHIT:          0  dtMISS:          0
cpu0_L2C WRITE        ACCESS:     349686  HIT:     344993  MISS:       4693  iACCESS:          0  iHIT:          0  iMISS:          0  dACCESS:     349686  dHIT:     344993  dMISS:       4693  itACCESS:          0  itHIT:          0  itMISS:          0  dtACCESS:          0  dtHIT:          0  dtMISS:          0
cpu0_L2C TRANSLATION  ACCESS:     481404  HIT:      56966  MISS:     424438  iACCESS:          0  iHIT:          0  iMISS:          0  dACCESS:          0  dHIT:          0  dMISS:          0  itACCESS:     109164  itHIT:      19342  itMISS:      89822  dtACCESS:     372240  dtHIT:      37624  dtMISS:     334616
cpu0_L2C PREFETCH  REQUESTED:    1480836  ISSUED:    1480830  CROSSED:          0  USEFUL:     349332  USELESS:     321099
cpu0_L2C AVERAGE iMISS LATENCY: 39.9104 cycles
cpu0_L2C AVERAGE dMISS LATENCY: 79.5217 cycles
cpu0_L2C AVERAGE itMISS LATENCY: 3.77616 cycles
cpu0_L2C AVERAGE dtMISS LATENCY: 14.5856 cycles
cpu0_L2C PAGE CROSSINGS (TLB HIT):         0 
cpu0_L2C PAGE CROSSINGS (TLB MISS):         0 
cpu0_L2C AVERAGE MISS LATENCY: 137.794 cycles
LLC TOTAL       ACCESS:    4436531  HIT:    1396224  MISS:    3040307  iACCESS:    1397608  iHIT:     463706  iMISS:     933902  dACCESS:    2614485  dHIT:     891730  dMISS:    1722755  itACCESS:      89822  itHIT:       6687  itMISS:      83135  dtACCESS:     334616  dtHIT:      34101  dtMISS:     300515
LLC LOAD         ACCESS:    1059440  HIT:     350833  MISS:     708607  iACCESS:     309494  iHIT:     110314  iMISS:     199180  dACCESS:     749946  dHIT:     240519  dMISS:     509427  itACCESS:          0  itHIT:          0  itMISS:          0  dtACCESS:          0  dtHIT:          0  dtMISS:          0
LLC RFO          ACCESS:     130415  HIT:      41460  MISS:      88955  iACCESS:          0  iHIT:          0  iMISS:          0  dACCESS:     130415  dHIT:      41460  dMISS:      88955  itACCESS:          0  itHIT:          0  itMISS:          0  dtACCESS:          0  dtHIT:          0  dtMISS:          0
LLC PREFETCH     ACCESS:    2609479  HIT:     761171  MISS:    1848308  iACCESS:    1088114  iHIT:     353392  iMISS:     734722  dACCESS:    1521365  dHIT:     407779  dMISS:    1113586  itACCESS:          0  itHIT:          0  itMISS:          0  dtACCESS:          0  dtHIT:          0  dtMISS:          0
LLC WRITE        ACCESS:     212759  HIT:     201972  MISS:      10787  iACCESS:          0  iHIT:          0  iMISS:          0  dACCESS:     212759  dHIT:     201972  dMISS:      10787  itACCESS:          0  itHIT:          0  itMISS:          0  dtACCESS:          0  dtHIT:          0  dtMISS:          0
LLC TRANSLATION  ACCESS:     424438  HIT:      40788  MISS:     383650  iACCESS:          0  iHIT:          0  iMISS:          0  dACCESS:          0  dHIT:          0  dMISS:          0  itACCESS:      89822  itHIT:       6687  itMISS:      83135  dtACCESS:     334616  dtHIT:      34101  dtMISS:     300515
LLC PREFETCH  REQUESTED:          0  ISSUED:          0  CROSSED:          0  USEFUL:          0  USELESS:          0
LLC AVERAGE iMISS LATENCY: 49.0998 cycles
LLC AVERAGE dMISS LATENCY: 101.062 cycles
LLC AVERAGE itMISS LATENCY: 4.9164 cycles
LLC AVERAGE dtMISS LATENCY: 19.076 cycles
LLC PAGE CROSSINGS (TLB HIT):         0 
LLC PAGE CROSSINGS (TLB MISS):         0 
LLC AVERAGE MISS LATENCY: 174.154 cycles

PageTableWalker TOTAL       ACCESS:     180897  
PageTableWalker AVERAGE LATENCY: 6.60266 cycles
PageTableWalker TOTAL LATENCY: 1194400 cycles

DRAM Statistics
Channel 0
 RQ ROW_BUFFER_HIT:     618232
  ROW_BUFFER_MISS:    2399805
 AVG DBUS CONGESTED CYCLE:    3.64449
 WQ ROW_BUFFER_HIT:      64630
  ROW_BUFFER_MISS:      55449  FULL:          0

