last_page:0x200000000000000
VMEM_RES_CAP:0x100000
PAGE_SIZE:4096
LOG2_PAGE_SIZE:12
LOG2_PAGE_TABLE_SIZE:9
page_table_levels:5
WARNING: physical memory size is smaller than virtual memory size
FDiP enabled with aggresivity 16

*** ChampSim Multicore Out-of-Order Simulator ***

Warmup Instructions: 50000000
Simulation Instructions: 100000000
Number of CPUs: 1
Small page size: 4096
Large page size: 2097152

CPU 0 Bimodal branch predictor
Basic BTB sets: 1024 ways: 8 indirect buffer size: 4096 RAS size: 64
Instruction page size distrubution: 0
Loading instruction page size distribution from /home/bsc/bsc018186/scratch/itp_asplos25_AE/dump/smt_srv540_ap_srv259_ap_1024i.pdst
Data page size distrubution: 0
Loading data page size distribution from /home/bsc/bsc018186/scratch/itp_asplos25_AE/dump/smt_srv540_ap_srv259_ap_1024i.pdst
cpu0_L2C IP-based stride prefetcher
cpu0_L1D next line prefetcher
CHiRPing...
cpu0_L1I next line prefetcher
Off-chip DRAM Size: 4 GiB Channels: 1 Width: 64-bit Data Rate: 3200 MT/s
Heartbeat CPU 0 instructions: 10000001 cycles: 2500286 heartbeat IPC: 3.99955 cumulative IPC: 3.99955 (Simulation time: 0 hr 0 min 40 sec) 
Heartbeat CPU 0 instructions: 20000001 cycles: 5000545 heartbeat IPC: 3.99959 cumulative IPC: 3.99957 (Simulation time: 0 hr 1 min 22 sec) 
Heartbeat CPU 0 instructions: 30000000 cycles: 7500753 heartbeat IPC: 3.99967 cumulative IPC: 3.9996 (Simulation time: 0 hr 2 min 4 sec) 
Heartbeat CPU 0 instructions: 40000003 cycles: 10000858 heartbeat IPC: 3.99984 cumulative IPC: 3.99966 (Simulation time: 0 hr 2 min 47 sec) 
Heartbeat CPU 0 instructions: 50000000 cycles: 12501299 heartbeat IPC: 3.9993 cumulative IPC: 3.99959 (Simulation time: 0 hr 3 min 30 sec) 
Warmup finished CPU 0 instructions: 50000000 cycles: 12501300 cumulative IPC: 3.99959 (Simulation time: 0 hr 3 min 30 sec) 

Warmup complete CPU 0 instructions: 50000000 cycles: 12501300 (Simulation time: 0 hr 3 min 30 sec) 

Heartbeat CPU 0 instructions: 60000000 cycles: 38224168 heartbeat IPC: 0.38876 cumulative IPC: 0.38876 (Simulation time: 0 hr 4 min 51 sec) 
Heartbeat CPU 0 instructions: 70000002 cycles: 64012881 heartbeat IPC: 0.387767 cumulative IPC: 0.388263 (Simulation time: 0 hr 6 min 14 sec) 
Heartbeat CPU 0 instructions: 80000002 cycles: 90528292 heartbeat IPC: 0.37714 cumulative IPC: 0.384483 (Simulation time: 0 hr 7 min 37 sec) 
Heartbeat CPU 0 instructions: 90000000 cycles: 116223716 heartbeat IPC: 0.389175 cumulative IPC: 0.385645 (Simulation time: 0 hr 8 min 59 sec) 
Heartbeat CPU 0 instructions: 100000001 cycles: 143584573 heartbeat IPC: 0.365486 cumulative IPC: 0.381437 (Simulation time: 0 hr 10 min 24 sec) 
Heartbeat CPU 0 instructions: 110000002 cycles: 169629870 heartbeat IPC: 0.383947 cumulative IPC: 0.381853 (Simulation time: 0 hr 11 min 46 sec) 
Heartbeat CPU 0 instructions: 120000001 cycles: 196446390 heartbeat IPC: 0.372905 cumulative IPC: 0.380549 (Simulation time: 0 hr 13 min 10 sec) 
Heartbeat CPU 0 instructions: 130000003 cycles: 223125446 heartbeat IPC: 0.374826 cumulative IPC: 0.379824 (Simulation time: 0 hr 14 min 33 sec) 
Heartbeat CPU 0 instructions: 140000002 cycles: 248380423 heartbeat IPC: 0.395962 cumulative IPC: 0.381552 (Simulation time: 0 hr 15 min 55 sec) 
Heartbeat CPU 0 instructions: 150000001 cycles: 273288765 heartbeat IPC: 0.401472 cumulative IPC: 0.383455 (Simulation time: 0 hr 17 min 16 sec) 
Simulation finished CPU 0 instructions: 100000001 cycles: 260787466 cumulative IPC: 0.383455 (Simulation time: 0 hr 17 min 16 sec) 

Simulation complete CPU 0 instructions: 100000001 cycles: 260787466 (Simulation time: 0 hr 17 min 16 sec) 


ChampSim completed all CPUs

Saving instructions large page distribution to /home/bsc/bsc018186/scratch/itp_asplos25_AE/dump/smt_srv540_ap_srv259_ap_1024i.pdst...
Saving data large page distribution to /home/bsc/bsc018186/scratch/itp_asplos25_AE/dump/smt_srv540_ap_srv259_ap_1024i.pdst...
=== Simulation ===
CPU 0 runs /gpfs/projects/bsc18/MN4/bsc18/romol/ChampSim/traces/qualcomm_srv/smt_srv540_ap_srv259_ap_1024i.champsimtrace.xz

Region of Interest Statistics

CPU 0 cumulative IPC: 0.383455 instructions: 100000001 cycles: 260787466
CPU 0 Branch Prediction Accuracy: 76.8629% MPKI: 41.689 Average ROB Occupancy at Mispredict: 11.2862
Branch type MPKI
BRANCH_DIRECT_JUMP: 1.25098
BRANCH_INDIRECT: 22.2396
BRANCH_CONDITIONAL: 11.5272
BRANCH_DIRECT_CALL: 2.33413
BRANCH_INDIRECT_CALL: 0.97953
BRANCH_RETURN: 3.35763

Instructions large pages: 0
Instructions small pages: 9359
Large page distribution for instructions: 0%

Data large pages: 0
Data small pages: 8207
Large page distribution for data: 0%

cpu0_L1I TOTAL       ACCESS:   38914715  HIT:   29757531  MISS:    9157184  iACCESS:   38914715  iHIT:   29757531  iMISS:    9157184  dACCESS:          0  dHIT:          0  dMISS:          0  itACCESS:          0  itHIT:          0  itMISS:          0  dtACCESS:          0  dtHIT:          0  dtMISS:          0
cpu0_L1I LOAD         ACCESS:   11639471  HIT:    9125145  MISS:    2514326  iACCESS:   11639471  iHIT:    9125145  iMISS:    2514326  dACCESS:          0  dHIT:          0  dMISS:          0  itACCESS:          0  itHIT:          0  itMISS:          0  dtACCESS:          0  dtHIT:          0  dtMISS:          0
cpu0_L1I RFO          ACCESS:          0  HIT:          0  MISS:          0  iACCESS:          0  iHIT:          0  iMISS:          0  dACCESS:          0  dHIT:          0  dMISS:          0  itACCESS:          0  itHIT:          0  itMISS:          0  dtACCESS:          0  dtHIT:          0  dtMISS:          0
cpu0_L1I PREFETCH     ACCESS:   27275244  HIT:   20632386  MISS:    6642858  iACCESS:   27275244  iHIT:   20632386  iMISS:    6642858  dACCESS:          0  dHIT:          0  dMISS:          0  itACCESS:          0  itHIT:          0  itMISS:          0  dtACCESS:          0  dtHIT:          0  dtMISS:          0
cpu0_L1I WRITE        ACCESS:          0  HIT:          0  MISS:          0  iACCESS:          0  iHIT:          0  iMISS:          0  dACCESS:          0  dHIT:          0  dMISS:          0  itACCESS:          0  itHIT:          0  itMISS:          0  dtACCESS:          0  dtHIT:          0  dtMISS:          0
cpu0_L1I TRANSLATION  ACCESS:          0  HIT:          0  MISS:          0  iACCESS:          0  iHIT:          0  iMISS:          0  dACCESS:          0  dHIT:          0  dMISS:          0  itACCESS:          0  itHIT:          0  itMISS:          0  dtACCESS:          0  dtHIT:          0  dtMISS:          0
cpu0_L1I PREFETCH  REQUESTED:   29916629  ISSUED:   29915191  CROSSED:          0  USEFUL:    2174817  USELESS:     750240
cpu0_L1I AVERAGE iMISS LATENCY: 21.7337 cycles
cpu0_L1I AVERAGE dMISS LATENCY: 0 cycles
cpu0_L1I AVERAGE itMISS LATENCY: 0 cycles
cpu0_L1I AVERAGE dtMISS LATENCY: 0 cycles
cpu0_L1I PAGE CROSSINGS (TLB HIT):         0 
cpu0_L1I PAGE CROSSINGS (TLB MISS):         0 
cpu0_L1I AVERAGE MISS LATENCY: 21.7337 cycles
cpu0_ITLB TOTAL       ACCESS:   32611295  HIT:   30382045  MISS:    2229250  iACCESS:   32611295  iHIT:   30382045  iMISS:    2229250  dACCESS:          0  dHIT:          0  dMISS:          0  itACCESS:          0  itHIT:          0  itMISS:          0  dtACCESS:          0  dtHIT:          0  dtMISS:          0
cpu0_ITLB LOAD         ACCESS:   32611295  HIT:   30382045  MISS:    2229250  iACCESS:   32611295  iHIT:   30382045  iMISS:    2229250  dACCESS:          0  dHIT:          0  dMISS:          0  itACCESS:          0  itHIT:          0  itMISS:          0  dtACCESS:          0  dtHIT:          0  dtMISS:          0
cpu0_ITLB RFO          ACCESS:          0  HIT:          0  MISS:          0  iACCESS:          0  iHIT:          0  iMISS:          0  dACCESS:          0  dHIT:          0  dMISS:          0  itACCESS:          0  itHIT:          0  itMISS:          0  dtACCESS:          0  dtHIT:          0  dtMISS:          0
cpu0_ITLB PREFETCH     ACCESS:          0  HIT:          0  MISS:          0  iACCESS:          0  iHIT:          0  iMISS:          0  dACCESS:          0  dHIT:          0  dMISS:          0  itACCESS:          0  itHIT:          0  itMISS:          0  dtACCESS:          0  dtHIT:          0  dtMISS:          0
cpu0_ITLB WRITE        ACCESS:          0  HIT:          0  MISS:          0  iACCESS:          0  iHIT:          0  iMISS:          0  dACCESS:          0  dHIT:          0  dMISS:          0  itACCESS:          0  itHIT:          0  itMISS:          0  dtACCESS:          0  dtHIT:          0  dtMISS:          0
cpu0_ITLB TRANSLATION  ACCESS:          0  HIT:          0  MISS:          0  iACCESS:          0  iHIT:          0  iMISS:          0  dACCESS:          0  dHIT:          0  dMISS:          0  itACCESS:          0  itHIT:          0  itMISS:          0  dtACCESS:          0  dtHIT:          0  dtMISS:          0
cpu0_ITLB PREFETCH  REQUESTED:          0  ISSUED:          0  CROSSED:          0  USEFUL:     379803  USELESS:      79883
cpu0_ITLB AVERAGE iMISS LATENCY: 7.3541 cycles
cpu0_ITLB AVERAGE dMISS LATENCY: 0 cycles
cpu0_ITLB AVERAGE itMISS LATENCY: 0 cycles
cpu0_ITLB AVERAGE dtMISS LATENCY: 0 cycles
cpu0_ITLB PAGE CROSSINGS (TLB HIT):         0 
cpu0_ITLB PAGE CROSSINGS (TLB MISS):         0 
cpu0_ITLB AVERAGE MISS LATENCY: 7.3541 cycles
cpu0_DTLB TOTAL       ACCESS:   28771414  HIT:   25101514  MISS:    3669900  iACCESS:          0  iHIT:          0  iMISS:          0  dACCESS:   28771414  dHIT:   25101514  dMISS:    3669900  itACCESS:          0  itHIT:          0  itMISS:          0  dtACCESS:          0  dtHIT:          0  dtMISS:          0
cpu0_DTLB LOAD         ACCESS:   28771414  HIT:   25101514  MISS:    3669900  iACCESS:          0  iHIT:          0  iMISS:          0  dACCESS:   28771414  dHIT:   25101514  dMISS:    3669900  itACCESS:          0  itHIT:          0  itMISS:          0  dtACCESS:          0  dtHIT:          0  dtMISS:          0
cpu0_DTLB RFO          ACCESS:          0  HIT:          0  MISS:          0  iACCESS:          0  iHIT:          0  iMISS:          0  dACCESS:          0  dHIT:          0  dMISS:          0  itACCESS:          0  itHIT:          0  itMISS:          0  dtACCESS:          0  dtHIT:          0  dtMISS:          0
cpu0_DTLB PREFETCH     ACCESS:          0  HIT:          0  MISS:          0  iACCESS:          0  iHIT:          0  iMISS:          0  dACCESS:          0  dHIT:          0  dMISS:          0  itACCESS:          0  itHIT:          0  itMISS:          0  dtACCESS:          0  dtHIT:          0  dtMISS:          0
cpu0_DTLB WRITE        ACCESS:          0  HIT:          0  MISS:          0  iACCESS:          0  iHIT:          0  iMISS:          0  dACCESS:          0  dHIT:          0  dMISS:          0  itACCESS:          0  itHIT:          0  itMISS:          0  dtACCESS:          0  dtHIT:          0  dtMISS:          0
cpu0_DTLB TRANSLATION  ACCESS:          0  HIT:          0  MISS:          0  iACCESS:          0  iHIT:          0  iMISS:          0  dACCESS:          0  dHIT:          0  dMISS:          0  itACCESS:          0  itHIT:          0  itMISS:          0  dtACCESS:          0  dtHIT:          0  dtMISS:          0
cpu0_DTLB PREFETCH  REQUESTED:          0  ISSUED:          0  CROSSED:          0  USEFUL:          0  USELESS:          0
cpu0_DTLB AVERAGE iMISS LATENCY: 0 cycles
cpu0_DTLB AVERAGE dMISS LATENCY: 16.688 cycles
cpu0_DTLB AVERAGE itMISS LATENCY: 0 cycles
cpu0_DTLB AVERAGE dtMISS LATENCY: 0 cycles
cpu0_DTLB PAGE CROSSINGS (TLB HIT):         0 
cpu0_DTLB PAGE CROSSINGS (TLB MISS):         0 
cpu0_DTLB AVERAGE MISS LATENCY: 16.688 cycles
cpu0_STLB TOTAL       ACCESS:    2581187  HIT:    2213373  MISS:     367814  iACCESS:     459689  iHIT:     355057  iMISS:     104632  dACCESS:    2121498  dHIT:    1858316  dMISS:     263182  itACCESS:          0  itHIT:          0  itMISS:          0  dtACCESS:          0  dtHIT:          0  dtMISS:          0
cpu0_STLB LOAD         ACCESS:    2581187  HIT:    2213373  MISS:     367814  iACCESS:     459689  iHIT:     355057  iMISS:     104632  dACCESS:    2121498  dHIT:    1858316  dMISS:     263182  itACCESS:          0  itHIT:          0  itMISS:          0  dtACCESS:          0  dtHIT:          0  dtMISS:          0
cpu0_STLB RFO          ACCESS:          0  HIT:          0  MISS:          0  iACCESS:          0  iHIT:          0  iMISS:          0  dACCESS:          0  dHIT:          0  dMISS:          0  itACCESS:          0  itHIT:          0  itMISS:          0  dtACCESS:          0  dtHIT:          0  dtMISS:          0
cpu0_STLB PREFETCH     ACCESS:          0  HIT:          0  MISS:          0  iACCESS:          0  iHIT:          0  iMISS:          0  dACCESS:          0  dHIT:          0  dMISS:          0  itACCESS:          0  itHIT:          0  itMISS:          0  dtACCESS:          0  dtHIT:          0  dtMISS:          0
cpu0_STLB WRITE        ACCESS:          0  HIT:          0  MISS:          0  iACCESS:          0  iHIT:          0  iMISS:          0  dACCESS:          0  dHIT:          0  dMISS:          0  itACCESS:          0  itHIT:          0  itMISS:          0  dtACCESS:          0  dtHIT:          0  dtMISS:          0
cpu0_STLB TRANSLATION  ACCESS:          0  HIT:          0  MISS:          0  iACCESS:          0  iHIT:          0  iMISS:          0  dACCESS:          0  dHIT:          0  dMISS:          0  itACCESS:          0  itHIT:          0  itMISS:          0  dtACCESS:          0  dtHIT:          0  dtMISS:          0
cpu0_STLB PREFETCH  REQUESTED:          0  ISSUED:          0  CROSSED:          0  USEFUL:          0  USELESS:          0
cpu0_STLB AVERAGE iMISS LATENCY: 34.6078 cycles
cpu0_STLB AVERAGE dMISS LATENCY: 120.128 cycles
cpu0_STLB AVERAGE itMISS LATENCY: 0 cycles
cpu0_STLB AVERAGE dtMISS LATENCY: 0 cycles
cpu0_STLB PAGE CROSSINGS (TLB HIT):         0 
cpu0_STLB PAGE CROSSINGS (TLB MISS):         0 
cpu0_STLB AVERAGE MISS LATENCY: 154.736 cycles
cpu0_L1D TOTAL       ACCESS:   44877209  HIT:   38898077  MISS:    5979132  iACCESS:          0  iHIT:          0  iMISS:          0  dACCESS:   44340375  dHIT:   38866715  dMISS:    5473660  itACCESS:     117923  itHIT:      11881  itMISS:     106042  dtACCESS:     418911  dtHIT:      19481  dtMISS:     399430
cpu0_L1D LOAD         ACCESS:   20306839  HIT:   17834260  MISS:    2472579  iACCESS:          0  iHIT:          0  iMISS:          0  dACCESS:   20306839  dHIT:   17834260  dMISS:    2472579  itACCESS:          0  itHIT:          0  itMISS:          0  dtACCESS:          0  dtHIT:          0  dtMISS:          0
cpu0_L1D RFO          ACCESS:          0  HIT:          0  MISS:          0  iACCESS:          0  iHIT:          0  iMISS:          0  dACCESS:          0  dHIT:          0  dMISS:          0  itACCESS:          0  itHIT:          0  itMISS:          0  dtACCESS:          0  dtHIT:          0  dtMISS:          0
cpu0_L1D PREFETCH     ACCESS:   13917063  HIT:   11488965  MISS:    2428098  iACCESS:          0  iHIT:          0  iMISS:          0  dACCESS:   13917063  dHIT:   11488965  dMISS:    2428098  itACCESS:          0  itHIT:          0  itMISS:          0  dtACCESS:          0  dtHIT:          0  dtMISS:          0
cpu0_L1D WRITE        ACCESS:   10116473  HIT:    9543490  MISS:     572983  iACCESS:          0  iHIT:          0  iMISS:          0  dACCESS:   10116473  dHIT:    9543490  dMISS:     572983  itACCESS:          0  itHIT:          0  itMISS:          0  dtACCESS:          0  dtHIT:          0  dtMISS:          0
cpu0_L1D TRANSLATION  ACCESS:     536834  HIT:      31362  MISS:     505472  iACCESS:          0  iHIT:          0  iMISS:          0  dACCESS:          0  dHIT:          0  dMISS:          0  itACCESS:     117923  itHIT:      11881  itMISS:     106042  dtACCESS:     418911  dtHIT:      19481  dtMISS:     399430
cpu0_L1D PREFETCH  REQUESTED:   20306839  ISSUED:   18354960  CROSSED:          0  USEFUL:     355304  USELESS:     918529
cpu0_L1D AVERAGE iMISS LATENCY: 0 cycles
cpu0_L1D AVERAGE dMISS LATENCY: 48.4307 cycles
cpu0_L1D AVERAGE itMISS LATENCY: 1.96507 cycles
cpu0_L1D AVERAGE dtMISS LATENCY: 6.6576 cycles
cpu0_L1D PAGE CROSSINGS (TLB HIT):         0 
cpu0_L1D PAGE CROSSINGS (TLB MISS):         0 
cpu0_L1D AVERAGE MISS LATENCY: 57.0533 cycles
cpu0_L2C TOTAL       ACCESS:    8488372  HIT:    1540844  MISS:    6947528  iACCESS:    3732166  iHIT:     812535  iMISS:    2919631  dACCESS:    4276155  dHIT:     534339  dMISS:    3741816  itACCESS:     105994  itHIT:      38841  itMISS:      67153  dtACCESS:     374057  dtHIT:     155129  dtMISS:     218928
cpu0_L2C LOAD         ACCESS:    2034009  HIT:     207608  MISS:    1826401  iACCESS:     843553  iHIT:     115044  iMISS:     728509  dACCESS:    1190456  dHIT:      92564  dMISS:    1097892  itACCESS:          0  itHIT:          0  itMISS:          0  dtACCESS:          0  dtHIT:          0  dtMISS:          0
cpu0_L2C RFO          ACCESS:     218148  HIT:      28557  MISS:     189591  iACCESS:          0  iHIT:          0  iMISS:          0  dACCESS:     218148  dHIT:      28557  dMISS:     189591  itACCESS:          0  itHIT:          0  itMISS:          0  dtACCESS:          0  dtHIT:          0  dtMISS:          0
cpu0_L2C PREFETCH     ACCESS:    5414863  HIT:    1010906  MISS:    4403957  iACCESS:    2888613  iHIT:     697491  iMISS:    2191122  dACCESS:    2526250  dHIT:     313415  dMISS:    2212835  itACCESS:          0  itHIT:          0  itMISS:          0  dtACCESS:          0  dtHIT:          0  dtMISS:          0
cpu0_L2C WRITE        ACCESS:     341301  HIT:      99803  MISS:     241498  iACCESS:          0  iHIT:          0  iMISS:          0  dACCESS:     341301  dHIT:      99803  dMISS:     241498  itACCESS:          0  itHIT:          0  itMISS:          0  dtACCESS:          0  dtHIT:          0  dtMISS:          0
cpu0_L2C TRANSLATION  ACCESS:     480051  HIT:     193970  MISS:     286081  iACCESS:          0  iHIT:          0  iMISS:          0  dACCESS:          0  dHIT:          0  dMISS:          0  itACCESS:     105994  itHIT:      38841  itMISS:      67153  dtACCESS:     374057  dtHIT:     155129  dtMISS:     218928
cpu0_L2C PREFETCH  REQUESTED:    1513902  ISSUED:    1513900  CROSSED:          0  USEFUL:     415379  USELESS:     467692
cpu0_L2C AVERAGE iMISS LATENCY: 23.8897 cycles
cpu0_L2C AVERAGE dMISS LATENCY: 49.6329 cycles
cpu0_L2C AVERAGE itMISS LATENCY: 1.54379 cycles
cpu0_L2C AVERAGE dtMISS LATENCY: 5.21109 cycles
cpu0_L2C PAGE CROSSINGS (TLB HIT):         0 
cpu0_L2C PAGE CROSSINGS (TLB MISS):         0 
cpu0_L2C AVERAGE MISS LATENCY: 80.2774 cycles
LLC TOTAL       ACCESS:    6784489  HIT:    4316499  MISS:    2467990  iACCESS:    2837905  iHIT:    2134530  iMISS:     703375  dACCESS:    3660503  dHIT:    2115833  dMISS:    1544670  itACCESS:      67153  itHIT:      14331  itMISS:      52822  dtACCESS:     218928  dtHIT:      51805  dtMISS:     167123
LLC LOAD         ACCESS:    1818306  HIT:    1200008  MISS:     618298  iACCESS:     727020  iHIT:     578790  iMISS:     148230  dACCESS:    1091286  dHIT:     621218  dMISS:     470068  itACCESS:          0  itHIT:          0  itMISS:          0  dtACCESS:          0  dtHIT:          0  dtMISS:          0
LLC RFO          ACCESS:     189560  HIT:      99162  MISS:      90398  iACCESS:          0  iHIT:          0  iMISS:          0  dACCESS:     189560  dHIT:      99162  dMISS:      90398  itACCESS:          0  itHIT:          0  itMISS:          0  dtACCESS:          0  dtHIT:          0  dtMISS:          0
LLC PREFETCH     ACCESS:    4217057  HIT:    2683728  MISS:    1533329  iACCESS:    2110885  iHIT:    1555740  iMISS:     555145  dACCESS:    2106172  dHIT:    1127988  dMISS:     978184  itACCESS:          0  itHIT:          0  itMISS:          0  dtACCESS:          0  dtHIT:          0  dtMISS:          0
LLC WRITE        ACCESS:     273485  HIT:     267465  MISS:       6020  iACCESS:          0  iHIT:          0  iMISS:          0  dACCESS:     273485  dHIT:     267465  dMISS:       6020  itACCESS:          0  itHIT:          0  itMISS:          0  dtACCESS:          0  dtHIT:          0  dtMISS:          0
LLC TRANSLATION  ACCESS:     286081  HIT:      66136  MISS:     219945  iACCESS:          0  iHIT:          0  iMISS:          0  dACCESS:          0  dHIT:          0  dMISS:          0  itACCESS:      67153  itHIT:      14331  itMISS:      52822  dtACCESS:     218928  dtHIT:      51805  dtMISS:     167123
LLC PREFETCH  REQUESTED:          0  ISSUED:          0  CROSSED:          0  USEFUL:          0  USELESS:          0
LLC AVERAGE iMISS LATENCY: 44.9523 cycles
LLC AVERAGE dMISS LATENCY: 114.365 cycles
LLC AVERAGE itMISS LATENCY: 3.80917 cycles
LLC AVERAGE dtMISS LATENCY: 12.9223 cycles
LLC PAGE CROSSINGS (TLB HIT):         0 
LLC PAGE CROSSINGS (TLB MISS):         0 
LLC AVERAGE MISS LATENCY: 176.049 cycles

PageTableWalker TOTAL       ACCESS:     187274  
PageTableWalker AVERAGE LATENCY: 5.72783 cycles
PageTableWalker TOTAL LATENCY: 1072672 cycles

DRAM Statistics
Channel 0
 RQ ROW_BUFFER_HIT:     514062
  ROW_BUFFER_MISS:    1925312
 AVG DBUS CONGESTED CYCLE:    3.65322
 WQ ROW_BUFFER_HIT:      63654
  ROW_BUFFER_MISS:      61986  FULL:          0

