last_page:0x200000000000000
VMEM_RES_CAP:0x100000
PAGE_SIZE:4096
LOG2_PAGE_SIZE:12
LOG2_PAGE_TABLE_SIZE:9
page_table_levels:5
WARNING: physical memory size is smaller than virtual memory size
FDiP enabled with aggresivity 16

*** ChampSim Multicore Out-of-Order Simulator ***

Warmup Instructions: 50000000
Simulation Instructions: 100000000
Number of CPUs: 1
Small page size: 4096
Large page size: 2097152

CPU 0 Bimodal branch predictor
Basic BTB sets: 1024 ways: 8 indirect buffer size: 4096 RAS size: 64
Instruction page size distrubution: 0
Loading instruction page size distribution from /home/bsc/bsc018186/scratch/itp_asplos25_AE/dump/smt_srv12_ap_srv442_ap_1024i.pdst
Data page size distrubution: 0
Loading data page size distribution from /home/bsc/bsc018186/scratch/itp_asplos25_AE/dump/smt_srv12_ap_srv442_ap_1024i.pdst
cpu0_L2C IP-based stride prefetcher
cpu0_L1D next line prefetcher
CHiRPing...
cpu0_L1I next line prefetcher
Off-chip DRAM Size: 4 GiB Channels: 1 Width: 64-bit Data Rate: 3200 MT/s
Heartbeat CPU 0 instructions: 10000001 cycles: 2500492 heartbeat IPC: 3.99922 cumulative IPC: 3.99922 (Simulation time: 0 hr 0 min 40 sec) 
Heartbeat CPU 0 instructions: 20000003 cycles: 5000758 heartbeat IPC: 3.99958 cumulative IPC: 3.9994 (Simulation time: 0 hr 1 min 22 sec) 
Heartbeat CPU 0 instructions: 30000003 cycles: 7501389 heartbeat IPC: 3.999 cumulative IPC: 3.99926 (Simulation time: 0 hr 2 min 6 sec) 
Heartbeat CPU 0 instructions: 40000000 cycles: 10001685 heartbeat IPC: 3.99953 cumulative IPC: 3.99933 (Simulation time: 0 hr 2 min 52 sec) 
Heartbeat CPU 0 instructions: 50000002 cycles: 12502094 heartbeat IPC: 3.99935 cumulative IPC: 3.99934 (Simulation time: 0 hr 3 min 35 sec) 
Warmup finished CPU 0 instructions: 50000002 cycles: 12502095 cumulative IPC: 3.99933 (Simulation time: 0 hr 3 min 35 sec) 

Warmup complete CPU 0 instructions: 50000002 cycles: 12502095 (Simulation time: 0 hr 3 min 35 sec) 

Heartbeat CPU 0 instructions: 60000000 cycles: 40558503 heartbeat IPC: 0.356425 cumulative IPC: 0.356425 (Simulation time: 0 hr 5 min 0 sec) 
Heartbeat CPU 0 instructions: 70000004 cycles: 67567315 heartbeat IPC: 0.37025 cumulative IPC: 0.363206 (Simulation time: 0 hr 6 min 24 sec) 
Heartbeat CPU 0 instructions: 80000001 cycles: 95380151 heartbeat IPC: 0.359547 cumulative IPC: 0.361978 (Simulation time: 0 hr 7 min 48 sec) 
Heartbeat CPU 0 instructions: 90000000 cycles: 121821807 heartbeat IPC: 0.378192 cumulative IPC: 0.3659 (Simulation time: 0 hr 9 min 10 sec) 
Heartbeat CPU 0 instructions: 100000001 cycles: 149037845 heartbeat IPC: 0.367431 cumulative IPC: 0.366205 (Simulation time: 0 hr 10 min 34 sec) 
Heartbeat CPU 0 instructions: 110000003 cycles: 176374783 heartbeat IPC: 0.365806 cumulative IPC: 0.366138 (Simulation time: 0 hr 11 min 58 sec) 
Heartbeat CPU 0 instructions: 120000002 cycles: 202547721 heartbeat IPC: 0.382074 cumulative IPC: 0.368333 (Simulation time: 0 hr 13 min 21 sec) 
Heartbeat CPU 0 instructions: 130000000 cycles: 231001713 heartbeat IPC: 0.351445 cumulative IPC: 0.366134 (Simulation time: 0 hr 14 min 47 sec) 
Heartbeat CPU 0 instructions: 140000000 cycles: 258141404 heartbeat IPC: 0.368465 cumulative IPC: 0.366391 (Simulation time: 0 hr 16 min 11 sec) 
Heartbeat CPU 0 instructions: 150000002 cycles: 285284207 heartbeat IPC: 0.368422 cumulative IPC: 0.366593 (Simulation time: 0 hr 17 min 35 sec) 
Simulation finished CPU 0 instructions: 100000000 cycles: 272782113 cumulative IPC: 0.366593 (Simulation time: 0 hr 17 min 35 sec) 

Simulation complete CPU 0 instructions: 100000000 cycles: 272782113 (Simulation time: 0 hr 17 min 35 sec) 


ChampSim completed all CPUs

Saving instructions large page distribution to /home/bsc/bsc018186/scratch/itp_asplos25_AE/dump/smt_srv12_ap_srv442_ap_1024i.pdst...
Saving data large page distribution to /home/bsc/bsc018186/scratch/itp_asplos25_AE/dump/smt_srv12_ap_srv442_ap_1024i.pdst...
=== Simulation ===
CPU 0 runs /gpfs/projects/bsc18/MN4/bsc18/romol/ChampSim/traces/qualcomm_srv/smt_srv12_ap_srv442_ap_1024i.champsimtrace.xz

Region of Interest Statistics

CPU 0 cumulative IPC: 0.366593 instructions: 100000000 cycles: 272782113
CPU 0 Branch Prediction Accuracy: 75.7426% MPKI: 43.9696 Average ROB Occupancy at Mispredict: 10.6718
Branch type MPKI
BRANCH_DIRECT_JUMP: 1.38601
BRANCH_INDIRECT: 23.1713
BRANCH_CONDITIONAL: 12.2361
BRANCH_DIRECT_CALL: 2.58698
BRANCH_INDIRECT_CALL: 1.12084
BRANCH_RETURN: 3.46853

Instructions large pages: 0
Instructions small pages: 11516
Large page distribution for instructions: 0%

Data large pages: 0
Data small pages: 9858
Large page distribution for data: 0%

cpu0_L1I TOTAL       ACCESS:   39422005  HIT:   30031545  MISS:    9390460  iACCESS:   39422005  iHIT:   30031545  iMISS:    9390460  dACCESS:          0  dHIT:          0  dMISS:          0  itACCESS:          0  itHIT:          0  itMISS:          0  dtACCESS:          0  dtHIT:          0  dtMISS:          0
cpu0_L1I LOAD         ACCESS:   11749117  HIT:    9180046  MISS:    2569071  iACCESS:   11749117  iHIT:    9180046  iMISS:    2569071  dACCESS:          0  dHIT:          0  dMISS:          0  itACCESS:          0  itHIT:          0  itMISS:          0  dtACCESS:          0  dtHIT:          0  dtMISS:          0
cpu0_L1I RFO          ACCESS:          0  HIT:          0  MISS:          0  iACCESS:          0  iHIT:          0  iMISS:          0  dACCESS:          0  dHIT:          0  dMISS:          0  itACCESS:          0  itHIT:          0  itMISS:          0  dtACCESS:          0  dtHIT:          0  dtMISS:          0
cpu0_L1I PREFETCH     ACCESS:   27672888  HIT:   20851499  MISS:    6821389  iACCESS:   27672888  iHIT:   20851499  iMISS:    6821389  dACCESS:          0  dHIT:          0  dMISS:          0  itACCESS:          0  itHIT:          0  itMISS:          0  dtACCESS:          0  dtHIT:          0  dtMISS:          0
cpu0_L1I WRITE        ACCESS:          0  HIT:          0  MISS:          0  iACCESS:          0  iHIT:          0  iMISS:          0  dACCESS:          0  dHIT:          0  dMISS:          0  itACCESS:          0  itHIT:          0  itMISS:          0  dtACCESS:          0  dtHIT:          0  dtMISS:          0
cpu0_L1I TRANSLATION  ACCESS:          0  HIT:          0  MISS:          0  iACCESS:          0  iHIT:          0  iMISS:          0  dACCESS:          0  dHIT:          0  dMISS:          0  itACCESS:          0  itHIT:          0  itMISS:          0  dtACCESS:          0  dtHIT:          0  dtMISS:          0
cpu0_L1I PREFETCH  REQUESTED:   30268807  ISSUED:   30267657  CROSSED:          0  USEFUL:    2236861  USELESS:     784245
cpu0_L1I AVERAGE iMISS LATENCY: 22.2956 cycles
cpu0_L1I AVERAGE dMISS LATENCY: 0 cycles
cpu0_L1I AVERAGE itMISS LATENCY: 0 cycles
cpu0_L1I AVERAGE dtMISS LATENCY: 0 cycles
cpu0_L1I PAGE CROSSINGS (TLB HIT):         0 
cpu0_L1I PAGE CROSSINGS (TLB MISS):         0 
cpu0_L1I AVERAGE MISS LATENCY: 22.2956 cycles
cpu0_ITLB TOTAL       ACCESS:   33145562  HIT:   30852126  MISS:    2293436  iACCESS:   33145562  iHIT:   30852126  iMISS:    2293436  dACCESS:          0  dHIT:          0  dMISS:          0  itACCESS:          0  itHIT:          0  itMISS:          0  dtACCESS:          0  dtHIT:          0  dtMISS:          0
cpu0_ITLB LOAD         ACCESS:   33145562  HIT:   30852126  MISS:    2293436  iACCESS:   33145562  iHIT:   30852126  iMISS:    2293436  dACCESS:          0  dHIT:          0  dMISS:          0  itACCESS:          0  itHIT:          0  itMISS:          0  dtACCESS:          0  dtHIT:          0  dtMISS:          0
cpu0_ITLB RFO          ACCESS:          0  HIT:          0  MISS:          0  iACCESS:          0  iHIT:          0  iMISS:          0  dACCESS:          0  dHIT:          0  dMISS:          0  itACCESS:          0  itHIT:          0  itMISS:          0  dtACCESS:          0  dtHIT:          0  dtMISS:          0
cpu0_ITLB PREFETCH     ACCESS:          0  HIT:          0  MISS:          0  iACCESS:          0  iHIT:          0  iMISS:          0  dACCESS:          0  dHIT:          0  dMISS:          0  itACCESS:          0  itHIT:          0  itMISS:          0  dtACCESS:          0  dtHIT:          0  dtMISS:          0
cpu0_ITLB WRITE        ACCESS:          0  HIT:          0  MISS:          0  iACCESS:          0  iHIT:          0  iMISS:          0  dACCESS:          0  dHIT:          0  dMISS:          0  itACCESS:          0  itHIT:          0  itMISS:          0  dtACCESS:          0  dtHIT:          0  dtMISS:          0
cpu0_ITLB TRANSLATION  ACCESS:          0  HIT:          0  MISS:          0  iACCESS:          0  iHIT:          0  iMISS:          0  dACCESS:          0  dHIT:          0  dMISS:          0  itACCESS:          0  itHIT:          0  itMISS:          0  dtACCESS:          0  dtHIT:          0  dtMISS:          0
cpu0_ITLB PREFETCH  REQUESTED:          0  ISSUED:          0  CROSSED:          0  USEFUL:     396220  USELESS:      84255
cpu0_ITLB AVERAGE iMISS LATENCY: 7.60966 cycles
cpu0_ITLB AVERAGE dMISS LATENCY: 0 cycles
cpu0_ITLB AVERAGE itMISS LATENCY: 0 cycles
cpu0_ITLB AVERAGE dtMISS LATENCY: 0 cycles
cpu0_ITLB PAGE CROSSINGS (TLB HIT):         0 
cpu0_ITLB PAGE CROSSINGS (TLB MISS):         0 
cpu0_ITLB AVERAGE MISS LATENCY: 7.60966 cycles
cpu0_DTLB TOTAL       ACCESS:   28984039  HIT:   25432256  MISS:    3551783  iACCESS:          0  iHIT:          0  iMISS:          0  dACCESS:   28984039  dHIT:   25432256  dMISS:    3551783  itACCESS:          0  itHIT:          0  itMISS:          0  dtACCESS:          0  dtHIT:          0  dtMISS:          0
cpu0_DTLB LOAD         ACCESS:   28984039  HIT:   25432256  MISS:    3551783  iACCESS:          0  iHIT:          0  iMISS:          0  dACCESS:   28984039  dHIT:   25432256  dMISS:    3551783  itACCESS:          0  itHIT:          0  itMISS:          0  dtACCESS:          0  dtHIT:          0  dtMISS:          0
cpu0_DTLB RFO          ACCESS:          0  HIT:          0  MISS:          0  iACCESS:          0  iHIT:          0  iMISS:          0  dACCESS:          0  dHIT:          0  dMISS:          0  itACCESS:          0  itHIT:          0  itMISS:          0  dtACCESS:          0  dtHIT:          0  dtMISS:          0
cpu0_DTLB PREFETCH     ACCESS:          0  HIT:          0  MISS:          0  iACCESS:          0  iHIT:          0  iMISS:          0  dACCESS:          0  dHIT:          0  dMISS:          0  itACCESS:          0  itHIT:          0  itMISS:          0  dtACCESS:          0  dtHIT:          0  dtMISS:          0
cpu0_DTLB WRITE        ACCESS:          0  HIT:          0  MISS:          0  iACCESS:          0  iHIT:          0  iMISS:          0  dACCESS:          0  dHIT:          0  dMISS:          0  itACCESS:          0  itHIT:          0  itMISS:          0  dtACCESS:          0  dtHIT:          0  dtMISS:          0
cpu0_DTLB TRANSLATION  ACCESS:          0  HIT:          0  MISS:          0  iACCESS:          0  iHIT:          0  iMISS:          0  dACCESS:          0  dHIT:          0  dMISS:          0  itACCESS:          0  itHIT:          0  itMISS:          0  dtACCESS:          0  dtHIT:          0  dtMISS:          0
cpu0_DTLB PREFETCH  REQUESTED:          0  ISSUED:          0  CROSSED:          0  USEFUL:          0  USELESS:          0
cpu0_DTLB AVERAGE iMISS LATENCY: 0 cycles
cpu0_DTLB AVERAGE dMISS LATENCY: 17.7272 cycles
cpu0_DTLB AVERAGE itMISS LATENCY: 0 cycles
cpu0_DTLB AVERAGE dtMISS LATENCY: 0 cycles
cpu0_DTLB PAGE CROSSINGS (TLB HIT):         0 
cpu0_DTLB PAGE CROSSINGS (TLB MISS):         0 
cpu0_DTLB AVERAGE MISS LATENCY: 17.7272 cycles
cpu0_STLB TOTAL       ACCESS:    2563183  HIT:    2187247  MISS:     375936  iACCESS:     480482  iHIT:     368493  iMISS:     111989  dACCESS:    2082701  dHIT:    1818754  dMISS:     263947  itACCESS:          0  itHIT:          0  itMISS:          0  dtACCESS:          0  dtHIT:          0  dtMISS:          0
cpu0_STLB LOAD         ACCESS:    2563183  HIT:    2187247  MISS:     375936  iACCESS:     480482  iHIT:     368493  iMISS:     111989  dACCESS:    2082701  dHIT:    1818754  dMISS:     263947  itACCESS:          0  itHIT:          0  itMISS:          0  dtACCESS:          0  dtHIT:          0  dtMISS:          0
cpu0_STLB RFO          ACCESS:          0  HIT:          0  MISS:          0  iACCESS:          0  iHIT:          0  iMISS:          0  dACCESS:          0  dHIT:          0  dMISS:          0  itACCESS:          0  itHIT:          0  itMISS:          0  dtACCESS:          0  dtHIT:          0  dtMISS:          0
cpu0_STLB PREFETCH     ACCESS:          0  HIT:          0  MISS:          0  iACCESS:          0  iHIT:          0  iMISS:          0  dACCESS:          0  dHIT:          0  dMISS:          0  itACCESS:          0  itHIT:          0  itMISS:          0  dtACCESS:          0  dtHIT:          0  dtMISS:          0
cpu0_STLB WRITE        ACCESS:          0  HIT:          0  MISS:          0  iACCESS:          0  iHIT:          0  iMISS:          0  dACCESS:          0  dHIT:          0  dMISS:          0  itACCESS:          0  itHIT:          0  itMISS:          0  dtACCESS:          0  dtHIT:          0  dtMISS:          0
cpu0_STLB TRANSLATION  ACCESS:          0  HIT:          0  MISS:          0  iACCESS:          0  iHIT:          0  iMISS:          0  dACCESS:          0  dHIT:          0  dMISS:          0  itACCESS:          0  itHIT:          0  itMISS:          0  dtACCESS:          0  dtHIT:          0  dtMISS:          0
cpu0_STLB PREFETCH  REQUESTED:          0  ISSUED:          0  CROSSED:          0  USEFUL:          0  USELESS:          0
cpu0_STLB AVERAGE iMISS LATENCY: 36.2262 cycles
cpu0_STLB AVERAGE dMISS LATENCY: 122.956 cycles
cpu0_STLB AVERAGE itMISS LATENCY: 0 cycles
cpu0_STLB AVERAGE dtMISS LATENCY: 0 cycles
cpu0_STLB PAGE CROSSINGS (TLB HIT):         0 
cpu0_STLB PAGE CROSSINGS (TLB MISS):         0 
cpu0_STLB AVERAGE MISS LATENCY: 159.182 cycles
cpu0_L1D TOTAL       ACCESS:   45199489  HIT:   39264175  MISS:    5935314  iACCESS:          0  iHIT:          0  iMISS:          0  dACCESS:   44636856  dHIT:   39232546  dMISS:    5404310  itACCESS:     126852  itHIT:      13046  itMISS:     113806  dtACCESS:     435781  dtHIT:      18583  dtMISS:     417198
cpu0_L1D LOAD         ACCESS:   20400135  HIT:   17986176  MISS:    2413959  iACCESS:          0  iHIT:          0  iMISS:          0  dACCESS:   20400135  dHIT:   17986176  dMISS:    2413959  itACCESS:          0  itHIT:          0  itMISS:          0  dtACCESS:          0  dtHIT:          0  dtMISS:          0
cpu0_L1D RFO          ACCESS:          0  HIT:          0  MISS:          0  iACCESS:          0  iHIT:          0  iMISS:          0  dACCESS:          0  dHIT:          0  dMISS:          0  itACCESS:          0  itHIT:          0  itMISS:          0  dtACCESS:          0  dtHIT:          0  dtMISS:          0
cpu0_L1D PREFETCH     ACCESS:   14063163  HIT:   11662032  MISS:    2401131  iACCESS:          0  iHIT:          0  iMISS:          0  dACCESS:   14063163  dHIT:   11662032  dMISS:    2401131  itACCESS:          0  itHIT:          0  itMISS:          0  dtACCESS:          0  dtHIT:          0  dtMISS:          0
cpu0_L1D WRITE        ACCESS:   10173558  HIT:    9584338  MISS:     589220  iACCESS:          0  iHIT:          0  iMISS:          0  dACCESS:   10173558  dHIT:    9584338  dMISS:     589220  itACCESS:          0  itHIT:          0  itMISS:          0  dtACCESS:          0  dtHIT:          0  dtMISS:          0
cpu0_L1D TRANSLATION  ACCESS:     562633  HIT:      31629  MISS:     531004  iACCESS:          0  iHIT:          0  iMISS:          0  dACCESS:          0  dHIT:          0  dMISS:          0  itACCESS:     126852  itHIT:      13046  itMISS:     113806  dtACCESS:     435781  dtHIT:      18583  dtMISS:     417198
cpu0_L1D PREFETCH  REQUESTED:   20400135  ISSUED:   18603426  CROSSED:          0  USEFUL:     362197  USELESS:     939113
cpu0_L1D AVERAGE iMISS LATENCY: 0 cycles
cpu0_L1D AVERAGE dMISS LATENCY: 50.1917 cycles
cpu0_L1D AVERAGE itMISS LATENCY: 2.10129 cycles
cpu0_L1D AVERAGE dtMISS LATENCY: 6.98683 cycles
cpu0_L1D PAGE CROSSINGS (TLB HIT):         0 
cpu0_L1D PAGE CROSSINGS (TLB MISS):         0 
cpu0_L1D AVERAGE MISS LATENCY: 59.2798 cycles
cpu0_L2C TOTAL       ACCESS:    8705706  HIT:    1562935  MISS:    7142771  iACCESS:    3852580  iHIT:     831955  iMISS:    3020625  dACCESS:    4363232  dHIT:     537092  dMISS:    3826140  itACCESS:     112700  itHIT:      41715  itMISS:      70985  dtACCESS:     377194  dtHIT:     152173  dtMISS:     225021
cpu0_L2C LOAD         ACCESS:    2086991  HIT:     212104  MISS:    1874887  iACCESS:     867402  iHIT:     121789  iMISS:     745613  dACCESS:    1219589  dHIT:      90315  dMISS:    1129274  itACCESS:          0  itHIT:          0  itMISS:          0  dtACCESS:          0  dtHIT:          0  dtMISS:          0
cpu0_L2C RFO          ACCESS:     216674  HIT:      26510  MISS:     190164  iACCESS:          0  iHIT:          0  iMISS:          0  dACCESS:     216674  dHIT:      26510  dMISS:     190164  itACCESS:          0  itHIT:          0  itMISS:          0  dtACCESS:          0  dtHIT:          0  dtMISS:          0
cpu0_L2C PREFETCH     ACCESS:    5570318  HIT:    1033899  MISS:    4536419  iACCESS:    2985178  iHIT:     710166  iMISS:    2275012  dACCESS:    2585140  dHIT:     323733  dMISS:    2261407  itACCESS:          0  itHIT:          0  itMISS:          0  dtACCESS:          0  dtHIT:          0  dtMISS:          0
cpu0_L2C WRITE        ACCESS:     341829  HIT:      96534  MISS:     245295  iACCESS:          0  iHIT:          0  iMISS:          0  dACCESS:     341829  dHIT:      96534  dMISS:     245295  itACCESS:          0  itHIT:          0  itMISS:          0  dtACCESS:          0  dtHIT:          0  dtMISS:          0
cpu0_L2C TRANSLATION  ACCESS:     489894  HIT:     193888  MISS:     296006  iACCESS:          0  iHIT:          0  iMISS:          0  dACCESS:          0  dHIT:          0  dMISS:          0  itACCESS:     112700  itHIT:      41715  itMISS:      70985  dtACCESS:     377194  dtHIT:     152173  dtMISS:     225021
cpu0_L2C PREFETCH  REQUESTED:    1540886  ISSUED:    1540885  CROSSED:          0  USEFUL:     421053  USELESS:     481536
cpu0_L2C AVERAGE iMISS LATENCY: 24.5532 cycles
cpu0_L2C AVERAGE dMISS LATENCY: 49.873 cycles
cpu0_L2C AVERAGE itMISS LATENCY: 1.5937 cycles
cpu0_L2C AVERAGE dtMISS LATENCY: 5.29658 cycles
cpu0_L2C PAGE CROSSINGS (TLB HIT):         0 
cpu0_L2C PAGE CROSSINGS (TLB MISS):         0 
cpu0_L2C AVERAGE MISS LATENCY: 81.3165 cycles
LLC TOTAL       ACCESS:    6970713  HIT:    4367949  MISS:    2602764  iACCESS:    2936278  iHIT:    2176617  iMISS:     759661  dACCESS:    3738429  dHIT:    2125314  dMISS:    1613115  itACCESS:      70985  itHIT:      14715  itMISS:      56270  dtACCESS:     225021  dtHIT:      51303  dtMISS:     173718
LLC LOAD         ACCESS:    1867535  HIT:    1219124  MISS:     648411  iACCESS:     744265  iHIT:     585123  iMISS:     159142  dACCESS:    1123270  dHIT:     634001  dMISS:     489269  itACCESS:          0  itHIT:          0  itMISS:          0  dtACCESS:          0  dtHIT:          0  dtMISS:          0
LLC RFO          ACCESS:     190142  HIT:      96133  MISS:      94009  iACCESS:          0  iHIT:          0  iMISS:          0  dACCESS:     190142  dHIT:      96133  dMISS:      94009  itACCESS:          0  itHIT:          0  itMISS:          0  dtACCESS:          0  dtHIT:          0  dtMISS:          0
LLC PREFETCH     ACCESS:    4343208  HIT:    2719146  MISS:    1624062  iACCESS:    2192013  iHIT:    1591494  iMISS:     600519  dACCESS:    2151195  dHIT:    1127652  dMISS:    1023543  itACCESS:          0  itHIT:          0  itMISS:          0  dtACCESS:          0  dtHIT:          0  dtMISS:          0
LLC WRITE        ACCESS:     273822  HIT:     267528  MISS:       6294  iACCESS:          0  iHIT:          0  iMISS:          0  dACCESS:     273822  dHIT:     267528  dMISS:       6294  itACCESS:          0  itHIT:          0  itMISS:          0  dtACCESS:          0  dtHIT:          0  dtMISS:          0
LLC TRANSLATION  ACCESS:     296006  HIT:      66018  MISS:     229988  iACCESS:          0  iHIT:          0  iMISS:          0  dACCESS:          0  dHIT:          0  dMISS:          0  itACCESS:      70985  itHIT:      14715  itMISS:      56270  dtACCESS:     225021  dtHIT:      51303  dtMISS:     173718
LLC PREFETCH  REQUESTED:          0  ISSUED:          0  CROSSED:          0  USEFUL:          0  USELESS:          0
LLC AVERAGE iMISS LATENCY: 45.5058 cycles
LLC AVERAGE dMISS LATENCY: 112.047 cycles
LLC AVERAGE itMISS LATENCY: 3.8356 cycles
LLC AVERAGE dtMISS LATENCY: 12.8324 cycles
LLC PAGE CROSSINGS (TLB HIT):         0 
LLC PAGE CROSSINGS (TLB MISS):         0 
LLC AVERAGE MISS LATENCY: 174.22 cycles

PageTableWalker TOTAL       ACCESS:     180432  
PageTableWalker AVERAGE LATENCY: 5.89351 cycles
PageTableWalker TOTAL LATENCY: 1063376 cycles

DRAM Statistics
Channel 0
 RQ ROW_BUFFER_HIT:     572555
  ROW_BUFFER_MISS:    2003995
 AVG DBUS CONGESTED CYCLE:    3.65255
 WQ ROW_BUFFER_HIT:      66328
  ROW_BUFFER_MISS:      63711  FULL:          0

