last_page:0x200000000000000
VMEM_RES_CAP:0x100000
PAGE_SIZE:4096
LOG2_PAGE_SIZE:12
LOG2_PAGE_TABLE_SIZE:9
page_table_levels:5
WARNING: physical memory size is smaller than virtual memory size
FDiP enabled with aggresivity 16

*** ChampSim Multicore Out-of-Order Simulator ***

Warmup Instructions: 50000000
Simulation Instructions: 100000000
Number of CPUs: 1
Small page size: 4096
Large page size: 2097152

CPU 0 Bimodal branch predictor
Basic BTB sets: 1024 ways: 8 indirect buffer size: 4096 RAS size: 64
Instruction page size distrubution: 0
Loading instruction page size distribution from /home/bsc/bsc018186/scratch/itp_asplos25_AE/dump/smt_srv12_ap_srv495_ap_1024i.pdst
Data page size distrubution: 0
Loading data page size distribution from /home/bsc/bsc018186/scratch/itp_asplos25_AE/dump/smt_srv12_ap_srv495_ap_1024i.pdst
cpu0_L2C IP-based stride prefetcher
cpu0_L2C is using xPTP/LRU
	TLB_LOWER_STRESS_THRESHOLD:1
	TLB_UPPER_STRESS_THRESHOLD:4
	MIN_EVICTION_POSITION:4
cpu0_L1D next line prefetcher
cpu0_STLB using iTP with max lru@8
cpu0_STLB using iTP with instr@0 and data@2
Init sat counter with 3 bits (max:50).
cpu0_L1I next line prefetcher
Off-chip DRAM Size: 4 GiB Channels: 1 Width: 64-bit Data Rate: 3200 MT/s
Heartbeat CPU 0 instructions: 10000002 cycles: 2500470 heartbeat IPC: 3.99925 cumulative IPC: 3.99925 (Simulation time: 0 hr 0 min 37 sec) 
Heartbeat CPU 0 instructions: 20000003 cycles: 5000471 heartbeat IPC: 4 cumulative IPC: 3.99963 (Simulation time: 0 hr 1 min 16 sec) 
Heartbeat CPU 0 instructions: 30000002 cycles: 7501204 heartbeat IPC: 3.99883 cumulative IPC: 3.99936 (Simulation time: 0 hr 1 min 56 sec) 
Heartbeat CPU 0 instructions: 40000000 cycles: 10001262 heartbeat IPC: 3.99991 cumulative IPC: 3.9995 (Simulation time: 0 hr 2 min 35 sec) 
Heartbeat CPU 0 instructions: 50000002 cycles: 12501354 heartbeat IPC: 3.99986 cumulative IPC: 3.99957 (Simulation time: 0 hr 3 min 15 sec) 
Warmup finished CPU 0 instructions: 50000002 cycles: 12501355 cumulative IPC: 3.99957 (Simulation time: 0 hr 3 min 15 sec) 

Warmup complete CPU 0 instructions: 50000002 cycles: 12501355 (Simulation time: 0 hr 3 min 15 sec) 

Heartbeat CPU 0 instructions: 60000001 cycles: 41254953 heartbeat IPC: 0.347783 cumulative IPC: 0.347783 (Simulation time: 0 hr 4 min 37 sec) 
Heartbeat CPU 0 instructions: 70000003 cycles: 69474028 heartbeat IPC: 0.354371 cumulative IPC: 0.351046 (Simulation time: 0 hr 5 min 58 sec) 
Heartbeat CPU 0 instructions: 80000000 cycles: 98289858 heartbeat IPC: 0.347032 cumulative IPC: 0.349698 (Simulation time: 0 hr 7 min 20 sec) 
Heartbeat CPU 0 instructions: 90000000 cycles: 124436087 heartbeat IPC: 0.382465 cumulative IPC: 0.357352 (Simulation time: 0 hr 8 min 37 sec) 
Heartbeat CPU 0 instructions: 100000001 cycles: 152108852 heartbeat IPC: 0.361367 cumulative IPC: 0.358147 (Simulation time: 0 hr 9 min 58 sec) 
Heartbeat CPU 0 instructions: 110000000 cycles: 180423022 heartbeat IPC: 0.353181 cumulative IPC: 0.35731 (Simulation time: 0 hr 11 min 19 sec) 
Heartbeat CPU 0 instructions: 120000004 cycles: 208147611 heartbeat IPC: 0.360691 cumulative IPC: 0.357789 (Simulation time: 0 hr 12 min 40 sec) 
Heartbeat CPU 0 instructions: 130000002 cycles: 236053233 heartbeat IPC: 0.358351 cumulative IPC: 0.357859 (Simulation time: 0 hr 14 min 0 sec) 
Heartbeat CPU 0 instructions: 140000000 cycles: 263951279 heartbeat IPC: 0.358448 cumulative IPC: 0.357925 (Simulation time: 0 hr 15 min 21 sec) 
Heartbeat CPU 0 instructions: 150000002 cycles: 291602701 heartbeat IPC: 0.361646 cumulative IPC: 0.358293 (Simulation time: 0 hr 16 min 42 sec) 
Simulation finished CPU 0 instructions: 100000000 cycles: 279101347 cumulative IPC: 0.358293 (Simulation time: 0 hr 16 min 42 sec) 

Simulation complete CPU 0 instructions: 100000000 cycles: 279101347 (Simulation time: 0 hr 16 min 42 sec) 


ChampSim completed all CPUs

Saving instructions large page distribution to /home/bsc/bsc018186/scratch/itp_asplos25_AE/dump/smt_srv12_ap_srv495_ap_1024i.pdst...
Saving data large page distribution to /home/bsc/bsc018186/scratch/itp_asplos25_AE/dump/smt_srv12_ap_srv495_ap_1024i.pdst...
=== Simulation ===
CPU 0 runs /gpfs/projects/bsc18/MN4/bsc18/romol/ChampSim/traces/qualcomm_srv/smt_srv12_ap_srv495_ap_1024i.champsimtrace.xz

Region of Interest Statistics

CPU 0 cumulative IPC: 0.358293 instructions: 100000000 cycles: 279101347
CPU 0 Branch Prediction Accuracy: 74.6867% MPKI: 45.8673 Average ROB Occupancy at Mispredict: 10.3835
Branch type MPKI
BRANCH_DIRECT_JUMP: 1.43964
BRANCH_INDIRECT: 23.3814
BRANCH_CONDITIONAL: 13.5832
BRANCH_DIRECT_CALL: 2.79001
BRANCH_INDIRECT_CALL: 1.12069
BRANCH_RETURN: 3.55248

Instructions large pages: 0
Instructions small pages: 11363
Large page distribution for instructions: 0%

Data large pages: 0
Data small pages: 9536
Large page distribution for data: 0%

cpu0_L1I TOTAL       ACCESS:   39431211  HIT:   30430867  MISS:    9000344  iACCESS:   39431211  iHIT:   30430867  iMISS:    9000344  dACCESS:          0  dHIT:          0  dMISS:          0  itACCESS:          0  itHIT:          0  itMISS:          0  dtACCESS:          0  dtHIT:          0  dtMISS:          0
cpu0_L1I LOAD         ACCESS:   11716790  HIT:    9277006  MISS:    2439784  iACCESS:   11716790  iHIT:    9277006  iMISS:    2439784  dACCESS:          0  dHIT:          0  dMISS:          0  itACCESS:          0  itHIT:          0  itMISS:          0  dtACCESS:          0  dtHIT:          0  dtMISS:          0
cpu0_L1I RFO          ACCESS:          0  HIT:          0  MISS:          0  iACCESS:          0  iHIT:          0  iMISS:          0  dACCESS:          0  dHIT:          0  dMISS:          0  itACCESS:          0  itHIT:          0  itMISS:          0  dtACCESS:          0  dtHIT:          0  dtMISS:          0
cpu0_L1I PREFETCH     ACCESS:   27714421  HIT:   21153861  MISS:    6560560  iACCESS:   27714421  iHIT:   21153861  iMISS:    6560560  dACCESS:          0  dHIT:          0  dMISS:          0  itACCESS:          0  itHIT:          0  itMISS:          0  dtACCESS:          0  dtHIT:          0  dtMISS:          0
cpu0_L1I WRITE        ACCESS:          0  HIT:          0  MISS:          0  iACCESS:          0  iHIT:          0  iMISS:          0  dACCESS:          0  dHIT:          0  dMISS:          0  itACCESS:          0  itHIT:          0  itMISS:          0  dtACCESS:          0  dtHIT:          0  dtMISS:          0
cpu0_L1I TRANSLATION  ACCESS:          0  HIT:          0  MISS:          0  iACCESS:          0  iHIT:          0  iMISS:          0  dACCESS:          0  dHIT:          0  dMISS:          0  itACCESS:          0  itHIT:          0  itMISS:          0  dtACCESS:          0  dtHIT:          0  dtMISS:          0
cpu0_L1I PREFETCH  REQUESTED:   30360796  ISSUED:   30360321  CROSSED:          0  USEFUL:    2227718  USELESS:     774343
cpu0_L1I AVERAGE iMISS LATENCY: 23.8209 cycles
cpu0_L1I AVERAGE dMISS LATENCY: 0 cycles
cpu0_L1I AVERAGE itMISS LATENCY: 0 cycles
cpu0_L1I AVERAGE dtMISS LATENCY: 0 cycles
cpu0_L1I PAGE CROSSINGS (TLB HIT):         0 
cpu0_L1I PAGE CROSSINGS (TLB MISS):         0 
cpu0_L1I AVERAGE MISS LATENCY: 23.8209 cycles
cpu0_ITLB TOTAL       ACCESS:   33377005  HIT:   31135384  MISS:    2241621  iACCESS:   33377005  iHIT:   31135384  iMISS:    2241621  dACCESS:          0  dHIT:          0  dMISS:          0  itACCESS:          0  itHIT:          0  itMISS:          0  dtACCESS:          0  dtHIT:          0  dtMISS:          0
cpu0_ITLB LOAD         ACCESS:   33377005  HIT:   31135384  MISS:    2241621  iACCESS:   33377005  iHIT:   31135384  iMISS:    2241621  dACCESS:          0  dHIT:          0  dMISS:          0  itACCESS:          0  itHIT:          0  itMISS:          0  dtACCESS:          0  dtHIT:          0  dtMISS:          0
cpu0_ITLB RFO          ACCESS:          0  HIT:          0  MISS:          0  iACCESS:          0  iHIT:          0  iMISS:          0  dACCESS:          0  dHIT:          0  dMISS:          0  itACCESS:          0  itHIT:          0  itMISS:          0  dtACCESS:          0  dtHIT:          0  dtMISS:          0
cpu0_ITLB PREFETCH     ACCESS:          0  HIT:          0  MISS:          0  iACCESS:          0  iHIT:          0  iMISS:          0  dACCESS:          0  dHIT:          0  dMISS:          0  itACCESS:          0  itHIT:          0  itMISS:          0  dtACCESS:          0  dtHIT:          0  dtMISS:          0
cpu0_ITLB WRITE        ACCESS:          0  HIT:          0  MISS:          0  iACCESS:          0  iHIT:          0  iMISS:          0  dACCESS:          0  dHIT:          0  dMISS:          0  itACCESS:          0  itHIT:          0  itMISS:          0  dtACCESS:          0  dtHIT:          0  dtMISS:          0
cpu0_ITLB TRANSLATION  ACCESS:          0  HIT:          0  MISS:          0  iACCESS:          0  iHIT:          0  iMISS:          0  dACCESS:          0  dHIT:          0  dMISS:          0  itACCESS:          0  itHIT:          0  itMISS:          0  dtACCESS:          0  dtHIT:          0  dtMISS:          0
cpu0_ITLB PREFETCH  REQUESTED:          0  ISSUED:          0  CROSSED:          0  USEFUL:     396939  USELESS:      80503
cpu0_ITLB AVERAGE iMISS LATENCY: 6.34539 cycles
cpu0_ITLB AVERAGE dMISS LATENCY: 0 cycles
cpu0_ITLB AVERAGE itMISS LATENCY: 0 cycles
cpu0_ITLB AVERAGE dtMISS LATENCY: 0 cycles
cpu0_ITLB PAGE CROSSINGS (TLB HIT):         0 
cpu0_ITLB PAGE CROSSINGS (TLB MISS):         0 
cpu0_ITLB AVERAGE MISS LATENCY: 6.34539 cycles
cpu0_DTLB TOTAL       ACCESS:   28996482  HIT:   25452527  MISS:    3543955  iACCESS:          0  iHIT:          0  iMISS:          0  dACCESS:   28996482  dHIT:   25452527  dMISS:    3543955  itACCESS:          0  itHIT:          0  itMISS:          0  dtACCESS:          0  dtHIT:          0  dtMISS:          0
cpu0_DTLB LOAD         ACCESS:   28996482  HIT:   25452527  MISS:    3543955  iACCESS:          0  iHIT:          0  iMISS:          0  dACCESS:   28996482  dHIT:   25452527  dMISS:    3543955  itACCESS:          0  itHIT:          0  itMISS:          0  dtACCESS:          0  dtHIT:          0  dtMISS:          0
cpu0_DTLB RFO          ACCESS:          0  HIT:          0  MISS:          0  iACCESS:          0  iHIT:          0  iMISS:          0  dACCESS:          0  dHIT:          0  dMISS:          0  itACCESS:          0  itHIT:          0  itMISS:          0  dtACCESS:          0  dtHIT:          0  dtMISS:          0
cpu0_DTLB PREFETCH     ACCESS:          0  HIT:          0  MISS:          0  iACCESS:          0  iHIT:          0  iMISS:          0  dACCESS:          0  dHIT:          0  dMISS:          0  itACCESS:          0  itHIT:          0  itMISS:          0  dtACCESS:          0  dtHIT:          0  dtMISS:          0
cpu0_DTLB WRITE        ACCESS:          0  HIT:          0  MISS:          0  iACCESS:          0  iHIT:          0  iMISS:          0  dACCESS:          0  dHIT:          0  dMISS:          0  itACCESS:          0  itHIT:          0  itMISS:          0  dtACCESS:          0  dtHIT:          0  dtMISS:          0
cpu0_DTLB TRANSLATION  ACCESS:          0  HIT:          0  MISS:          0  iACCESS:          0  iHIT:          0  iMISS:          0  dACCESS:          0  dHIT:          0  dMISS:          0  itACCESS:          0  itHIT:          0  itMISS:          0  dtACCESS:          0  dtHIT:          0  dtMISS:          0
cpu0_DTLB PREFETCH  REQUESTED:          0  ISSUED:          0  CROSSED:          0  USEFUL:          0  USELESS:          0
cpu0_DTLB AVERAGE iMISS LATENCY: 0 cycles
cpu0_DTLB AVERAGE dMISS LATENCY: 19.4646 cycles
cpu0_DTLB AVERAGE itMISS LATENCY: 0 cycles
cpu0_DTLB AVERAGE dtMISS LATENCY: 0 cycles
cpu0_DTLB PAGE CROSSINGS (TLB HIT):         0 
cpu0_DTLB PAGE CROSSINGS (TLB MISS):         0 
cpu0_DTLB AVERAGE MISS LATENCY: 19.4646 cycles
cpu0_STLB TOTAL       ACCESS:    2560997  HIT:    2180830  MISS:     380167  iACCESS:     477443  iHIT:     413116  iMISS:      64327  dACCESS:    2083554  dHIT:    1767714  dMISS:     315840  itACCESS:          0  itHIT:          0  itMISS:          0  dtACCESS:          0  dtHIT:          0  dtMISS:          0
cpu0_STLB LOAD         ACCESS:    2560997  HIT:    2180830  MISS:     380167  iACCESS:     477443  iHIT:     413116  iMISS:      64327  dACCESS:    2083554  dHIT:    1767714  dMISS:     315840  itACCESS:          0  itHIT:          0  itMISS:          0  dtACCESS:          0  dtHIT:          0  dtMISS:          0
cpu0_STLB RFO          ACCESS:          0  HIT:          0  MISS:          0  iACCESS:          0  iHIT:          0  iMISS:          0  dACCESS:          0  dHIT:          0  dMISS:          0  itACCESS:          0  itHIT:          0  itMISS:          0  dtACCESS:          0  dtHIT:          0  dtMISS:          0
cpu0_STLB PREFETCH     ACCESS:          0  HIT:          0  MISS:          0  iACCESS:          0  iHIT:          0  iMISS:          0  dACCESS:          0  dHIT:          0  dMISS:          0  itACCESS:          0  itHIT:          0  itMISS:          0  dtACCESS:          0  dtHIT:          0  dtMISS:          0
cpu0_STLB WRITE        ACCESS:          0  HIT:          0  MISS:          0  iACCESS:          0  iHIT:          0  iMISS:          0  dACCESS:          0  dHIT:          0  dMISS:          0  itACCESS:          0  itHIT:          0  itMISS:          0  dtACCESS:          0  dtHIT:          0  dtMISS:          0
cpu0_STLB TRANSLATION  ACCESS:          0  HIT:          0  MISS:          0  iACCESS:          0  iHIT:          0  iMISS:          0  dACCESS:          0  dHIT:          0  dMISS:          0  itACCESS:          0  itHIT:          0  itMISS:          0  dtACCESS:          0  dtHIT:          0  dtMISS:          0
cpu0_STLB PREFETCH  REQUESTED:          0  ISSUED:          0  CROSSED:          0  USEFUL:          0  USELESS:          0
cpu0_STLB AVERAGE iMISS LATENCY: 27.5248 cycles
cpu0_STLB AVERAGE dMISS LATENCY: 137.241 cycles
cpu0_STLB AVERAGE itMISS LATENCY: 0 cycles
cpu0_STLB AVERAGE dtMISS LATENCY: 0 cycles
cpu0_STLB PAGE CROSSINGS (TLB HIT):         0 
cpu0_STLB PAGE CROSSINGS (TLB MISS):         0 
cpu0_STLB AVERAGE MISS LATENCY: 164.766 cycles
cpu0_L1D TOTAL       ACCESS:   45105102  HIT:   39324095  MISS:    5781007  iACCESS:          0  iHIT:          0  iMISS:          0  dACCESS:   44523444  dHIT:   39294555  dMISS:    5228889  itACCESS:      75295  itHIT:       6239  itMISS:      69056  dtACCESS:     506363  dtHIT:      23301  dtMISS:     483062
cpu0_L1D LOAD         ACCESS:   20348504  HIT:   18007877  MISS:    2340627  iACCESS:          0  iHIT:          0  iMISS:          0  dACCESS:   20348504  dHIT:   18007877  dMISS:    2340627  itACCESS:          0  itHIT:          0  itMISS:          0  dtACCESS:          0  dtHIT:          0  dtMISS:          0
cpu0_L1D RFO          ACCESS:          0  HIT:          0  MISS:          0  iACCESS:          0  iHIT:          0  iMISS:          0  dACCESS:          0  dHIT:          0  dMISS:          0  itACCESS:          0  itHIT:          0  itMISS:          0  dtACCESS:          0  dtHIT:          0  dtMISS:          0
cpu0_L1D PREFETCH     ACCESS:   14002627  HIT:   11695855  MISS:    2306772  iACCESS:          0  iHIT:          0  iMISS:          0  dACCESS:   14002627  dHIT:   11695855  dMISS:    2306772  itACCESS:          0  itHIT:          0  itMISS:          0  dtACCESS:          0  dtHIT:          0  dtMISS:          0
cpu0_L1D WRITE        ACCESS:   10172313  HIT:    9590823  MISS:     581490  iACCESS:          0  iHIT:          0  iMISS:          0  dACCESS:   10172313  dHIT:    9590823  dMISS:     581490  itACCESS:          0  itHIT:          0  itMISS:          0  dtACCESS:          0  dtHIT:          0  dtMISS:          0
cpu0_L1D TRANSLATION  ACCESS:     581658  HIT:      29540  MISS:     552118  iACCESS:          0  iHIT:          0  iMISS:          0  dACCESS:          0  dHIT:          0  dMISS:          0  itACCESS:      75295  itHIT:       6239  itMISS:      69056  dtACCESS:     506363  dtHIT:      23301  dtMISS:     483062
cpu0_L1D PREFETCH  REQUESTED:   20348504  ISSUED:   18582513  CROSSED:          0  USEFUL:     364464  USELESS:     936151
cpu0_L1D AVERAGE iMISS LATENCY: 0 cycles
cpu0_L1D AVERAGE dMISS LATENCY: 48.8473 cycles
cpu0_L1D AVERAGE itMISS LATENCY: 1.68251 cycles
cpu0_L1D AVERAGE dtMISS LATENCY: 8.13815 cycles
cpu0_L1D PAGE CROSSINGS (TLB HIT):         0 
cpu0_L1D PAGE CROSSINGS (TLB MISS):         0 
cpu0_L1D AVERAGE MISS LATENCY: 58.668 cycles
cpu0_L2C TOTAL       ACCESS:    8710028  HIT:    2424434  MISS:    6285594  iACCESS:    3808454  iHIT:    1347896  iMISS:    2460558  dACCESS:    4379992  dHIT:     846989  dMISS:    3533003  itACCESS:      68787  itHIT:      15749  itMISS:      53038  dtACCESS:     452795  dtHIT:     213800  dtMISS:     238995
cpu0_L2C LOAD         ACCESS:    2052721  HIT:     459380  MISS:    1593341  iACCESS:     841630  iHIT:     259427  iMISS:     582203  dACCESS:    1211091  dHIT:     199953  dMISS:    1011138  itACCESS:          0  itHIT:          0  itMISS:          0  dtACCESS:          0  dtHIT:          0  dtMISS:          0
cpu0_L2C RFO          ACCESS:     215483  HIT:      28354  MISS:     187129  iACCESS:          0  iHIT:          0  iMISS:          0  dACCESS:     215483  dHIT:      28354  dMISS:     187129  itACCESS:          0  itHIT:          0  itMISS:          0  dtACCESS:          0  dtHIT:          0  dtMISS:          0
cpu0_L2C PREFETCH     ACCESS:    5579976  HIT:    1588785  MISS:    3991191  iACCESS:    2966824  iHIT:    1088469  iMISS:    1878355  dACCESS:    2613152  dHIT:     500316  dMISS:    2112836  itACCESS:          0  itHIT:          0  itMISS:          0  dtACCESS:          0  dtHIT:          0  dtMISS:          0
cpu0_L2C WRITE        ACCESS:     340266  HIT:     118366  MISS:     221900  iACCESS:          0  iHIT:          0  iMISS:          0  dACCESS:     340266  dHIT:     118366  dMISS:     221900  itACCESS:          0  itHIT:          0  itMISS:          0  dtACCESS:          0  dtHIT:          0  dtMISS:          0
cpu0_L2C TRANSLATION  ACCESS:     521582  HIT:     229549  MISS:     292033  iACCESS:          0  iHIT:          0  iMISS:          0  dACCESS:          0  dHIT:          0  dMISS:          0  itACCESS:      68787  itHIT:      15749  itMISS:      53038  dtACCESS:     452795  dtHIT:     213800  dtMISS:     238995
cpu0_L2C PREFETCH  REQUESTED:    1548748  ISSUED:    1548745  CROSSED:          0  USEFUL:     388633  USELESS:     455495
cpu0_L2C AVERAGE iMISS LATENCY: 28.9903 cycles
cpu0_L2C AVERAGE dMISS LATENCY: 55.6274 cycles
cpu0_L2C AVERAGE itMISS LATENCY: 1.44015 cycles
cpu0_L2C AVERAGE dtMISS LATENCY: 6.79531 cycles
cpu0_L2C PAGE CROSSINGS (TLB HIT):         0 
cpu0_L2C PAGE CROSSINGS (TLB MISS):         0 
cpu0_L2C AVERAGE MISS LATENCY: 92.8531 cycles
LLC TOTAL       ACCESS:    6116193  HIT:    3367444  MISS:    2748749  iACCESS:    2368251  iHIT:    1503071  iMISS:     865180  dACCESS:    3455909  dHIT:    1816539  dMISS:    1639370  itACCESS:      53038  itHIT:       8390  itMISS:      44648  dtACCESS:     238995  dtHIT:      39444  dtMISS:     199551
LLC LOAD         ACCESS:    1586434  HIT:     934802  MISS:     651632  iACCESS:     580900  iHIT:     400226  iMISS:     180674  dACCESS:    1005534  dHIT:     534576  dMISS:     470958  itACCESS:          0  itHIT:          0  itMISS:          0  dtACCESS:          0  dtHIT:          0  dtMISS:          0
LLC RFO          ACCESS:     187089  HIT:      93255  MISS:      93834  iACCESS:          0  iHIT:          0  iMISS:          0  dACCESS:     187089  dHIT:      93255  dMISS:      93834  itACCESS:          0  itHIT:          0  itMISS:          0  dtACCESS:          0  dtHIT:          0  dtMISS:          0
LLC PREFETCH     ACCESS:    3775545  HIT:    2020776  MISS:    1754769  iACCESS:    1787351  iHIT:    1102845  iMISS:     684506  dACCESS:    1988194  dHIT:     917931  dMISS:    1070263  itACCESS:          0  itHIT:          0  itMISS:          0  dtACCESS:          0  dtHIT:          0  dtMISS:          0
LLC WRITE        ACCESS:     275092  HIT:     270777  MISS:       4315  iACCESS:          0  iHIT:          0  iMISS:          0  dACCESS:     275092  dHIT:     270777  dMISS:       4315  itACCESS:          0  itHIT:          0  itMISS:          0  dtACCESS:          0  dtHIT:          0  dtMISS:          0
LLC TRANSLATION  ACCESS:     292033  HIT:      47834  MISS:     244199  iACCESS:          0  iHIT:          0  iMISS:          0  dACCESS:          0  dHIT:          0  dMISS:          0  itACCESS:      53038  itHIT:       8390  itMISS:      44648  dtACCESS:     238995  dtHIT:      39444  dtMISS:     199551
LLC PREFETCH  REQUESTED:          0  ISSUED:          0  CROSSED:          0  USEFUL:          0  USELESS:          0
LLC AVERAGE iMISS LATENCY: 49.5257 cycles
LLC AVERAGE dMISS LATENCY: 105.583 cycles
LLC AVERAGE itMISS LATENCY: 2.91191 cycles
LLC AVERAGE dtMISS LATENCY: 13.8217 cycles
LLC PAGE CROSSINGS (TLB HIT):         0 
LLC PAGE CROSSINGS (TLB MISS):         0 
LLC AVERAGE MISS LATENCY: 171.842 cycles

PageTableWalker TOTAL       ACCESS:     180868  
PageTableWalker AVERAGE LATENCY: 5.99942 cycles
PageTableWalker TOTAL LATENCY: 1085102 cycles

DRAM Statistics
Channel 0
 RQ ROW_BUFFER_HIT:     609434
  ROW_BUFFER_MISS:    2116020
 AVG DBUS CONGESTED CYCLE:     3.6559
 WQ ROW_BUFFER_HIT:      67304
  ROW_BUFFER_MISS:      64411  FULL:          0

