last_page:0x200000000000000
VMEM_RES_CAP:0x100000
PAGE_SIZE:4096
LOG2_PAGE_SIZE:12
LOG2_PAGE_TABLE_SIZE:9
page_table_levels:5
WARNING: physical memory size is smaller than virtual memory size
FDiP enabled with aggresivity 16

*** ChampSim Multicore Out-of-Order Simulator ***

Warmup Instructions: 50000000
Simulation Instructions: 100000000
Number of CPUs: 1
Small page size: 4096
Large page size: 2097152

CPU 0 Bimodal branch predictor
Basic BTB sets: 1024 ways: 8 indirect buffer size: 4096 RAS size: 64
Instruction page size distrubution: 0
Loading instruction page size distribution from /home/bsc/bsc018186/scratch/itp_asplos25_AE/dump/smt_srv540_ap_srv73_ap_1024i.pdst
Data page size distrubution: 0
Loading data page size distribution from /home/bsc/bsc018186/scratch/itp_asplos25_AE/dump/smt_srv540_ap_srv73_ap_1024i.pdst
cpu0_L2C IP-based stride prefetcher
cpu0_L1D next line prefetcher
CHiRPing...
cpu0_L1I next line prefetcher
Off-chip DRAM Size: 4 GiB Channels: 1 Width: 64-bit Data Rate: 3200 MT/s
Heartbeat CPU 0 instructions: 10000002 cycles: 2500370 heartbeat IPC: 3.99941 cumulative IPC: 3.99941 (Simulation time: 0 hr 0 min 40 sec) 
Heartbeat CPU 0 instructions: 20000001 cycles: 5000988 heartbeat IPC: 3.99902 cumulative IPC: 3.99921 (Simulation time: 0 hr 1 min 22 sec) 
Heartbeat CPU 0 instructions: 30000000 cycles: 7501584 heartbeat IPC: 3.99905 cumulative IPC: 3.99916 (Simulation time: 0 hr 2 min 4 sec) 
Heartbeat CPU 0 instructions: 40000003 cycles: 10001906 heartbeat IPC: 3.99949 cumulative IPC: 3.99924 (Simulation time: 0 hr 2 min 47 sec) 
Heartbeat CPU 0 instructions: 50000002 cycles: 12503410 heartbeat IPC: 3.9976 cumulative IPC: 3.99891 (Simulation time: 0 hr 3 min 30 sec) 
Warmup finished CPU 0 instructions: 50000002 cycles: 12503411 cumulative IPC: 3.99891 (Simulation time: 0 hr 3 min 30 sec) 

Warmup complete CPU 0 instructions: 50000002 cycles: 12503411 (Simulation time: 0 hr 3 min 30 sec) 

Heartbeat CPU 0 instructions: 60000004 cycles: 35439629 heartbeat IPC: 0.435992 cumulative IPC: 0.435992 (Simulation time: 0 hr 4 min 46 sec) 
Heartbeat CPU 0 instructions: 70000003 cycles: 55938817 heartbeat IPC: 0.487825 cumulative IPC: 0.460454 (Simulation time: 0 hr 5 min 58 sec) 
Heartbeat CPU 0 instructions: 80000002 cycles: 78065001 heartbeat IPC: 0.451954 cumulative IPC: 0.457585 (Simulation time: 0 hr 7 min 13 sec) 
Heartbeat CPU 0 instructions: 90000000 cycles: 106258426 heartbeat IPC: 0.354693 cumulative IPC: 0.426644 (Simulation time: 0 hr 8 min 36 sec) 
Heartbeat CPU 0 instructions: 100000001 cycles: 135983258 heartbeat IPC: 0.33642 cumulative IPC: 0.404925 (Simulation time: 0 hr 10 min 3 sec) 
Heartbeat CPU 0 instructions: 110000001 cycles: 164118328 heartbeat IPC: 0.355429 cumulative IPC: 0.39574 (Simulation time: 0 hr 11 min 28 sec) 
Heartbeat CPU 0 instructions: 120000001 cycles: 192073650 heartbeat IPC: 0.357714 cumulative IPC: 0.38982 (Simulation time: 0 hr 12 min 53 sec) 
Heartbeat CPU 0 instructions: 130000000 cycles: 209354077 heartbeat IPC: 0.57869 cumulative IPC: 0.4064 (Simulation time: 0 hr 14 min 8 sec) 
Heartbeat CPU 0 instructions: 140000002 cycles: 229847771 heartbeat IPC: 0.487956 cumulative IPC: 0.41409 (Simulation time: 0 hr 15 min 26 sec) 
Heartbeat CPU 0 instructions: 150000001 cycles: 257057604 heartbeat IPC: 0.367515 cumulative IPC: 0.408908 (Simulation time: 0 hr 16 min 49 sec) 
Simulation finished CPU 0 instructions: 100000004 cycles: 244554195 cumulative IPC: 0.408908 (Simulation time: 0 hr 16 min 49 sec) 

Simulation complete CPU 0 instructions: 100000004 cycles: 244554195 (Simulation time: 0 hr 16 min 49 sec) 


ChampSim completed all CPUs

Saving instructions large page distribution to /home/bsc/bsc018186/scratch/itp_asplos25_AE/dump/smt_srv540_ap_srv73_ap_1024i.pdst...
Saving data large page distribution to /home/bsc/bsc018186/scratch/itp_asplos25_AE/dump/smt_srv540_ap_srv73_ap_1024i.pdst...
=== Simulation ===
CPU 0 runs /gpfs/projects/bsc18/MN4/bsc18/romol/ChampSim/traces/qualcomm_srv/smt_srv540_ap_srv73_ap_1024i.champsimtrace.xz

Region of Interest Statistics

CPU 0 cumulative IPC: 0.408908 instructions: 100000004 cycles: 244554195
CPU 0 Branch Prediction Accuracy: 78.132% MPKI: 42.4346 Average ROB Occupancy at Mispredict: 11.2976
Branch type MPKI
BRANCH_DIRECT_JUMP: 1.07927
BRANCH_INDIRECT: 22.652
BRANCH_CONDITIONAL: 12.1235
BRANCH_DIRECT_CALL: 1.99652
BRANCH_INDIRECT_CALL: 1.67128
BRANCH_RETURN: 2.91218

Instructions large pages: 0
Instructions small pages: 11045
Large page distribution for instructions: 0%

Data large pages: 0
Data small pages: 9196
Large page distribution for data: 0%

cpu0_L1I TOTAL       ACCESS:   38320114  HIT:   30911363  MISS:    7408751  iACCESS:   38320114  iHIT:   30911363  iMISS:    7408751  dACCESS:          0  dHIT:          0  dMISS:          0  itACCESS:          0  itHIT:          0  itMISS:          0  dtACCESS:          0  dtHIT:          0  dtMISS:          0
cpu0_L1I LOAD         ACCESS:   10593426  HIT:    8567801  MISS:    2025625  iACCESS:   10593426  iHIT:    8567801  iMISS:    2025625  dACCESS:          0  dHIT:          0  dMISS:          0  itACCESS:          0  itHIT:          0  itMISS:          0  dtACCESS:          0  dtHIT:          0  dtMISS:          0
cpu0_L1I RFO          ACCESS:          0  HIT:          0  MISS:          0  iACCESS:          0  iHIT:          0  iMISS:          0  dACCESS:          0  dHIT:          0  dMISS:          0  itACCESS:          0  itHIT:          0  itMISS:          0  dtACCESS:          0  dtHIT:          0  dtMISS:          0
cpu0_L1I PREFETCH     ACCESS:   27726688  HIT:   22343562  MISS:    5383126  iACCESS:   27726688  iHIT:   22343562  iMISS:    5383126  dACCESS:          0  dHIT:          0  dMISS:          0  itACCESS:          0  itHIT:          0  itMISS:          0  dtACCESS:          0  dtHIT:          0  dtMISS:          0
cpu0_L1I WRITE        ACCESS:          0  HIT:          0  MISS:          0  iACCESS:          0  iHIT:          0  iMISS:          0  dACCESS:          0  dHIT:          0  dMISS:          0  itACCESS:          0  itHIT:          0  itMISS:          0  dtACCESS:          0  dtHIT:          0  dtMISS:          0
cpu0_L1I TRANSLATION  ACCESS:          0  HIT:          0  MISS:          0  iACCESS:          0  iHIT:          0  iMISS:          0  dACCESS:          0  dHIT:          0  dMISS:          0  itACCESS:          0  itHIT:          0  itMISS:          0  dtACCESS:          0  dtHIT:          0  dtMISS:          0
cpu0_L1I PREFETCH  REQUESTED:   29982412  ISSUED:   29981279  CROSSED:          0  USEFUL:    1768923  USELESS:     631000
cpu0_L1I AVERAGE iMISS LATENCY: 24.0552 cycles
cpu0_L1I AVERAGE dMISS LATENCY: 0 cycles
cpu0_L1I AVERAGE itMISS LATENCY: 0 cycles
cpu0_L1I AVERAGE dtMISS LATENCY: 0 cycles
cpu0_L1I PAGE CROSSINGS (TLB HIT):         0 
cpu0_L1I PAGE CROSSINGS (TLB MISS):         0 
cpu0_L1I AVERAGE MISS LATENCY: 24.0552 cycles
cpu0_ITLB TOTAL       ACCESS:   32222591  HIT:   30403850  MISS:    1818741  iACCESS:   32222591  iHIT:   30403850  iMISS:    1818741  dACCESS:          0  dHIT:          0  dMISS:          0  itACCESS:          0  itHIT:          0  itMISS:          0  dtACCESS:          0  dtHIT:          0  dtMISS:          0
cpu0_ITLB LOAD         ACCESS:   32222591  HIT:   30403850  MISS:    1818741  iACCESS:   32222591  iHIT:   30403850  iMISS:    1818741  dACCESS:          0  dHIT:          0  dMISS:          0  itACCESS:          0  itHIT:          0  itMISS:          0  dtACCESS:          0  dtHIT:          0  dtMISS:          0
cpu0_ITLB RFO          ACCESS:          0  HIT:          0  MISS:          0  iACCESS:          0  iHIT:          0  iMISS:          0  dACCESS:          0  dHIT:          0  dMISS:          0  itACCESS:          0  itHIT:          0  itMISS:          0  dtACCESS:          0  dtHIT:          0  dtMISS:          0
cpu0_ITLB PREFETCH     ACCESS:          0  HIT:          0  MISS:          0  iACCESS:          0  iHIT:          0  iMISS:          0  dACCESS:          0  dHIT:          0  dMISS:          0  itACCESS:          0  itHIT:          0  itMISS:          0  dtACCESS:          0  dtHIT:          0  dtMISS:          0
cpu0_ITLB WRITE        ACCESS:          0  HIT:          0  MISS:          0  iACCESS:          0  iHIT:          0  iMISS:          0  dACCESS:          0  dHIT:          0  dMISS:          0  itACCESS:          0  itHIT:          0  itMISS:          0  dtACCESS:          0  dtHIT:          0  dtMISS:          0
cpu0_ITLB TRANSLATION  ACCESS:          0  HIT:          0  MISS:          0  iACCESS:          0  iHIT:          0  iMISS:          0  dACCESS:          0  dHIT:          0  dMISS:          0  itACCESS:          0  itHIT:          0  itMISS:          0  dtACCESS:          0  dtHIT:          0  dtMISS:          0
cpu0_ITLB PREFETCH  REQUESTED:          0  ISSUED:          0  CROSSED:          0  USEFUL:     320359  USELESS:      66990
cpu0_ITLB AVERAGE iMISS LATENCY: 7.96056 cycles
cpu0_ITLB AVERAGE dMISS LATENCY: 0 cycles
cpu0_ITLB AVERAGE itMISS LATENCY: 0 cycles
cpu0_ITLB AVERAGE dtMISS LATENCY: 0 cycles
cpu0_ITLB PAGE CROSSINGS (TLB HIT):         0 
cpu0_ITLB PAGE CROSSINGS (TLB MISS):         0 
cpu0_ITLB AVERAGE MISS LATENCY: 7.96056 cycles
cpu0_DTLB TOTAL       ACCESS:   31237647  HIT:   25892958  MISS:    5344689  iACCESS:          0  iHIT:          0  iMISS:          0  dACCESS:   31237647  dHIT:   25892958  dMISS:    5344689  itACCESS:          0  itHIT:          0  itMISS:          0  dtACCESS:          0  dtHIT:          0  dtMISS:          0
cpu0_DTLB LOAD         ACCESS:   31237647  HIT:   25892958  MISS:    5344689  iACCESS:          0  iHIT:          0  iMISS:          0  dACCESS:   31237647  dHIT:   25892958  dMISS:    5344689  itACCESS:          0  itHIT:          0  itMISS:          0  dtACCESS:          0  dtHIT:          0  dtMISS:          0
cpu0_DTLB RFO          ACCESS:          0  HIT:          0  MISS:          0  iACCESS:          0  iHIT:          0  iMISS:          0  dACCESS:          0  dHIT:          0  dMISS:          0  itACCESS:          0  itHIT:          0  itMISS:          0  dtACCESS:          0  dtHIT:          0  dtMISS:          0
cpu0_DTLB PREFETCH     ACCESS:          0  HIT:          0  MISS:          0  iACCESS:          0  iHIT:          0  iMISS:          0  dACCESS:          0  dHIT:          0  dMISS:          0  itACCESS:          0  itHIT:          0  itMISS:          0  dtACCESS:          0  dtHIT:          0  dtMISS:          0
cpu0_DTLB WRITE        ACCESS:          0  HIT:          0  MISS:          0  iACCESS:          0  iHIT:          0  iMISS:          0  dACCESS:          0  dHIT:          0  dMISS:          0  itACCESS:          0  itHIT:          0  itMISS:          0  dtACCESS:          0  dtHIT:          0  dtMISS:          0
cpu0_DTLB TRANSLATION  ACCESS:          0  HIT:          0  MISS:          0  iACCESS:          0  iHIT:          0  iMISS:          0  dACCESS:          0  dHIT:          0  dMISS:          0  itACCESS:          0  itHIT:          0  itMISS:          0  dtACCESS:          0  dtHIT:          0  dtMISS:          0
cpu0_DTLB PREFETCH  REQUESTED:          0  ISSUED:          0  CROSSED:          0  USEFUL:          0  USELESS:          0
cpu0_DTLB AVERAGE iMISS LATENCY: 0 cycles
cpu0_DTLB AVERAGE dMISS LATENCY: 10.7167 cycles
cpu0_DTLB AVERAGE itMISS LATENCY: 0 cycles
cpu0_DTLB AVERAGE dtMISS LATENCY: 0 cycles
cpu0_DTLB PAGE CROSSINGS (TLB HIT):         0 
cpu0_DTLB PAGE CROSSINGS (TLB MISS):         0 
cpu0_DTLB AVERAGE MISS LATENCY: 10.7167 cycles
cpu0_STLB TOTAL       ACCESS:    3261901  HIT:    2975318  MISS:     286583  iACCESS:     387353  iHIT:     297209  iMISS:      90144  dACCESS:    2874548  dHIT:    2678109  dMISS:     196439  itACCESS:          0  itHIT:          0  itMISS:          0  dtACCESS:          0  dtHIT:          0  dtMISS:          0
cpu0_STLB LOAD         ACCESS:    3261901  HIT:    2975318  MISS:     286583  iACCESS:     387353  iHIT:     297209  iMISS:      90144  dACCESS:    2874548  dHIT:    2678109  dMISS:     196439  itACCESS:          0  itHIT:          0  itMISS:          0  dtACCESS:          0  dtHIT:          0  dtMISS:          0
cpu0_STLB RFO          ACCESS:          0  HIT:          0  MISS:          0  iACCESS:          0  iHIT:          0  iMISS:          0  dACCESS:          0  dHIT:          0  dMISS:          0  itACCESS:          0  itHIT:          0  itMISS:          0  dtACCESS:          0  dtHIT:          0  dtMISS:          0
cpu0_STLB PREFETCH     ACCESS:          0  HIT:          0  MISS:          0  iACCESS:          0  iHIT:          0  iMISS:          0  dACCESS:          0  dHIT:          0  dMISS:          0  itACCESS:          0  itHIT:          0  itMISS:          0  dtACCESS:          0  dtHIT:          0  dtMISS:          0
cpu0_STLB WRITE        ACCESS:          0  HIT:          0  MISS:          0  iACCESS:          0  iHIT:          0  iMISS:          0  dACCESS:          0  dHIT:          0  dMISS:          0  itACCESS:          0  itHIT:          0  itMISS:          0  dtACCESS:          0  dtHIT:          0  dtMISS:          0
cpu0_STLB TRANSLATION  ACCESS:          0  HIT:          0  MISS:          0  iACCESS:          0  iHIT:          0  iMISS:          0  dACCESS:          0  dHIT:          0  dMISS:          0  itACCESS:          0  itHIT:          0  itMISS:          0  dtACCESS:          0  dtHIT:          0  dtMISS:          0
cpu0_STLB PREFETCH  REQUESTED:          0  ISSUED:          0  CROSSED:          0  USEFUL:          0  USELESS:          0
cpu0_STLB AVERAGE iMISS LATENCY: 39.7297 cycles
cpu0_STLB AVERAGE dMISS LATENCY: 118.884 cycles
cpu0_STLB AVERAGE itMISS LATENCY: 0 cycles
cpu0_STLB AVERAGE dtMISS LATENCY: 0 cycles
cpu0_STLB PAGE CROSSINGS (TLB HIT):         0 
cpu0_STLB PAGE CROSSINGS (TLB MISS):         0 
cpu0_STLB AVERAGE MISS LATENCY: 158.614 cycles
cpu0_L1D TOTAL       ACCESS:   50130542  HIT:   40573918  MISS:    9556624  iACCESS:          0  iHIT:          0  iMISS:          0  dACCESS:   49672647  dHIT:   40550306  dMISS:    9122341  itACCESS:     112181  itHIT:       9714  itMISS:     102467  dtACCESS:     345714  dtHIT:      13898  dtMISS:     331816
cpu0_L1D LOAD         ACCESS:   24064361  HIT:   19228692  MISS:    4835669  iACCESS:          0  iHIT:          0  iMISS:          0  dACCESS:   24064361  dHIT:   19228692  dMISS:    4835669  itACCESS:          0  itHIT:          0  itMISS:          0  dtACCESS:          0  dtHIT:          0  dtMISS:          0
cpu0_L1D RFO          ACCESS:          0  HIT:          0  MISS:          0  iACCESS:          0  iHIT:          0  iMISS:          0  dACCESS:          0  dHIT:          0  dMISS:          0  itACCESS:          0  itHIT:          0  itMISS:          0  dtACCESS:          0  dtHIT:          0  dtMISS:          0
cpu0_L1D PREFETCH     ACCESS:   15778505  HIT:   12275859  MISS:    3502646  iACCESS:          0  iHIT:          0  iMISS:          0  dACCESS:   15778505  dHIT:   12275859  dMISS:    3502646  itACCESS:          0  itHIT:          0  itMISS:          0  dtACCESS:          0  dtHIT:          0  dtMISS:          0
cpu0_L1D WRITE        ACCESS:    9829781  HIT:    9045755  MISS:     784026  iACCESS:          0  iHIT:          0  iMISS:          0  dACCESS:    9829781  dHIT:    9045755  dMISS:     784026  itACCESS:          0  itHIT:          0  itMISS:          0  dtACCESS:          0  dtHIT:          0  dtMISS:          0
cpu0_L1D TRANSLATION  ACCESS:     457895  HIT:      23612  MISS:     434283  iACCESS:          0  iHIT:          0  iMISS:          0  dACCESS:          0  dHIT:          0  dMISS:          0  itACCESS:     112181  itHIT:       9714  itMISS:     102467  dtACCESS:     345714  dtHIT:      13898  dtMISS:     331816
cpu0_L1D PREFETCH  REQUESTED:   24064361  ISSUED:   19664472  CROSSED:          0  USEFUL:     340096  USELESS:    1048559
cpu0_L1D AVERAGE iMISS LATENCY: 0 cycles
cpu0_L1D AVERAGE dMISS LATENCY: 30.4832 cycles
cpu0_L1D AVERAGE itMISS LATENCY: 1.09376 cycles
cpu0_L1D AVERAGE dtMISS LATENCY: 3.19228 cycles
cpu0_L1D PAGE CROSSINGS (TLB HIT):         0 
cpu0_L1D PAGE CROSSINGS (TLB MISS):         0 
cpu0_L1D AVERAGE MISS LATENCY: 34.7692 cycles
cpu0_L2C TOTAL       ACCESS:    9033484  HIT:    1816026  MISS:    7217458  iACCESS:    3056196  iHIT:     631871  iMISS:    2424325  dACCESS:    5610312  dHIT:    1046623  dMISS:    4563689  itACCESS:      91074  itHIT:      30165  itMISS:      60909  dtACCESS:     275902  dtHIT:     107367  dtMISS:     168535
cpu0_L2C LOAD         ACCESS:    3302835  HIT:     635751  MISS:    2667084  iACCESS:     683279  iHIT:      91970  iMISS:     591309  dACCESS:    2619556  dHIT:     543781  dMISS:    2075775  itACCESS:          0  itHIT:          0  itMISS:          0  dtACCESS:          0  dtHIT:          0  dtMISS:          0
cpu0_L2C RFO          ACCESS:     236781  HIT:      30685  MISS:     206096  iACCESS:          0  iHIT:          0  iMISS:          0  dACCESS:     236781  dHIT:      30685  dMISS:     206096  itACCESS:          0  itHIT:          0  itMISS:          0  dtACCESS:          0  dtHIT:          0  dtMISS:          0
cpu0_L2C PREFETCH     ACCESS:    4791254  HIT:     903786  MISS:    3887468  iACCESS:    2372917  iHIT:     539901  iMISS:    1833016  dACCESS:    2418337  dHIT:     363885  dMISS:    2054452  itACCESS:          0  itHIT:          0  itMISS:          0  dtACCESS:          0  dtHIT:          0  dtMISS:          0
cpu0_L2C WRITE        ACCESS:     335638  HIT:     108272  MISS:     227366  iACCESS:          0  iHIT:          0  iMISS:          0  dACCESS:     335638  dHIT:     108272  dMISS:     227366  itACCESS:          0  itHIT:          0  itMISS:          0  dtACCESS:          0  dtHIT:          0  dtMISS:          0
cpu0_L2C TRANSLATION  ACCESS:     366976  HIT:     137532  MISS:     229444  iACCESS:          0  iHIT:          0  iMISS:          0  dACCESS:          0  dHIT:          0  dMISS:          0  itACCESS:      91074  itHIT:      30165  itMISS:      60909  dtACCESS:     275902  dtHIT:     107367  dtMISS:     168535
cpu0_L2C PREFETCH  REQUESTED:    1214315  ISSUED:    1214310  CROSSED:          0  USEFUL:     317760  USELESS:     387233
cpu0_L2C AVERAGE iMISS LATENCY: 21.0789 cycles
cpu0_L2C AVERAGE dMISS LATENCY: 44.4829 cycles
cpu0_L2C AVERAGE itMISS LATENCY: 1.32594 cycles
cpu0_L2C AVERAGE dtMISS LATENCY: 3.85786 cycles
cpu0_L2C PAGE CROSSINGS (TLB HIT):         0 
cpu0_L2C PAGE CROSSINGS (TLB MISS):         0 
cpu0_L2C AVERAGE MISS LATENCY: 70.7456 cycles
LLC TOTAL       ACCESS:    7070333  HIT:    4877747  MISS:    2192586  iACCESS:    2356553  iHIT:    1683721  iMISS:     672832  dACCESS:    4484336  dHIT:    3139187  dMISS:    1345149  itACCESS:      60909  itHIT:      13973  itMISS:      46936  dtACCESS:     168535  dtHIT:      40866  dtMISS:     127669
LLC LOAD         ACCESS:    2660672  HIT:    2122155  MISS:     538517  iACCESS:     590268  iHIT:     449700  iMISS:     140568  dACCESS:    2070404  dHIT:    1672455  dMISS:     397949  itACCESS:          0  itHIT:          0  itMISS:          0  dtACCESS:          0  dtHIT:          0  dtMISS:          0
LLC RFO          ACCESS:     206038  HIT:     113151  MISS:      92887  iACCESS:          0  iHIT:          0  iMISS:          0  dACCESS:     206038  dHIT:     113151  dMISS:      92887  itACCESS:          0  itHIT:          0  itMISS:          0  dtACCESS:          0  dtHIT:          0  dtMISS:          0
LLC PREFETCH     ACCESS:    3711121  HIT:    2329748  MISS:    1381373  iACCESS:    1766285  iHIT:    1234021  iMISS:     532264  dACCESS:    1944836  dHIT:    1095727  dMISS:     849109  itACCESS:          0  itHIT:          0  itMISS:          0  dtACCESS:          0  dtHIT:          0  dtMISS:          0
LLC WRITE        ACCESS:     263058  HIT:     257854  MISS:       5204  iACCESS:          0  iHIT:          0  iMISS:          0  dACCESS:     263058  dHIT:     257854  dMISS:       5204  itACCESS:          0  itHIT:          0  itMISS:          0  dtACCESS:          0  dtHIT:          0  dtMISS:          0
LLC TRANSLATION  ACCESS:     229444  HIT:      54839  MISS:     174605  iACCESS:          0  iHIT:          0  iMISS:          0  dACCESS:          0  dHIT:          0  dMISS:          0  itACCESS:      60909  itHIT:      13973  itMISS:      46936  dtACCESS:     168535  dtHIT:      40866  dtMISS:     127669
LLC PREFETCH  REQUESTED:          0  ISSUED:          0  CROSSED:          0  USEFUL:          0  USELESS:          0
LLC AVERAGE iMISS LATENCY: 48.5156 cycles
LLC AVERAGE dMISS LATENCY: 109.931 cycles
LLC AVERAGE itMISS LATENCY: 3.81722 cycles
LLC AVERAGE dtMISS LATENCY: 11.1863 cycles
LLC PAGE CROSSINGS (TLB HIT):         0 
LLC PAGE CROSSINGS (TLB MISS):         0 
LLC AVERAGE MISS LATENCY: 173.45 cycles

PageTableWalker TOTAL       ACCESS:     190849  
PageTableWalker AVERAGE LATENCY: 5.92466 cycles
PageTableWalker TOTAL LATENCY: 1130714 cycles

DRAM Statistics
Channel 0
 RQ ROW_BUFFER_HIT:     475669
  ROW_BUFFER_MISS:    1696663
 AVG DBUS CONGESTED CYCLE:    3.65988
 WQ ROW_BUFFER_HIT:      55661
  ROW_BUFFER_MISS:      60404  FULL:          0

