last_page:0x200000000000000
VMEM_RES_CAP:0x100000
PAGE_SIZE:4096
LOG2_PAGE_SIZE:12
LOG2_PAGE_TABLE_SIZE:9
page_table_levels:5
WARNING: physical memory size is smaller than virtual memory size
FDiP enabled with aggresivity 16

*** ChampSim Multicore Out-of-Order Simulator ***

Warmup Instructions: 50000000
Simulation Instructions: 100000000
Number of CPUs: 1
Small page size: 4096
Large page size: 2097152

CPU 0 Bimodal branch predictor
Basic BTB sets: 1024 ways: 8 indirect buffer size: 4096 RAS size: 64
Instruction page size distrubution: 0
Loading instruction page size distribution from /home/bsc/bsc018186/scratch/itp_asplos25_AE/dump/smt_srv207_ap_srv128_ap_1024i.pdst
Data page size distrubution: 0
Loading data page size distribution from /home/bsc/bsc018186/scratch/itp_asplos25_AE/dump/smt_srv207_ap_srv128_ap_1024i.pdst
cpu0_L2C IP-based stride prefetcher
cpu0_L1D next line prefetcher
cpu0_L1I next line prefetcher
Off-chip DRAM Size: 4 GiB Channels: 1 Width: 64-bit Data Rate: 3200 MT/s
Heartbeat CPU 0 instructions: 10000000 cycles: 2500699 heartbeat IPC: 3.99889 cumulative IPC: 3.99889 (Simulation time: 0 hr 0 min 40 sec) 
Heartbeat CPU 0 instructions: 20000002 cycles: 5091454 heartbeat IPC: 3.85988 cumulative IPC: 3.92816 (Simulation time: 0 hr 1 min 21 sec) 
Heartbeat CPU 0 instructions: 30000001 cycles: 7660001 heartbeat IPC: 3.89326 cumulative IPC: 3.91645 (Simulation time: 0 hr 2 min 5 sec) 
Heartbeat CPU 0 instructions: 40000002 cycles: 10217005 heartbeat IPC: 3.91083 cumulative IPC: 3.91505 (Simulation time: 0 hr 2 min 50 sec) 
Heartbeat CPU 0 instructions: 50000000 cycles: 12717541 heartbeat IPC: 3.99915 cumulative IPC: 3.93158 (Simulation time: 0 hr 3 min 36 sec) 
Warmup finished CPU 0 instructions: 50000000 cycles: 12717542 cumulative IPC: 3.93158 (Simulation time: 0 hr 3 min 36 sec) 

Warmup complete CPU 0 instructions: 50000000 cycles: 12717542 (Simulation time: 0 hr 3 min 36 sec) 

Heartbeat CPU 0 instructions: 60000000 cycles: 41638410 heartbeat IPC: 0.345772 cumulative IPC: 0.345772 (Simulation time: 0 hr 5 min 13 sec) 
Heartbeat CPU 0 instructions: 70000000 cycles: 70361326 heartbeat IPC: 0.348155 cumulative IPC: 0.346959 (Simulation time: 0 hr 6 min 50 sec) 
Heartbeat CPU 0 instructions: 80000002 cycles: 100317191 heartbeat IPC: 0.333825 cumulative IPC: 0.342468 (Simulation time: 0 hr 8 min 29 sec) 
Heartbeat CPU 0 instructions: 90000000 cycles: 128659453 heartbeat IPC: 0.35283 cumulative IPC: 0.345001 (Simulation time: 0 hr 10 min 4 sec) 
Heartbeat CPU 0 instructions: 100000004 cycles: 157630692 heartbeat IPC: 0.345171 cumulative IPC: 0.345035 (Simulation time: 0 hr 11 min 33 sec) 
Heartbeat CPU 0 instructions: 110000000 cycles: 186174464 heartbeat IPC: 0.350339 cumulative IPC: 0.345908 (Simulation time: 0 hr 13 min 7 sec) 
Heartbeat CPU 0 instructions: 120000000 cycles: 215003146 heartbeat IPC: 0.346877 cumulative IPC: 0.346046 (Simulation time: 0 hr 14 min 43 sec) 
Heartbeat CPU 0 instructions: 130000000 cycles: 242577080 heartbeat IPC: 0.362662 cumulative IPC: 0.348039 (Simulation time: 0 hr 16 min 15 sec) 
Heartbeat CPU 0 instructions: 140000002 cycles: 272250440 heartbeat IPC: 0.337003 cumulative IPC: 0.346777 (Simulation time: 0 hr 17 min 51 sec) 
Heartbeat CPU 0 instructions: 150000000 cycles: 300926741 heartbeat IPC: 0.34872 cumulative IPC: 0.346971 (Simulation time: 0 hr 19 min 27 sec) 
Simulation finished CPU 0 instructions: 100000000 cycles: 288209200 cumulative IPC: 0.346971 (Simulation time: 0 hr 19 min 27 sec) 

Simulation complete CPU 0 instructions: 100000000 cycles: 288209200 (Simulation time: 0 hr 19 min 27 sec) 


ChampSim completed all CPUs

Saving instructions large page distribution to /home/bsc/bsc018186/scratch/itp_asplos25_AE/dump/smt_srv207_ap_srv128_ap_1024i.pdst...
Saving data large page distribution to /home/bsc/bsc018186/scratch/itp_asplos25_AE/dump/smt_srv207_ap_srv128_ap_1024i.pdst...
=== Simulation ===
CPU 0 runs /gpfs/projects/bsc18/MN4/bsc18/romol/ChampSim/traces/qualcomm_srv/smt_srv207_ap_srv128_ap_1024i.champsimtrace.xz

Region of Interest Statistics

CPU 0 cumulative IPC: 0.346971 instructions: 100000000 cycles: 288209200
CPU 0 Branch Prediction Accuracy: 74.6378% MPKI: 45.7035 Average ROB Occupancy at Mispredict: 10.5052
Branch type MPKI
BRANCH_DIRECT_JUMP: 1.42681
BRANCH_INDIRECT: 24.0043
BRANCH_CONDITIONAL: 12.9435
BRANCH_DIRECT_CALL: 2.70896
BRANCH_INDIRECT_CALL: 1.03281
BRANCH_RETURN: 3.58728

Instructions large pages: 0
Instructions small pages: 11526
Large page distribution for instructions: 0%

Data large pages: 0
Data small pages: 9998
Large page distribution for data: 0%

cpu0_L1I TOTAL       ACCESS:   39531335  HIT:   30255646  MISS:    9275689  iACCESS:   39531335  iHIT:   30255646  iMISS:    9275689  dACCESS:          0  dHIT:          0  dMISS:          0  itACCESS:          0  itHIT:          0  itMISS:          0  dtACCESS:          0  dtHIT:          0  dtMISS:          0
cpu0_L1I LOAD         ACCESS:   11685085  HIT:    9168796  MISS:    2516289  iACCESS:   11685085  iHIT:    9168796  iMISS:    2516289  dACCESS:          0  dHIT:          0  dMISS:          0  itACCESS:          0  itHIT:          0  itMISS:          0  dtACCESS:          0  dtHIT:          0  dtMISS:          0
cpu0_L1I RFO          ACCESS:          0  HIT:          0  MISS:          0  iACCESS:          0  iHIT:          0  iMISS:          0  dACCESS:          0  dHIT:          0  dMISS:          0  itACCESS:          0  itHIT:          0  itMISS:          0  dtACCESS:          0  dtHIT:          0  dtMISS:          0
cpu0_L1I PREFETCH     ACCESS:   27846250  HIT:   21086850  MISS:    6759400  iACCESS:   27846250  iHIT:   21086850  iMISS:    6759400  dACCESS:          0  dHIT:          0  dMISS:          0  itACCESS:          0  itHIT:          0  itMISS:          0  dtACCESS:          0  dtHIT:          0  dtMISS:          0
cpu0_L1I WRITE        ACCESS:          0  HIT:          0  MISS:          0  iACCESS:          0  iHIT:          0  iMISS:          0  dACCESS:          0  dHIT:          0  dMISS:          0  itACCESS:          0  itHIT:          0  itMISS:          0  dtACCESS:          0  dtHIT:          0  dtMISS:          0
cpu0_L1I TRANSLATION  ACCESS:          0  HIT:          0  MISS:          0  iACCESS:          0  iHIT:          0  iMISS:          0  dACCESS:          0  dHIT:          0  dMISS:          0  itACCESS:          0  itHIT:          0  itMISS:          0  dtACCESS:          0  dtHIT:          0  dtMISS:          0
cpu0_L1I PREFETCH  REQUESTED:   30361194  ISSUED:   30359720  CROSSED:          0  USEFUL:    2215842  USELESS:     793649
cpu0_L1I AVERAGE iMISS LATENCY: 24.7612 cycles
cpu0_L1I AVERAGE dMISS LATENCY: 0 cycles
cpu0_L1I AVERAGE itMISS LATENCY: 0 cycles
cpu0_L1I AVERAGE dtMISS LATENCY: 0 cycles
cpu0_L1I PAGE CROSSINGS (TLB HIT):         0 
cpu0_L1I PAGE CROSSINGS (TLB MISS):         0 
cpu0_L1I AVERAGE MISS LATENCY: 24.7612 cycles
cpu0_ITLB TOTAL       ACCESS:   33328477  HIT:   31063018  MISS:    2265459  iACCESS:   33328477  iHIT:   31063018  iMISS:    2265459  dACCESS:          0  dHIT:          0  dMISS:          0  itACCESS:          0  itHIT:          0  itMISS:          0  dtACCESS:          0  dtHIT:          0  dtMISS:          0
cpu0_ITLB LOAD         ACCESS:   33328477  HIT:   31063018  MISS:    2265459  iACCESS:   33328477  iHIT:   31063018  iMISS:    2265459  dACCESS:          0  dHIT:          0  dMISS:          0  itACCESS:          0  itHIT:          0  itMISS:          0  dtACCESS:          0  dtHIT:          0  dtMISS:          0
cpu0_ITLB RFO          ACCESS:          0  HIT:          0  MISS:          0  iACCESS:          0  iHIT:          0  iMISS:          0  dACCESS:          0  dHIT:          0  dMISS:          0  itACCESS:          0  itHIT:          0  itMISS:          0  dtACCESS:          0  dtHIT:          0  dtMISS:          0
cpu0_ITLB PREFETCH     ACCESS:          0  HIT:          0  MISS:          0  iACCESS:          0  iHIT:          0  iMISS:          0  dACCESS:          0  dHIT:          0  dMISS:          0  itACCESS:          0  itHIT:          0  itMISS:          0  dtACCESS:          0  dtHIT:          0  dtMISS:          0
cpu0_ITLB WRITE        ACCESS:          0  HIT:          0  MISS:          0  iACCESS:          0  iHIT:          0  iMISS:          0  dACCESS:          0  dHIT:          0  dMISS:          0  itACCESS:          0  itHIT:          0  itMISS:          0  dtACCESS:          0  dtHIT:          0  dtMISS:          0
cpu0_ITLB TRANSLATION  ACCESS:          0  HIT:          0  MISS:          0  iACCESS:          0  iHIT:          0  iMISS:          0  dACCESS:          0  dHIT:          0  dMISS:          0  itACCESS:          0  itHIT:          0  itMISS:          0  dtACCESS:          0  dtHIT:          0  dtMISS:          0
cpu0_ITLB PREFETCH  REQUESTED:          0  ISSUED:          0  CROSSED:          0  USEFUL:     400651  USELESS:      82122
cpu0_ITLB AVERAGE iMISS LATENCY: 8.26797 cycles
cpu0_ITLB AVERAGE dMISS LATENCY: 0 cycles
cpu0_ITLB AVERAGE itMISS LATENCY: 0 cycles
cpu0_ITLB AVERAGE dtMISS LATENCY: 0 cycles
cpu0_ITLB PAGE CROSSINGS (TLB HIT):         0 
cpu0_ITLB PAGE CROSSINGS (TLB MISS):         0 
cpu0_ITLB AVERAGE MISS LATENCY: 8.26797 cycles
cpu0_DTLB TOTAL       ACCESS:   29241712  HIT:   25750124  MISS:    3491588  iACCESS:          0  iHIT:          0  iMISS:          0  dACCESS:   29241712  dHIT:   25750124  dMISS:    3491588  itACCESS:          0  itHIT:          0  itMISS:          0  dtACCESS:          0  dtHIT:          0  dtMISS:          0
cpu0_DTLB LOAD         ACCESS:   29241712  HIT:   25750124  MISS:    3491588  iACCESS:          0  iHIT:          0  iMISS:          0  dACCESS:   29241712  dHIT:   25750124  dMISS:    3491588  itACCESS:          0  itHIT:          0  itMISS:          0  dtACCESS:          0  dtHIT:          0  dtMISS:          0
cpu0_DTLB RFO          ACCESS:          0  HIT:          0  MISS:          0  iACCESS:          0  iHIT:          0  iMISS:          0  dACCESS:          0  dHIT:          0  dMISS:          0  itACCESS:          0  itHIT:          0  itMISS:          0  dtACCESS:          0  dtHIT:          0  dtMISS:          0
cpu0_DTLB PREFETCH     ACCESS:          0  HIT:          0  MISS:          0  iACCESS:          0  iHIT:          0  iMISS:          0  dACCESS:          0  dHIT:          0  dMISS:          0  itACCESS:          0  itHIT:          0  itMISS:          0  dtACCESS:          0  dtHIT:          0  dtMISS:          0
cpu0_DTLB WRITE        ACCESS:          0  HIT:          0  MISS:          0  iACCESS:          0  iHIT:          0  iMISS:          0  dACCESS:          0  dHIT:          0  dMISS:          0  itACCESS:          0  itHIT:          0  itMISS:          0  dtACCESS:          0  dtHIT:          0  dtMISS:          0
cpu0_DTLB TRANSLATION  ACCESS:          0  HIT:          0  MISS:          0  iACCESS:          0  iHIT:          0  iMISS:          0  dACCESS:          0  dHIT:          0  dMISS:          0  itACCESS:          0  itHIT:          0  itMISS:          0  dtACCESS:          0  dtHIT:          0  dtMISS:          0
cpu0_DTLB PREFETCH  REQUESTED:          0  ISSUED:          0  CROSSED:          0  USEFUL:          0  USELESS:          0
cpu0_DTLB AVERAGE iMISS LATENCY: 0 cycles
cpu0_DTLB AVERAGE dMISS LATENCY: 18.5146 cycles
cpu0_DTLB AVERAGE itMISS LATENCY: 0 cycles
cpu0_DTLB AVERAGE dtMISS LATENCY: 0 cycles
cpu0_DTLB PAGE CROSSINGS (TLB HIT):         0 
cpu0_DTLB PAGE CROSSINGS (TLB MISS):         0 
cpu0_DTLB AVERAGE MISS LATENCY: 18.5146 cycles
cpu0_STLB TOTAL       ACCESS:    2556814  HIT:    2167115  MISS:     389699  iACCESS:     482778  iHIT:     363937  iMISS:     118841  dACCESS:    2074036  dHIT:    1803178  dMISS:     270858  itACCESS:          0  itHIT:          0  itMISS:          0  dtACCESS:          0  dtHIT:          0  dtMISS:          0
cpu0_STLB LOAD         ACCESS:    2556814  HIT:    2167115  MISS:     389699  iACCESS:     482778  iHIT:     363937  iMISS:     118841  dACCESS:    2074036  dHIT:    1803178  dMISS:     270858  itACCESS:          0  itHIT:          0  itMISS:          0  dtACCESS:          0  dtHIT:          0  dtMISS:          0
cpu0_STLB RFO          ACCESS:          0  HIT:          0  MISS:          0  iACCESS:          0  iHIT:          0  iMISS:          0  dACCESS:          0  dHIT:          0  dMISS:          0  itACCESS:          0  itHIT:          0  itMISS:          0  dtACCESS:          0  dtHIT:          0  dtMISS:          0
cpu0_STLB PREFETCH     ACCESS:          0  HIT:          0  MISS:          0  iACCESS:          0  iHIT:          0  iMISS:          0  dACCESS:          0  dHIT:          0  dMISS:          0  itACCESS:          0  itHIT:          0  itMISS:          0  dtACCESS:          0  dtHIT:          0  dtMISS:          0
cpu0_STLB WRITE        ACCESS:          0  HIT:          0  MISS:          0  iACCESS:          0  iHIT:          0  iMISS:          0  dACCESS:          0  dHIT:          0  dMISS:          0  itACCESS:          0  itHIT:          0  itMISS:          0  dtACCESS:          0  dtHIT:          0  dtMISS:          0
cpu0_STLB TRANSLATION  ACCESS:          0  HIT:          0  MISS:          0  iACCESS:          0  iHIT:          0  iMISS:          0  dACCESS:          0  dHIT:          0  dMISS:          0  itACCESS:          0  itHIT:          0  itMISS:          0  dtACCESS:          0  dtHIT:          0  dtMISS:          0
cpu0_STLB PREFETCH  REQUESTED:          0  ISSUED:          0  CROSSED:          0  USEFUL:          0  USELESS:          0
cpu0_STLB AVERAGE iMISS LATENCY: 38.1633 cycles
cpu0_STLB AVERAGE dMISS LATENCY: 123.094 cycles
cpu0_STLB AVERAGE itMISS LATENCY: 0 cycles
cpu0_STLB AVERAGE dtMISS LATENCY: 0 cycles
cpu0_STLB PAGE CROSSINGS (TLB HIT):         0 
cpu0_STLB PAGE CROSSINGS (TLB MISS):         0 
cpu0_STLB AVERAGE MISS LATENCY: 161.257 cycles
cpu0_L1D TOTAL       ACCESS:   45869653  HIT:   39701108  MISS:    6168545  iACCESS:          0  iHIT:          0  iMISS:          0  dACCESS:   45304315  dHIT:   39668149  dMISS:    5636166  itACCESS:     133222  itHIT:      13881  itMISS:     119341  dtACCESS:     432116  dtHIT:      19078  dtMISS:     413038
cpu0_L1D LOAD         ACCESS:   20748482  HIT:   18202624  MISS:    2545858  iACCESS:          0  iHIT:          0  iMISS:          0  dACCESS:   20748482  dHIT:   18202624  dMISS:    2545858  itACCESS:          0  itHIT:          0  itMISS:          0  dtACCESS:          0  dtHIT:          0  dtMISS:          0
cpu0_L1D RFO          ACCESS:          0  HIT:          0  MISS:          0  iACCESS:          0  iHIT:          0  iMISS:          0  dACCESS:          0  dHIT:          0  dMISS:          0  itACCESS:          0  itHIT:          0  itMISS:          0  dtACCESS:          0  dtHIT:          0  dtMISS:          0
cpu0_L1D PREFETCH     ACCESS:   14415647  HIT:   11935218  MISS:    2480429  iACCESS:          0  iHIT:          0  iMISS:          0  dACCESS:   14415647  dHIT:   11935218  dMISS:    2480429  itACCESS:          0  itHIT:          0  itMISS:          0  dtACCESS:          0  dtHIT:          0  dtMISS:          0
cpu0_L1D WRITE        ACCESS:   10140186  HIT:    9530307  MISS:     609879  iACCESS:          0  iHIT:          0  iMISS:          0  dACCESS:   10140186  dHIT:    9530307  dMISS:     609879  itACCESS:          0  itHIT:          0  itMISS:          0  dtACCESS:          0  dtHIT:          0  dtMISS:          0
cpu0_L1D TRANSLATION  ACCESS:     565338  HIT:      32959  MISS:     532379  iACCESS:          0  iHIT:          0  iMISS:          0  dACCESS:          0  dHIT:          0  dMISS:          0  itACCESS:     133222  itHIT:      13881  itMISS:     119341  dtACCESS:     432116  dtHIT:      19078  dtMISS:     413038
cpu0_L1D PREFETCH  REQUESTED:   20748482  ISSUED:   18898295  CROSSED:          0  USEFUL:     378221  USELESS:     958324
cpu0_L1D AVERAGE iMISS LATENCY: 0 cycles
cpu0_L1D AVERAGE dMISS LATENCY: 49.6669 cycles
cpu0_L1D AVERAGE itMISS LATENCY: 2.23091 cycles
cpu0_L1D AVERAGE dtMISS LATENCY: 7.03489 cycles
cpu0_L1D PAGE CROSSINGS (TLB HIT):         0 
cpu0_L1D PAGE CROSSINGS (TLB MISS):         0 
cpu0_L1D AVERAGE MISS LATENCY: 58.9327 cycles
cpu0_L2C TOTAL       ACCESS:    8782870  HIT:    1497308  MISS:    7285562  iACCESS:    3828361  iHIT:     763883  iMISS:    3064478  dACCESS:    4452833  dHIT:     545648  dMISS:    3907185  itACCESS:     118594  itHIT:      38819  itMISS:      79775  dtACCESS:     383082  dtHIT:     148958  dtMISS:     234124
cpu0_L2C LOAD         ACCESS:    2105516  HIT:     199035  MISS:    1906481  iACCESS:     852186  iHIT:     104353  iMISS:     747833  dACCESS:    1253330  dHIT:      94682  dMISS:    1158648  itACCESS:          0  itHIT:          0  itMISS:          0  dtACCESS:          0  dtHIT:          0  dtMISS:          0
cpu0_L2C RFO          ACCESS:     225498  HIT:      29546  MISS:     195952  iACCESS:          0  iHIT:          0  iMISS:          0  dACCESS:     225498  dHIT:      29546  dMISS:     195952  itACCESS:          0  itHIT:          0  itMISS:          0  dtACCESS:          0  dtHIT:          0  dtMISS:          0
cpu0_L2C PREFETCH     ACCESS:    5600679  HIT:     977658  MISS:    4623021  iACCESS:    2976175  iHIT:     659530  iMISS:    2316645  dACCESS:    2624504  dHIT:     318128  dMISS:    2306376  itACCESS:          0  itHIT:          0  itMISS:          0  dtACCESS:          0  dtHIT:          0  dtMISS:          0
cpu0_L2C WRITE        ACCESS:     349501  HIT:     103292  MISS:     246209  iACCESS:          0  iHIT:          0  iMISS:          0  dACCESS:     349501  dHIT:     103292  dMISS:     246209  itACCESS:          0  itHIT:          0  itMISS:          0  dtACCESS:          0  dtHIT:          0  dtMISS:          0
cpu0_L2C TRANSLATION  ACCESS:     501676  HIT:     187777  MISS:     313899  iACCESS:          0  iHIT:          0  iMISS:          0  dACCESS:          0  dHIT:          0  dMISS:          0  itACCESS:     118594  itHIT:      38819  itMISS:      79775  dtACCESS:     383082  dtHIT:     148958  dtMISS:     234124
cpu0_L2C PREFETCH  REQUESTED:    1525657  ISSUED:    1525657  CROSSED:          0  USEFUL:     401840  USELESS:     501203
cpu0_L2C AVERAGE iMISS LATENCY: 27.0574 cycles
cpu0_L2C AVERAGE dMISS LATENCY: 51.3765 cycles
cpu0_L2C AVERAGE itMISS LATENCY: 1.73096 cycles
cpu0_L2C AVERAGE dtMISS LATENCY: 5.44862 cycles
cpu0_L2C PAGE CROSSINGS (TLB HIT):         0 
cpu0_L2C PAGE CROSSINGS (TLB MISS):         0 
cpu0_L2C AVERAGE MISS LATENCY: 85.6134 cycles
LLC TOTAL       ACCESS:    7103419  HIT:    4252552  MISS:    2850867  iACCESS:    2976616  iHIT:    2094541  iMISS:     882075  dACCESS:    3812904  dHIT:    2089218  dMISS:    1723686  itACCESS:      79775  itHIT:      18057  itMISS:      61718  dtACCESS:     234124  dtHIT:      50736  dtMISS:     183388
LLC LOAD         ACCESS:    1897858  HIT:    1200499  MISS:     697359  iACCESS:     746524  iHIT:     560729  iMISS:     185795  dACCESS:    1151334  dHIT:     639770  dMISS:     511564  itACCESS:          0  itHIT:          0  itMISS:          0  dtACCESS:          0  dtHIT:          0  dtMISS:          0
LLC RFO          ACCESS:     195935  HIT:      99708  MISS:      96227  iACCESS:          0  iHIT:          0  iMISS:          0  dACCESS:     195935  dHIT:      99708  dMISS:      96227  itACCESS:          0  itHIT:          0  itMISS:          0  dtACCESS:          0  dtHIT:          0  dtMISS:          0
LLC PREFETCH     ACCESS:    4414429  HIT:    2608951  MISS:    1805478  iACCESS:    2230092  iHIT:    1533812  iMISS:     696280  dACCESS:    2184337  dHIT:    1075139  dMISS:    1109198  itACCESS:          0  itHIT:          0  itMISS:          0  dtACCESS:          0  dtHIT:          0  dtMISS:          0
LLC WRITE        ACCESS:     281298  HIT:     274601  MISS:       6697  iACCESS:          0  iHIT:          0  iMISS:          0  dACCESS:     281298  dHIT:     274601  dMISS:       6697  itACCESS:          0  itHIT:          0  itMISS:          0  dtACCESS:          0  dtHIT:          0  dtMISS:          0
LLC TRANSLATION  ACCESS:     313899  HIT:      68793  MISS:     245106  iACCESS:          0  iHIT:          0  iMISS:          0  dACCESS:          0  dHIT:          0  dMISS:          0  itACCESS:      79775  itHIT:      18057  itMISS:      61718  dtACCESS:     234124  dtHIT:      50736  dtMISS:     183388
LLC PREFETCH  REQUESTED:          0  ISSUED:          0  CROSSED:          0  USEFUL:          0  USELESS:          0
LLC AVERAGE iMISS LATENCY: 48.8676 cycles
LLC AVERAGE dMISS LATENCY: 108.24 cycles
LLC AVERAGE itMISS LATENCY: 3.87215 cycles
LLC AVERAGE dtMISS LATENCY: 12.3063 cycles
LLC PAGE CROSSINGS (TLB HIT):         0 
LLC PAGE CROSSINGS (TLB MISS):         0 
LLC AVERAGE MISS LATENCY: 173.286 cycles

PageTableWalker TOTAL       ACCESS:     143538  
PageTableWalker AVERAGE LATENCY: 5.96272 cycles
PageTableWalker TOTAL LATENCY: 855876 cycles

DRAM Statistics
Channel 0
 RQ ROW_BUFFER_HIT:     619820
  ROW_BUFFER_MISS:    2203355
 AVG DBUS CONGESTED CYCLE:    3.65488
 WQ ROW_BUFFER_HIT:      69981
  ROW_BUFFER_MISS:      65331  FULL:          0

