last_page:0x200000000000000
VMEM_RES_CAP:0x100000
PAGE_SIZE:4096
LOG2_PAGE_SIZE:12
LOG2_PAGE_TABLE_SIZE:9
page_table_levels:5
WARNING: physical memory size is smaller than virtual memory size
FDiP enabled with aggresivity 16

*** ChampSim Multicore Out-of-Order Simulator ***

Warmup Instructions: 50000000
Simulation Instructions: 100000000
Number of CPUs: 1
Small page size: 4096
Large page size: 2097152

CPU 0 Bimodal branch predictor
Basic BTB sets: 1024 ways: 8 indirect buffer size: 4096 RAS size: 64
Instruction page size distrubution: 0
Loading instruction page size distribution from /home/bsc/bsc018186/scratch/itp_asplos25_AE/dump/smt_srv207_ap_srv551_ap_1024i.pdst
Data page size distrubution: 0
Loading data page size distribution from /home/bsc/bsc018186/scratch/itp_asplos25_AE/dump/smt_srv207_ap_srv551_ap_1024i.pdst
cpu0_L2C IP-based stride prefetcher
cpu0_L2C is using PTP replacement policy:
	TLB_STRESS_THRESHOLD:0
	PTE_EVICTION_RATIO:0
cpu0_L1D next line prefetcher
CHiRPing...
cpu0_L1I next line prefetcher
Off-chip DRAM Size: 4 GiB Channels: 1 Width: 64-bit Data Rate: 3200 MT/s
Heartbeat CPU 0 instructions: 10000002 cycles: 2500686 heartbeat IPC: 3.99891 cumulative IPC: 3.99891 (Simulation time: 0 hr 0 min 38 sec) 
Heartbeat CPU 0 instructions: 20000002 cycles: 5001463 heartbeat IPC: 3.99876 cumulative IPC: 3.99884 (Simulation time: 0 hr 1 min 18 sec) 
Heartbeat CPU 0 instructions: 30000002 cycles: 7501834 heartbeat IPC: 3.99941 cumulative IPC: 3.99903 (Simulation time: 0 hr 1 min 58 sec) 
Heartbeat CPU 0 instructions: 40000001 cycles: 10002096 heartbeat IPC: 3.99959 cumulative IPC: 3.99917 (Simulation time: 0 hr 2 min 39 sec) 
Heartbeat CPU 0 instructions: 50000002 cycles: 12502577 heartbeat IPC: 3.99924 cumulative IPC: 3.99918 (Simulation time: 0 hr 3 min 20 sec) 
Warmup finished CPU 0 instructions: 50000002 cycles: 12502578 cumulative IPC: 3.99918 (Simulation time: 0 hr 3 min 20 sec) 

Warmup complete CPU 0 instructions: 50000002 cycles: 12502578 (Simulation time: 0 hr 3 min 20 sec) 

Heartbeat CPU 0 instructions: 60000000 cycles: 43487472 heartbeat IPC: 0.322738 cumulative IPC: 0.322738 (Simulation time: 0 hr 4 min 46 sec) 
Heartbeat CPU 0 instructions: 70000000 cycles: 75976377 heartbeat IPC: 0.307798 cumulative IPC: 0.315091 (Simulation time: 0 hr 6 min 14 sec) 
Heartbeat CPU 0 instructions: 80000001 cycles: 107579036 heartbeat IPC: 0.31643 cumulative IPC: 0.315536 (Simulation time: 0 hr 7 min 41 sec) 
Heartbeat CPU 0 instructions: 90000000 cycles: 139186316 heartbeat IPC: 0.316383 cumulative IPC: 0.315747 (Simulation time: 0 hr 9 min 8 sec) 
Heartbeat CPU 0 instructions: 100000000 cycles: 170311939 heartbeat IPC: 0.321279 cumulative IPC: 0.316838 (Simulation time: 0 hr 10 min 35 sec) 
Heartbeat CPU 0 instructions: 110000000 cycles: 200119808 heartbeat IPC: 0.335482 cumulative IPC: 0.319801 (Simulation time: 0 hr 12 min 0 sec) 
Heartbeat CPU 0 instructions: 120000002 cycles: 225900265 heartbeat IPC: 0.387891 cumulative IPC: 0.328027 (Simulation time: 0 hr 13 min 21 sec) 
Heartbeat CPU 0 instructions: 130000000 cycles: 242751375 heartbeat IPC: 0.593433 cumulative IPC: 0.347451 (Simulation time: 0 hr 14 min 30 sec) 
Heartbeat CPU 0 instructions: 140000002 cycles: 262160070 heartbeat IPC: 0.515234 cumulative IPC: 0.360494 (Simulation time: 0 hr 15 min 41 sec) 
Heartbeat CPU 0 instructions: 150000000 cycles: 294142499 heartbeat IPC: 0.312672 cumulative IPC: 0.355064 (Simulation time: 0 hr 17 min 6 sec) 
Simulation finished CPU 0 instructions: 100000003 cycles: 281639923 cumulative IPC: 0.355064 (Simulation time: 0 hr 17 min 6 sec) 

Simulation complete CPU 0 instructions: 100000003 cycles: 281639923 (Simulation time: 0 hr 17 min 6 sec) 


ChampSim completed all CPUs

Saving instructions large page distribution to /home/bsc/bsc018186/scratch/itp_asplos25_AE/dump/smt_srv207_ap_srv551_ap_1024i.pdst...
Saving data large page distribution to /home/bsc/bsc018186/scratch/itp_asplos25_AE/dump/smt_srv207_ap_srv551_ap_1024i.pdst...
=== Simulation ===
CPU 0 runs /gpfs/projects/bsc18/MN4/bsc18/romol/ChampSim/traces/qualcomm_srv/smt_srv207_ap_srv551_ap_1024i.champsimtrace.xz

Region of Interest Statistics

CPU 0 cumulative IPC: 0.355064 instructions: 100000003 cycles: 281639923
CPU 0 Branch Prediction Accuracy: 77.4636% MPKI: 43.4302 Average ROB Occupancy at Mispredict: 11.278
Branch type MPKI
BRANCH_DIRECT_JUMP: 1.27778
BRANCH_INDIRECT: 23.718
BRANCH_CONDITIONAL: 11.5725
BRANCH_DIRECT_CALL: 2.41064
BRANCH_INDIRECT_CALL: 1.08263
BRANCH_RETURN: 3.36873

Instructions large pages: 0
Instructions small pages: 11910
Large page distribution for instructions: 0%

Data large pages: 0
Data small pages: 10385
Large page distribution for data: 0%

cpu0_L1I TOTAL       ACCESS:   39649149  HIT:   31897858  MISS:    7751291  iACCESS:   39649149  iHIT:   31897858  iMISS:    7751291  dACCESS:          0  dHIT:          0  dMISS:          0  itACCESS:          0  itHIT:          0  itMISS:          0  dtACCESS:          0  dtHIT:          0  dtMISS:          0
cpu0_L1I LOAD         ACCESS:   11213846  HIT:    9098511  MISS:    2115335  iACCESS:   11213846  iHIT:    9098511  iMISS:    2115335  dACCESS:          0  dHIT:          0  dMISS:          0  itACCESS:          0  itHIT:          0  itMISS:          0  dtACCESS:          0  dtHIT:          0  dtMISS:          0
cpu0_L1I RFO          ACCESS:          0  HIT:          0  MISS:          0  iACCESS:          0  iHIT:          0  iMISS:          0  dACCESS:          0  dHIT:          0  dMISS:          0  itACCESS:          0  itHIT:          0  itMISS:          0  dtACCESS:          0  dtHIT:          0  dtMISS:          0
cpu0_L1I PREFETCH     ACCESS:   28435303  HIT:   22799347  MISS:    5635956  iACCESS:   28435303  iHIT:   22799347  iMISS:    5635956  dACCESS:          0  dHIT:          0  dMISS:          0  itACCESS:          0  itHIT:          0  itMISS:          0  dtACCESS:          0  dtHIT:          0  dtMISS:          0
cpu0_L1I WRITE        ACCESS:          0  HIT:          0  MISS:          0  iACCESS:          0  iHIT:          0  iMISS:          0  dACCESS:          0  dHIT:          0  dMISS:          0  itACCESS:          0  itHIT:          0  itMISS:          0  dtACCESS:          0  dtHIT:          0  dtMISS:          0
cpu0_L1I TRANSLATION  ACCESS:          0  HIT:          0  MISS:          0  iACCESS:          0  iHIT:          0  iMISS:          0  dACCESS:          0  dHIT:          0  dMISS:          0  itACCESS:          0  itHIT:          0  itMISS:          0  dtACCESS:          0  dtHIT:          0  dtMISS:          0
cpu0_L1I PREFETCH  REQUESTED:   31046528  ISSUED:   31046513  CROSSED:          0  USEFUL:    1963696  USELESS:     709723
cpu0_L1I AVERAGE iMISS LATENCY: 24.7335 cycles
cpu0_L1I AVERAGE dMISS LATENCY: 0 cycles
cpu0_L1I AVERAGE itMISS LATENCY: 0 cycles
cpu0_L1I AVERAGE dtMISS LATENCY: 0 cycles
cpu0_L1I PAGE CROSSINGS (TLB HIT):         0 
cpu0_L1I PAGE CROSSINGS (TLB MISS):         0 
cpu0_L1I AVERAGE MISS LATENCY: 24.7335 cycles
cpu0_ITLB TOTAL       ACCESS:   33449605  HIT:   31431495  MISS:    2018110  iACCESS:   33449605  iHIT:   31431495  iMISS:    2018110  dACCESS:          0  dHIT:          0  dMISS:          0  itACCESS:          0  itHIT:          0  itMISS:          0  dtACCESS:          0  dtHIT:          0  dtMISS:          0
cpu0_ITLB LOAD         ACCESS:   33449605  HIT:   31431495  MISS:    2018110  iACCESS:   33449605  iHIT:   31431495  iMISS:    2018110  dACCESS:          0  dHIT:          0  dMISS:          0  itACCESS:          0  itHIT:          0  itMISS:          0  dtACCESS:          0  dtHIT:          0  dtMISS:          0
cpu0_ITLB RFO          ACCESS:          0  HIT:          0  MISS:          0  iACCESS:          0  iHIT:          0  iMISS:          0  dACCESS:          0  dHIT:          0  dMISS:          0  itACCESS:          0  itHIT:          0  itMISS:          0  dtACCESS:          0  dtHIT:          0  dtMISS:          0
cpu0_ITLB PREFETCH     ACCESS:          0  HIT:          0  MISS:          0  iACCESS:          0  iHIT:          0  iMISS:          0  dACCESS:          0  dHIT:          0  dMISS:          0  itACCESS:          0  itHIT:          0  itMISS:          0  dtACCESS:          0  dtHIT:          0  dtMISS:          0
cpu0_ITLB WRITE        ACCESS:          0  HIT:          0  MISS:          0  iACCESS:          0  iHIT:          0  iMISS:          0  dACCESS:          0  dHIT:          0  dMISS:          0  itACCESS:          0  itHIT:          0  itMISS:          0  dtACCESS:          0  dtHIT:          0  dtMISS:          0
cpu0_ITLB TRANSLATION  ACCESS:          0  HIT:          0  MISS:          0  iACCESS:          0  iHIT:          0  iMISS:          0  dACCESS:          0  dHIT:          0  dMISS:          0  itACCESS:          0  itHIT:          0  itMISS:          0  dtACCESS:          0  dtHIT:          0  dtMISS:          0
cpu0_ITLB PREFETCH  REQUESTED:          0  ISSUED:          0  CROSSED:          0  USEFUL:     355709  USELESS:      74244
cpu0_ITLB AVERAGE iMISS LATENCY: 10.5647 cycles
cpu0_ITLB AVERAGE dMISS LATENCY: 0 cycles
cpu0_ITLB AVERAGE itMISS LATENCY: 0 cycles
cpu0_ITLB AVERAGE dtMISS LATENCY: 0 cycles
cpu0_ITLB PAGE CROSSINGS (TLB HIT):         0 
cpu0_ITLB PAGE CROSSINGS (TLB MISS):         0 
cpu0_ITLB AVERAGE MISS LATENCY: 10.5647 cycles
cpu0_DTLB TOTAL       ACCESS:   31108517  HIT:   25039047  MISS:    6069470  iACCESS:          0  iHIT:          0  iMISS:          0  dACCESS:   31108517  dHIT:   25039047  dMISS:    6069470  itACCESS:          0  itHIT:          0  itMISS:          0  dtACCESS:          0  dtHIT:          0  dtMISS:          0
cpu0_DTLB LOAD         ACCESS:   31108517  HIT:   25039047  MISS:    6069470  iACCESS:          0  iHIT:          0  iMISS:          0  dACCESS:   31108517  dHIT:   25039047  dMISS:    6069470  itACCESS:          0  itHIT:          0  itMISS:          0  dtACCESS:          0  dtHIT:          0  dtMISS:          0
cpu0_DTLB RFO          ACCESS:          0  HIT:          0  MISS:          0  iACCESS:          0  iHIT:          0  iMISS:          0  dACCESS:          0  dHIT:          0  dMISS:          0  itACCESS:          0  itHIT:          0  itMISS:          0  dtACCESS:          0  dtHIT:          0  dtMISS:          0
cpu0_DTLB PREFETCH     ACCESS:          0  HIT:          0  MISS:          0  iACCESS:          0  iHIT:          0  iMISS:          0  dACCESS:          0  dHIT:          0  dMISS:          0  itACCESS:          0  itHIT:          0  itMISS:          0  dtACCESS:          0  dtHIT:          0  dtMISS:          0
cpu0_DTLB WRITE        ACCESS:          0  HIT:          0  MISS:          0  iACCESS:          0  iHIT:          0  iMISS:          0  dACCESS:          0  dHIT:          0  dMISS:          0  itACCESS:          0  itHIT:          0  itMISS:          0  dtACCESS:          0  dtHIT:          0  dtMISS:          0
cpu0_DTLB TRANSLATION  ACCESS:          0  HIT:          0  MISS:          0  iACCESS:          0  iHIT:          0  iMISS:          0  dACCESS:          0  dHIT:          0  dMISS:          0  itACCESS:          0  itHIT:          0  itMISS:          0  dtACCESS:          0  dtHIT:          0  dtMISS:          0
cpu0_DTLB PREFETCH  REQUESTED:          0  ISSUED:          0  CROSSED:          0  USEFUL:          0  USELESS:          0
cpu0_DTLB AVERAGE iMISS LATENCY: 0 cycles
cpu0_DTLB AVERAGE dMISS LATENCY: 14.7528 cycles
cpu0_DTLB AVERAGE itMISS LATENCY: 0 cycles
cpu0_DTLB AVERAGE dtMISS LATENCY: 0 cycles
cpu0_DTLB PAGE CROSSINGS (TLB HIT):         0 
cpu0_DTLB PAGE CROSSINGS (TLB MISS):         0 
cpu0_DTLB AVERAGE MISS LATENCY: 14.7528 cycles
cpu0_STLB TOTAL       ACCESS:    3659651  HIT:    3321526  MISS:     338125  iACCESS:     429958  iHIT:     324392  iMISS:     105566  dACCESS:    3229693  dHIT:    2997134  dMISS:     232559  itACCESS:          0  itHIT:          0  itMISS:          0  dtACCESS:          0  dtHIT:          0  dtMISS:          0
cpu0_STLB LOAD         ACCESS:    3659651  HIT:    3321526  MISS:     338125  iACCESS:     429958  iHIT:     324392  iMISS:     105566  dACCESS:    3229693  dHIT:    2997134  dMISS:     232559  itACCESS:          0  itHIT:          0  itMISS:          0  dtACCESS:          0  dtHIT:          0  dtMISS:          0
cpu0_STLB RFO          ACCESS:          0  HIT:          0  MISS:          0  iACCESS:          0  iHIT:          0  iMISS:          0  dACCESS:          0  dHIT:          0  dMISS:          0  itACCESS:          0  itHIT:          0  itMISS:          0  dtACCESS:          0  dtHIT:          0  dtMISS:          0
cpu0_STLB PREFETCH     ACCESS:          0  HIT:          0  MISS:          0  iACCESS:          0  iHIT:          0  iMISS:          0  dACCESS:          0  dHIT:          0  dMISS:          0  itACCESS:          0  itHIT:          0  itMISS:          0  dtACCESS:          0  dtHIT:          0  dtMISS:          0
cpu0_STLB WRITE        ACCESS:          0  HIT:          0  MISS:          0  iACCESS:          0  iHIT:          0  iMISS:          0  dACCESS:          0  dHIT:          0  dMISS:          0  itACCESS:          0  itHIT:          0  itMISS:          0  dtACCESS:          0  dtHIT:          0  dtMISS:          0
cpu0_STLB TRANSLATION  ACCESS:          0  HIT:          0  MISS:          0  iACCESS:          0  iHIT:          0  iMISS:          0  dACCESS:          0  dHIT:          0  dMISS:          0  itACCESS:          0  itHIT:          0  itMISS:          0  dtACCESS:          0  dtHIT:          0  dtMISS:          0
cpu0_STLB PREFETCH  REQUESTED:          0  ISSUED:          0  CROSSED:          0  USEFUL:          0  USELESS:          0
cpu0_STLB AVERAGE iMISS LATENCY: 52.8789 cycles
cpu0_STLB AVERAGE dMISS LATENCY: 187.504 cycles
cpu0_STLB AVERAGE itMISS LATENCY: 0 cycles
cpu0_STLB AVERAGE dtMISS LATENCY: 0 cycles
cpu0_STLB PAGE CROSSINGS (TLB HIT):         0 
cpu0_STLB PAGE CROSSINGS (TLB MISS):         0 
cpu0_STLB AVERAGE MISS LATENCY: 240.383 cycles
cpu0_L1D TOTAL       ACCESS:   48555805  HIT:   40089939  MISS:    8465866  iACCESS:          0  iHIT:          0  iMISS:          0  dACCESS:   48069857  dHIT:   40062271  dMISS:    8007586  itACCESS:     117876  itHIT:      12140  itMISS:     105736  dtACCESS:     368072  dtHIT:      15528  dtMISS:     352544
cpu0_L1D LOAD         ACCESS:   23144630  HIT:   18657082  MISS:    4487548  iACCESS:          0  iHIT:          0  iMISS:          0  dACCESS:   23144630  dHIT:   18657082  dMISS:    4487548  itACCESS:          0  itHIT:          0  itMISS:          0  dtACCESS:          0  dtHIT:          0  dtMISS:          0
cpu0_L1D RFO          ACCESS:          0  HIT:          0  MISS:          0  iACCESS:          0  iHIT:          0  iMISS:          0  dACCESS:          0  dHIT:          0  dMISS:          0  itACCESS:          0  itHIT:          0  itMISS:          0  dtACCESS:          0  dtHIT:          0  dtMISS:          0
cpu0_L1D PREFETCH     ACCESS:   15177187  HIT:   12242265  MISS:    2934922  iACCESS:          0  iHIT:          0  iMISS:          0  dACCESS:   15177187  dHIT:   12242265  dMISS:    2934922  itACCESS:          0  itHIT:          0  itMISS:          0  dtACCESS:          0  dtHIT:          0  dtMISS:          0
cpu0_L1D WRITE        ACCESS:    9748040  HIT:    9162924  MISS:     585116  iACCESS:          0  iHIT:          0  iMISS:          0  dACCESS:    9748040  dHIT:    9162924  dMISS:     585116  itACCESS:          0  itHIT:          0  itMISS:          0  dtACCESS:          0  dtHIT:          0  dtMISS:          0
cpu0_L1D TRANSLATION  ACCESS:     485948  HIT:      27668  MISS:     458280  iACCESS:          0  iHIT:          0  iMISS:          0  dACCESS:          0  dHIT:          0  dMISS:          0  itACCESS:     117876  itHIT:      12140  itMISS:     105736  dtACCESS:     368072  dtHIT:      15528  dtMISS:     352544
cpu0_L1D PREFETCH  REQUESTED:   23144630  ISSUED:   19290788  CROSSED:          0  USEFUL:     346255  USELESS:    1178995
cpu0_L1D AVERAGE iMISS LATENCY: 0 cycles
cpu0_L1D AVERAGE dMISS LATENCY: 34.0939 cycles
cpu0_L1D AVERAGE itMISS LATENCY: 1.99458 cycles
cpu0_L1D AVERAGE dtMISS LATENCY: 6.99096 cycles
cpu0_L1D PAGE CROSSINGS (TLB HIT):         0 
cpu0_L1D PAGE CROSSINGS (TLB MISS):         0 
cpu0_L1D AVERAGE MISS LATENCY: 43.0795 cycles
cpu0_L2C TOTAL       ACCESS:   10039427  HIT:    5831210  MISS:    4208217  iACCESS:    3399784  iHIT:    2004346  iMISS:    1395438  dACCESS:    6207030  dHIT:    3770446  dMISS:    2436584  itACCESS:     105602  itHIT:      18879  itMISS:      86723  dtACCESS:     327011  dtHIT:      37539  dtMISS:     289472
cpu0_L2C LOAD         ACCESS:    3704745  HIT:    2638890  MISS:    1065855  iACCESS:     756296  iHIT:     463366  iMISS:     292930  dACCESS:    2948449  dHIT:    2175524  dMISS:     772925  itACCESS:          0  itHIT:          0  itMISS:          0  dtACCESS:          0  dtHIT:          0  dtMISS:          0
cpu0_L2C RFO          ACCESS:     233177  HIT:     112558  MISS:     120619  iACCESS:          0  iHIT:          0  iMISS:          0  dACCESS:     233177  dHIT:     112558  dMISS:     120619  itACCESS:          0  itHIT:          0  itMISS:          0  dtACCESS:          0  dtHIT:          0  dtMISS:          0
cpu0_L2C PREFETCH     ACCESS:    5341886  HIT:    2712354  MISS:    2629532  iACCESS:    2643488  iHIT:    1540980  iMISS:    1102508  dACCESS:    2698398  dHIT:    1171374  dMISS:    1527024  itACCESS:          0  itHIT:          0  itMISS:          0  dtACCESS:          0  dtHIT:          0  dtMISS:          0
cpu0_L2C WRITE        ACCESS:     327006  HIT:     310990  MISS:      16016  iACCESS:          0  iHIT:          0  iMISS:          0  dACCESS:     327006  dHIT:     310990  dMISS:      16016  itACCESS:          0  itHIT:          0  itMISS:          0  dtACCESS:          0  dtHIT:          0  dtMISS:          0
cpu0_L2C TRANSLATION  ACCESS:     432613  HIT:      56418  MISS:     376195  iACCESS:          0  iHIT:          0  iMISS:          0  dACCESS:          0  dHIT:          0  dMISS:          0  itACCESS:     105602  itHIT:      18879  itMISS:      86723  dtACCESS:     327011  dtHIT:      37539  dtMISS:     289472
cpu0_L2C PREFETCH  REQUESTED:    1381637  ISSUED:    1381540  CROSSED:          0  USEFUL:     311787  USELESS:     299120
cpu0_L2C AVERAGE iMISS LATENCY: 38.8407 cycles
cpu0_L2C AVERAGE dMISS LATENCY: 76.3452 cycles
cpu0_L2C AVERAGE itMISS LATENCY: 3.76539 cycles
cpu0_L2C AVERAGE dtMISS LATENCY: 13.2916 cycles
cpu0_L2C PAGE CROSSINGS (TLB HIT):         0 
cpu0_L2C PAGE CROSSINGS (TLB MISS):         0 
cpu0_L2C AVERAGE MISS LATENCY: 132.243 cycles
LLC TOTAL       ACCESS:    4192996  HIT:    1409172  MISS:    2783824  iACCESS:    1319939  iHIT:     447136  iMISS:     872803  dACCESS:    2496862  dHIT:     924659  dMISS:    1572203  itACCESS:      86723  itHIT:       7483  itMISS:      79240  dtACCESS:     289472  dtHIT:      29894  dtMISS:     259578
LLC LOAD         ACCESS:    1058090  HIT:     408480  MISS:     649610  iACCESS:     291827  iHIT:     106304  iMISS:     185523  dACCESS:     766263  dHIT:     302176  dMISS:     464087  itACCESS:          0  itHIT:          0  itMISS:          0  dtACCESS:          0  dtHIT:          0  dtMISS:          0
LLC RFO          ACCESS:     120603  HIT:      37614  MISS:      82989  iACCESS:          0  iHIT:          0  iMISS:          0  dACCESS:     120603  dHIT:      37614  dMISS:      82989  itACCESS:          0  itHIT:          0  itMISS:          0  dtACCESS:          0  dtHIT:          0  dtMISS:          0
LLC PREFETCH     ACCESS:    2450731  HIT:     746983  MISS:    1703748  iACCESS:    1028112  iHIT:     340832  iMISS:     687280  dACCESS:    1422619  dHIT:     406151  dMISS:    1016468  itACCESS:          0  itHIT:          0  itMISS:          0  dtACCESS:          0  dtHIT:          0  dtMISS:          0
LLC WRITE        ACCESS:     187377  HIT:     178718  MISS:       8659  iACCESS:          0  iHIT:          0  iMISS:          0  dACCESS:     187377  dHIT:     178718  dMISS:       8659  itACCESS:          0  itHIT:          0  itMISS:          0  dtACCESS:          0  dtHIT:          0  dtMISS:          0
LLC TRANSLATION  ACCESS:     376195  HIT:      37377  MISS:     338818  iACCESS:          0  iHIT:          0  iMISS:          0  dACCESS:          0  dHIT:          0  dMISS:          0  itACCESS:      86723  itHIT:       7483  itMISS:      79240  dtACCESS:     289472  dtHIT:      29894  dtMISS:     259578
LLC PREFETCH  REQUESTED:          0  ISSUED:          0  CROSSED:          0  USEFUL:          0  USELESS:          0
LLC AVERAGE iMISS LATENCY: 49.3825 cycles
LLC AVERAGE dMISS LATENCY: 100.062 cycles
LLC AVERAGE itMISS LATENCY: 5.07451 cycles
LLC AVERAGE dtMISS LATENCY: 18.0363 cycles
LLC PAGE CROSSINGS (TLB HIT):         0 
LLC PAGE CROSSINGS (TLB MISS):         0 
LLC AVERAGE MISS LATENCY: 172.555 cycles

PageTableWalker TOTAL       ACCESS:     194098  
PageTableWalker AVERAGE LATENCY: 6.37231 cycles
PageTableWalker TOTAL LATENCY: 1236852 cycles

DRAM Statistics
Channel 0
 RQ ROW_BUFFER_HIT:     599542
  ROW_BUFFER_MISS:    2157859
 AVG DBUS CONGESTED CYCLE:    3.64801
 WQ ROW_BUFFER_HIT:      58530
  ROW_BUFFER_MISS:      50247  FULL:          0

