last_page:0x200000000000000
VMEM_RES_CAP:0x100000
PAGE_SIZE:4096
LOG2_PAGE_SIZE:12
LOG2_PAGE_TABLE_SIZE:9
page_table_levels:5
WARNING: physical memory size is smaller than virtual memory size
FDiP enabled with aggresivity 16

*** ChampSim Multicore Out-of-Order Simulator ***

Warmup Instructions: 50000000
Simulation Instructions: 100000000
Number of CPUs: 1
Small page size: 4096
Large page size: 2097152

CPU 0 Bimodal branch predictor
Basic BTB sets: 1024 ways: 8 indirect buffer size: 4096 RAS size: 64
Instruction page size distrubution: 0
Loading instruction page size distribution from /home/bsc/bsc018186/scratch/itp_asplos25_AE/dump/smt_srv85_ap_srv551_ap_1024i.pdst
Data page size distrubution: 0
Loading data page size distribution from /home/bsc/bsc018186/scratch/itp_asplos25_AE/dump/smt_srv85_ap_srv551_ap_1024i.pdst
cpu0_L2C IP-based stride prefetcher
cpu0_L1D next line prefetcher
cpu0_STLB using iTP with max lru@8
cpu0_STLB using iTP with instr@0 and data@2
Init sat counter with 3 bits (max:50).
cpu0_L1I next line prefetcher
Off-chip DRAM Size: 4 GiB Channels: 1 Width: 64-bit Data Rate: 3200 MT/s
Heartbeat CPU 0 instructions: 10000003 cycles: 2500333 heartbeat IPC: 3.99947 cumulative IPC: 3.99947 (Simulation time: 0 hr 0 min 36 sec) 
Heartbeat CPU 0 instructions: 20000000 cycles: 5000401 heartbeat IPC: 3.9999 cumulative IPC: 3.99968 (Simulation time: 0 hr 1 min 14 sec) 
Heartbeat CPU 0 instructions: 30000000 cycles: 7500527 heartbeat IPC: 3.9998 cumulative IPC: 3.99972 (Simulation time: 0 hr 1 min 52 sec) 
Heartbeat CPU 0 instructions: 40000003 cycles: 10000619 heartbeat IPC: 3.99986 cumulative IPC: 3.99976 (Simulation time: 0 hr 2 min 30 sec) 
Heartbeat CPU 0 instructions: 50000002 cycles: 12500811 heartbeat IPC: 3.9997 cumulative IPC: 3.99975 (Simulation time: 0 hr 3 min 8 sec) 
Warmup finished CPU 0 instructions: 50000002 cycles: 12500812 cumulative IPC: 3.99975 (Simulation time: 0 hr 3 min 8 sec) 

Warmup complete CPU 0 instructions: 50000002 cycles: 12500812 (Simulation time: 0 hr 3 min 8 sec) 

Heartbeat CPU 0 instructions: 60000000 cycles: 43088990 heartbeat IPC: 0.326924 cumulative IPC: 0.326924 (Simulation time: 0 hr 4 min 30 sec) 
Heartbeat CPU 0 instructions: 70000000 cycles: 74517285 heartbeat IPC: 0.318185 cumulative IPC: 0.322495 (Simulation time: 0 hr 5 min 52 sec) 
Heartbeat CPU 0 instructions: 80000002 cycles: 104792193 heartbeat IPC: 0.330307 cumulative IPC: 0.325058 (Simulation time: 0 hr 7 min 13 sec) 
Heartbeat CPU 0 instructions: 90000002 cycles: 135569257 heartbeat IPC: 0.324918 cumulative IPC: 0.325023 (Simulation time: 0 hr 8 min 35 sec) 
Heartbeat CPU 0 instructions: 100000000 cycles: 166820391 heartbeat IPC: 0.319989 cumulative IPC: 0.324003 (Simulation time: 0 hr 9 min 58 sec) 
Heartbeat CPU 0 instructions: 110000000 cycles: 196603393 heartbeat IPC: 0.335762 cumulative IPC: 0.325906 (Simulation time: 0 hr 11 min 19 sec) 
Heartbeat CPU 0 instructions: 120000000 cycles: 222405764 heartbeat IPC: 0.387562 cumulative IPC: 0.333485 (Simulation time: 0 hr 12 min 36 sec) 
Heartbeat CPU 0 instructions: 130000001 cycles: 239508763 heartbeat IPC: 0.584693 cumulative IPC: 0.352411 (Simulation time: 0 hr 13 min 42 sec) 
Heartbeat CPU 0 instructions: 140000001 cycles: 257245739 heartbeat IPC: 0.563794 cumulative IPC: 0.36773 (Simulation time: 0 hr 14 min 49 sec) 
Heartbeat CPU 0 instructions: 150000000 cycles: 289700602 heartbeat IPC: 0.308121 cumulative IPC: 0.360751 (Simulation time: 0 hr 16 min 14 sec) 
Simulation finished CPU 0 instructions: 100000003 cycles: 277199792 cumulative IPC: 0.360751 (Simulation time: 0 hr 16 min 14 sec) 

Simulation complete CPU 0 instructions: 100000003 cycles: 277199792 (Simulation time: 0 hr 16 min 14 sec) 


ChampSim completed all CPUs

Saving instructions large page distribution to /home/bsc/bsc018186/scratch/itp_asplos25_AE/dump/smt_srv85_ap_srv551_ap_1024i.pdst...
Saving data large page distribution to /home/bsc/bsc018186/scratch/itp_asplos25_AE/dump/smt_srv85_ap_srv551_ap_1024i.pdst...
=== Simulation ===
CPU 0 runs /gpfs/projects/bsc18/MN4/bsc18/romol/ChampSim/traces/qualcomm_srv/smt_srv85_ap_srv551_ap_1024i.champsimtrace.xz

Region of Interest Statistics

CPU 0 cumulative IPC: 0.360751 instructions: 100000003 cycles: 277199792
CPU 0 Branch Prediction Accuracy: 77.8805% MPKI: 42.6554 Average ROB Occupancy at Mispredict: 11.3896
Branch type MPKI
BRANCH_DIRECT_JUMP: 1.24167
BRANCH_INDIRECT: 23.0029
BRANCH_CONDITIONAL: 11.689
BRANCH_DIRECT_CALL: 2.35968
BRANCH_INDIRECT_CALL: 1.06193
BRANCH_RETURN: 3.30024

Instructions large pages: 0
Instructions small pages: 10447
Large page distribution for instructions: 0%

Data large pages: 0
Data small pages: 8982
Large page distribution for data: 0%

cpu0_L1I TOTAL       ACCESS:   39754581  HIT:   32023336  MISS:    7731245  iACCESS:   39754581  iHIT:   32023336  iMISS:    7731245  dACCESS:          0  dHIT:          0  dMISS:          0  itACCESS:          0  itHIT:          0  itMISS:          0  dtACCESS:          0  dtHIT:          0  dtMISS:          0
cpu0_L1I LOAD         ACCESS:   11355023  HIT:    9250054  MISS:    2104969  iACCESS:   11355023  iHIT:    9250054  iMISS:    2104969  dACCESS:          0  dHIT:          0  dMISS:          0  itACCESS:          0  itHIT:          0  itMISS:          0  dtACCESS:          0  dtHIT:          0  dtMISS:          0
cpu0_L1I RFO          ACCESS:          0  HIT:          0  MISS:          0  iACCESS:          0  iHIT:          0  iMISS:          0  dACCESS:          0  dHIT:          0  dMISS:          0  itACCESS:          0  itHIT:          0  itMISS:          0  dtACCESS:          0  dtHIT:          0  dtMISS:          0
cpu0_L1I PREFETCH     ACCESS:   28399558  HIT:   22773282  MISS:    5626276  iACCESS:   28399558  iHIT:   22773282  iMISS:    5626276  dACCESS:          0  dHIT:          0  dMISS:          0  itACCESS:          0  itHIT:          0  itMISS:          0  dtACCESS:          0  dtHIT:          0  dtMISS:          0
cpu0_L1I WRITE        ACCESS:          0  HIT:          0  MISS:          0  iACCESS:          0  iHIT:          0  iMISS:          0  dACCESS:          0  dHIT:          0  dMISS:          0  itACCESS:          0  itHIT:          0  itMISS:          0  dtACCESS:          0  dtHIT:          0  dtMISS:          0
cpu0_L1I TRANSLATION  ACCESS:          0  HIT:          0  MISS:          0  iACCESS:          0  iHIT:          0  iMISS:          0  dACCESS:          0  dHIT:          0  dMISS:          0  itACCESS:          0  itHIT:          0  itMISS:          0  dtACCESS:          0  dtHIT:          0  dtMISS:          0
cpu0_L1I PREFETCH  REQUESTED:   31084345  ISSUED:   31084174  CROSSED:          0  USEFUL:    1970404  USELESS:     685744
cpu0_L1I AVERAGE iMISS LATENCY: 24.672 cycles
cpu0_L1I AVERAGE dMISS LATENCY: 0 cycles
cpu0_L1I AVERAGE itMISS LATENCY: 0 cycles
cpu0_L1I AVERAGE dtMISS LATENCY: 0 cycles
cpu0_L1I PAGE CROSSINGS (TLB HIT):         0 
cpu0_L1I PAGE CROSSINGS (TLB MISS):         0 
cpu0_L1I AVERAGE MISS LATENCY: 24.672 cycles
cpu0_ITLB TOTAL       ACCESS:   33462888  HIT:   31476063  MISS:    1986825  iACCESS:   33462888  iHIT:   31476063  iMISS:    1986825  dACCESS:          0  dHIT:          0  dMISS:          0  itACCESS:          0  itHIT:          0  itMISS:          0  dtACCESS:          0  dtHIT:          0  dtMISS:          0
cpu0_ITLB LOAD         ACCESS:   33462888  HIT:   31476063  MISS:    1986825  iACCESS:   33462888  iHIT:   31476063  iMISS:    1986825  dACCESS:          0  dHIT:          0  dMISS:          0  itACCESS:          0  itHIT:          0  itMISS:          0  dtACCESS:          0  dtHIT:          0  dtMISS:          0
cpu0_ITLB RFO          ACCESS:          0  HIT:          0  MISS:          0  iACCESS:          0  iHIT:          0  iMISS:          0  dACCESS:          0  dHIT:          0  dMISS:          0  itACCESS:          0  itHIT:          0  itMISS:          0  dtACCESS:          0  dtHIT:          0  dtMISS:          0
cpu0_ITLB PREFETCH     ACCESS:          0  HIT:          0  MISS:          0  iACCESS:          0  iHIT:          0  iMISS:          0  dACCESS:          0  dHIT:          0  dMISS:          0  itACCESS:          0  itHIT:          0  itMISS:          0  dtACCESS:          0  dtHIT:          0  dtMISS:          0
cpu0_ITLB WRITE        ACCESS:          0  HIT:          0  MISS:          0  iACCESS:          0  iHIT:          0  iMISS:          0  dACCESS:          0  dHIT:          0  dMISS:          0  itACCESS:          0  itHIT:          0  itMISS:          0  dtACCESS:          0  dtHIT:          0  dtMISS:          0
cpu0_ITLB TRANSLATION  ACCESS:          0  HIT:          0  MISS:          0  iACCESS:          0  iHIT:          0  iMISS:          0  dACCESS:          0  dHIT:          0  dMISS:          0  itACCESS:          0  itHIT:          0  itMISS:          0  dtACCESS:          0  dtHIT:          0  dtMISS:          0
cpu0_ITLB PREFETCH  REQUESTED:          0  ISSUED:          0  CROSSED:          0  USEFUL:     347432  USELESS:      71418
cpu0_ITLB AVERAGE iMISS LATENCY: 6.84813 cycles
cpu0_ITLB AVERAGE dMISS LATENCY: 0 cycles
cpu0_ITLB AVERAGE itMISS LATENCY: 0 cycles
cpu0_ITLB AVERAGE dtMISS LATENCY: 0 cycles
cpu0_ITLB PAGE CROSSINGS (TLB HIT):         0 
cpu0_ITLB PAGE CROSSINGS (TLB MISS):         0 
cpu0_ITLB AVERAGE MISS LATENCY: 6.84813 cycles
cpu0_DTLB TOTAL       ACCESS:   30759403  HIT:   24580739  MISS:    6178664  iACCESS:          0  iHIT:          0  iMISS:          0  dACCESS:   30759403  dHIT:   24580739  dMISS:    6178664  itACCESS:          0  itHIT:          0  itMISS:          0  dtACCESS:          0  dtHIT:          0  dtMISS:          0
cpu0_DTLB LOAD         ACCESS:   30759403  HIT:   24580739  MISS:    6178664  iACCESS:          0  iHIT:          0  iMISS:          0  dACCESS:   30759403  dHIT:   24580739  dMISS:    6178664  itACCESS:          0  itHIT:          0  itMISS:          0  dtACCESS:          0  dtHIT:          0  dtMISS:          0
cpu0_DTLB RFO          ACCESS:          0  HIT:          0  MISS:          0  iACCESS:          0  iHIT:          0  iMISS:          0  dACCESS:          0  dHIT:          0  dMISS:          0  itACCESS:          0  itHIT:          0  itMISS:          0  dtACCESS:          0  dtHIT:          0  dtMISS:          0
cpu0_DTLB PREFETCH     ACCESS:          0  HIT:          0  MISS:          0  iACCESS:          0  iHIT:          0  iMISS:          0  dACCESS:          0  dHIT:          0  dMISS:          0  itACCESS:          0  itHIT:          0  itMISS:          0  dtACCESS:          0  dtHIT:          0  dtMISS:          0
cpu0_DTLB WRITE        ACCESS:          0  HIT:          0  MISS:          0  iACCESS:          0  iHIT:          0  iMISS:          0  dACCESS:          0  dHIT:          0  dMISS:          0  itACCESS:          0  itHIT:          0  itMISS:          0  dtACCESS:          0  dtHIT:          0  dtMISS:          0
cpu0_DTLB TRANSLATION  ACCESS:          0  HIT:          0  MISS:          0  iACCESS:          0  iHIT:          0  iMISS:          0  dACCESS:          0  dHIT:          0  dMISS:          0  itACCESS:          0  itHIT:          0  itMISS:          0  dtACCESS:          0  dtHIT:          0  dtMISS:          0
cpu0_DTLB PREFETCH  REQUESTED:          0  ISSUED:          0  CROSSED:          0  USEFUL:          0  USELESS:          0
cpu0_DTLB AVERAGE iMISS LATENCY: 0 cycles
cpu0_DTLB AVERAGE dMISS LATENCY: 16.1339 cycles
cpu0_DTLB AVERAGE itMISS LATENCY: 0 cycles
cpu0_DTLB AVERAGE dtMISS LATENCY: 0 cycles
cpu0_DTLB PAGE CROSSINGS (TLB HIT):         0 
cpu0_DTLB PAGE CROSSINGS (TLB MISS):         0 
cpu0_DTLB AVERAGE MISS LATENCY: 16.1339 cycles
cpu0_STLB TOTAL       ACCESS:    3690565  HIT:    3360579  MISS:     329986  iACCESS:     418860  iHIT:     364808  iMISS:      54052  dACCESS:    3271705  dHIT:    2995771  dMISS:     275934  itACCESS:          0  itHIT:          0  itMISS:          0  dtACCESS:          0  dtHIT:          0  dtMISS:          0
cpu0_STLB LOAD         ACCESS:    3690565  HIT:    3360579  MISS:     329986  iACCESS:     418860  iHIT:     364808  iMISS:      54052  dACCESS:    3271705  dHIT:    2995771  dMISS:     275934  itACCESS:          0  itHIT:          0  itMISS:          0  dtACCESS:          0  dtHIT:          0  dtMISS:          0
cpu0_STLB RFO          ACCESS:          0  HIT:          0  MISS:          0  iACCESS:          0  iHIT:          0  iMISS:          0  dACCESS:          0  dHIT:          0  dMISS:          0  itACCESS:          0  itHIT:          0  itMISS:          0  dtACCESS:          0  dtHIT:          0  dtMISS:          0
cpu0_STLB PREFETCH     ACCESS:          0  HIT:          0  MISS:          0  iACCESS:          0  iHIT:          0  iMISS:          0  dACCESS:          0  dHIT:          0  dMISS:          0  itACCESS:          0  itHIT:          0  itMISS:          0  dtACCESS:          0  dtHIT:          0  dtMISS:          0
cpu0_STLB WRITE        ACCESS:          0  HIT:          0  MISS:          0  iACCESS:          0  iHIT:          0  iMISS:          0  dACCESS:          0  dHIT:          0  dMISS:          0  itACCESS:          0  itHIT:          0  itMISS:          0  dtACCESS:          0  dtHIT:          0  dtMISS:          0
cpu0_STLB TRANSLATION  ACCESS:          0  HIT:          0  MISS:          0  iACCESS:          0  iHIT:          0  iMISS:          0  dACCESS:          0  dHIT:          0  dMISS:          0  itACCESS:          0  itHIT:          0  itMISS:          0  dtACCESS:          0  dtHIT:          0  dtMISS:          0
cpu0_STLB PREFETCH  REQUESTED:          0  ISSUED:          0  CROSSED:          0  USEFUL:          0  USELESS:          0
cpu0_STLB AVERAGE iMISS LATENCY: 31.2379 cycles
cpu0_STLB AVERAGE dMISS LATENCY: 221.757 cycles
cpu0_STLB AVERAGE itMISS LATENCY: 0 cycles
cpu0_STLB AVERAGE dtMISS LATENCY: 0 cycles
cpu0_STLB PAGE CROSSINGS (TLB HIT):         0 
cpu0_STLB PAGE CROSSINGS (TLB MISS):         0 
cpu0_STLB AVERAGE MISS LATENCY: 252.995 cycles
cpu0_L1D TOTAL       ACCESS:   47847790  HIT:   39607205  MISS:    8240585  iACCESS:          0  iHIT:          0  iMISS:          0  dACCESS:   47343775  dHIT:   39583116  dMISS:    7760659  itACCESS:      63317  itHIT:       4619  itMISS:      58698  dtACCESS:     440698  dtHIT:      19470  dtMISS:     421228
cpu0_L1D LOAD         ACCESS:   22712317  HIT:   18357471  MISS:    4354846  iACCESS:          0  iHIT:          0  iMISS:          0  dACCESS:   22712317  dHIT:   18357471  dMISS:    4354846  itACCESS:          0  itHIT:          0  itMISS:          0  dtACCESS:          0  dtHIT:          0  dtMISS:          0
cpu0_L1D RFO          ACCESS:          0  HIT:          0  MISS:          0  iACCESS:          0  iHIT:          0  iMISS:          0  dACCESS:          0  dHIT:          0  dMISS:          0  itACCESS:          0  itHIT:          0  itMISS:          0  dtACCESS:          0  dtHIT:          0  dtMISS:          0
cpu0_L1D PREFETCH     ACCESS:   14850222  HIT:   12025589  MISS:    2824633  iACCESS:          0  iHIT:          0  iMISS:          0  dACCESS:   14850222  dHIT:   12025589  dMISS:    2824633  itACCESS:          0  itHIT:          0  itMISS:          0  dtACCESS:          0  dtHIT:          0  dtMISS:          0
cpu0_L1D WRITE        ACCESS:    9781236  HIT:    9200056  MISS:     581180  iACCESS:          0  iHIT:          0  iMISS:          0  dACCESS:    9781236  dHIT:    9200056  dMISS:     581180  itACCESS:          0  itHIT:          0  itMISS:          0  dtACCESS:          0  dtHIT:          0  dtMISS:          0
cpu0_L1D TRANSLATION  ACCESS:     504015  HIT:      24089  MISS:     479926  iACCESS:          0  iHIT:          0  iMISS:          0  dACCESS:          0  dHIT:          0  dMISS:          0  itACCESS:      63317  itHIT:       4619  itMISS:      58698  dtACCESS:     440698  dtHIT:      19470  dtMISS:     421228
cpu0_L1D PREFETCH  REQUESTED:   22712317  ISSUED:   18937384  CROSSED:          0  USEFUL:     327285  USELESS:    1176763
cpu0_L1D AVERAGE iMISS LATENCY: 0 cycles
cpu0_L1D AVERAGE dMISS LATENCY: 34.1478 cycles
cpu0_L1D AVERAGE itMISS LATENCY: 1.18103 cycles
cpu0_L1D AVERAGE dtMISS LATENCY: 8.30541 cycles
cpu0_L1D PAGE CROSSINGS (TLB HIT):         0 
cpu0_L1D PAGE CROSSINGS (TLB MISS):         0 
cpu0_L1D AVERAGE MISS LATENCY: 43.6342 cycles
cpu0_L2C TOTAL       ACCESS:    9985336  HIT:    6048313  MISS:    3937023  iACCESS:    3372297  iHIT:    2051554  iMISS:    1320743  dACCESS:    6162832  dHIT:    3936190  dMISS:    2226642  itACCESS:      58204  itHIT:       9087  itMISS:      49117  dtACCESS:     392003  dtHIT:      51482  dtMISS:     340521
cpu0_L2C LOAD         ACCESS:    3674338  HIT:    2746768  MISS:     927570  iACCESS:     748802  iHIT:     476260  iMISS:     272542  dACCESS:    2925536  dHIT:    2270508  dMISS:     655028  itACCESS:          0  itHIT:          0  itMISS:          0  dtACCESS:          0  dtHIT:          0  dtMISS:          0
cpu0_L2C RFO          ACCESS:     226497  HIT:     110922  MISS:     115575  iACCESS:          0  iHIT:          0  iMISS:          0  dACCESS:     226497  dHIT:     110922  dMISS:     115575  itACCESS:          0  itHIT:          0  itMISS:          0  dtACCESS:          0  dtHIT:          0  dtMISS:          0
cpu0_L2C PREFETCH     ACCESS:    5308214  HIT:    2806672  MISS:    2501542  iACCESS:    2623495  iHIT:    1575294  iMISS:    1048201  dACCESS:    2684719  dHIT:    1231378  dMISS:    1453341  itACCESS:          0  itHIT:          0  itMISS:          0  dtACCESS:          0  dtHIT:          0  dtMISS:          0
cpu0_L2C WRITE        ACCESS:     326080  HIT:     323382  MISS:       2698  iACCESS:          0  iHIT:          0  iMISS:          0  dACCESS:     326080  dHIT:     323382  dMISS:       2698  itACCESS:          0  itHIT:          0  itMISS:          0  dtACCESS:          0  dtHIT:          0  dtMISS:          0
cpu0_L2C TRANSLATION  ACCESS:     450207  HIT:      60569  MISS:     389638  iACCESS:          0  iHIT:          0  iMISS:          0  dACCESS:          0  dHIT:          0  dMISS:          0  itACCESS:      58204  itHIT:       9087  itMISS:      49117  dtACCESS:     392003  dtHIT:      51482  dtMISS:     340521
cpu0_L2C PREFETCH  REQUESTED:    1394453  ISSUED:    1394340  CROSSED:          0  USEFUL:     316018  USELESS:     289443
cpu0_L2C AVERAGE iMISS LATENCY: 41.3863 cycles
cpu0_L2C AVERAGE dMISS LATENCY: 79.9841 cycles
cpu0_L2C AVERAGE itMISS LATENCY: 2.32603 cycles
cpu0_L2C AVERAGE dtMISS LATENCY: 16.3956 cycles
cpu0_L2C PAGE CROSSINGS (TLB HIT):         0 
cpu0_L2C PAGE CROSSINGS (TLB MISS):         0 
cpu0_L2C AVERAGE MISS LATENCY: 140.092 cycles
LLC TOTAL       ACCESS:    3924363  HIT:    1145824  MISS:    2778539  iACCESS:    1241057  iHIT:     368746  iMISS:     872311  dACCESS:    2293668  dHIT:     731455  dMISS:    1562213  itACCESS:      49117  itHIT:       3269  itMISS:      45848  dtACCESS:     340521  dtHIT:      42354  dtMISS:     298167
LLC LOAD         ACCESS:     920323  HIT:     281613  MISS:     638710  iACCESS:     271468  iHIT:      86915  iMISS:     184553  dACCESS:     648855  dHIT:     194698  dMISS:     454157  itACCESS:          0  itHIT:          0  itMISS:          0  dtACCESS:          0  dtHIT:          0  dtMISS:          0
LLC RFO          ACCESS:     115574  HIT:      33912  MISS:      81662  iACCESS:          0  iHIT:          0  iMISS:          0  dACCESS:     115574  dHIT:      33912  dMISS:      81662  itACCESS:          0  itHIT:          0  itMISS:          0  dtACCESS:          0  dtHIT:          0  dtMISS:          0
LLC PREFETCH     ACCESS:    2313177  HIT:     608022  MISS:    1705155  iACCESS:     969589  iHIT:     281831  iMISS:     687758  dACCESS:    1343588  dHIT:     326191  dMISS:    1017397  itACCESS:          0  itHIT:          0  itMISS:          0  dtACCESS:          0  dtHIT:          0  dtMISS:          0
LLC WRITE        ACCESS:     185651  HIT:     176654  MISS:       8997  iACCESS:          0  iHIT:          0  iMISS:          0  dACCESS:     185651  dHIT:     176654  dMISS:       8997  itACCESS:          0  itHIT:          0  itMISS:          0  dtACCESS:          0  dtHIT:          0  dtMISS:          0
LLC TRANSLATION  ACCESS:     389638  HIT:      45623  MISS:     344015  iACCESS:          0  iHIT:          0  iMISS:          0  dACCESS:          0  dHIT:          0  dMISS:          0  itACCESS:      49117  itHIT:       3269  itMISS:      45848  dtACCESS:     340521  dtHIT:      42354  dtMISS:     298167
LLC PREFETCH  REQUESTED:          0  ISSUED:          0  CROSSED:          0  USEFUL:          0  USELESS:          0
LLC AVERAGE iMISS LATENCY: 49.8431 cycles
LLC AVERAGE dMISS LATENCY: 99.2614 cycles
LLC AVERAGE itMISS LATENCY: 2.94515 cycles
LLC AVERAGE dtMISS LATENCY: 20.8099 cycles
LLC PAGE CROSSINGS (TLB HIT):         0 
LLC PAGE CROSSINGS (TLB MISS):         0 
LLC AVERAGE MISS LATENCY: 172.86 cycles

PageTableWalker TOTAL       ACCESS:     191038  
PageTableWalker AVERAGE LATENCY: 6.80438 cycles
PageTableWalker TOTAL LATENCY: 1299895 cycles

DRAM Statistics
Channel 0
 RQ ROW_BUFFER_HIT:     596352
  ROW_BUFFER_MISS:    2156553
 AVG DBUS CONGESTED CYCLE:    3.65249
 WQ ROW_BUFFER_HIT:      58480
  ROW_BUFFER_MISS:      51054  FULL:          0

