last_page:0x200000000000000
VMEM_RES_CAP:0x100000
PAGE_SIZE:4096
LOG2_PAGE_SIZE:12
LOG2_PAGE_TABLE_SIZE:9
page_table_levels:5
WARNING: physical memory size is smaller than virtual memory size
FDiP enabled with aggresivity 16

*** ChampSim Multicore Out-of-Order Simulator ***

Warmup Instructions: 50000000
Simulation Instructions: 100000000
Number of CPUs: 1
Small page size: 4096
Large page size: 2097152

CPU 0 Bimodal branch predictor
Basic BTB sets: 1024 ways: 8 indirect buffer size: 4096 RAS size: 64
Instruction page size distrubution: 0
Loading instruction page size distribution from /home/bsc/bsc018186/scratch/itp_asplos25_AE/dump/smt_srv540_ap_srv582_ap_1024i.pdst
Data page size distrubution: 0
Loading data page size distribution from /home/bsc/bsc018186/scratch/itp_asplos25_AE/dump/smt_srv540_ap_srv582_ap_1024i.pdst
cpu0_L2C IP-based stride prefetcher
cpu0_L1D next line prefetcher
CHiRPing...
cpu0_L1I next line prefetcher
Off-chip DRAM Size: 4 GiB Channels: 1 Width: 64-bit Data Rate: 3200 MT/s
Heartbeat CPU 0 instructions: 10000000 cycles: 2500440 heartbeat IPC: 3.9993 cumulative IPC: 3.9993 (Simulation time: 0 hr 0 min 42 sec) 
Heartbeat CPU 0 instructions: 20000001 cycles: 5000632 heartbeat IPC: 3.9997 cumulative IPC: 3.9995 (Simulation time: 0 hr 1 min 27 sec) 
Heartbeat CPU 0 instructions: 30000002 cycles: 7500885 heartbeat IPC: 3.9996 cumulative IPC: 3.99953 (Simulation time: 0 hr 2 min 12 sec) 
Heartbeat CPU 0 instructions: 40000003 cycles: 10001033 heartbeat IPC: 3.99977 cumulative IPC: 3.99959 (Simulation time: 0 hr 2 min 58 sec) 
Heartbeat CPU 0 instructions: 50000003 cycles: 12501531 heartbeat IPC: 3.99921 cumulative IPC: 3.99952 (Simulation time: 0 hr 3 min 44 sec) 
Warmup finished CPU 0 instructions: 50000003 cycles: 12501532 cumulative IPC: 3.99952 (Simulation time: 0 hr 3 min 44 sec) 

Warmup complete CPU 0 instructions: 50000003 cycles: 12501532 (Simulation time: 0 hr 3 min 44 sec) 

Heartbeat CPU 0 instructions: 60000002 cycles: 40290406 heartbeat IPC: 0.359857 cumulative IPC: 0.359857 (Simulation time: 0 hr 5 min 13 sec) 
Heartbeat CPU 0 instructions: 70000000 cycles: 68502677 heartbeat IPC: 0.354456 cumulative IPC: 0.357136 (Simulation time: 0 hr 6 min 43 sec) 
Heartbeat CPU 0 instructions: 80000002 cycles: 95869095 heartbeat IPC: 0.365412 cumulative IPC: 0.359853 (Simulation time: 0 hr 8 min 12 sec) 
Heartbeat CPU 0 instructions: 90000000 cycles: 123855106 heartbeat IPC: 0.357322 cumulative IPC: 0.359217 (Simulation time: 0 hr 9 min 42 sec) 
Heartbeat CPU 0 instructions: 100000004 cycles: 152863339 heartbeat IPC: 0.34473 cumulative IPC: 0.356223 (Simulation time: 0 hr 11 min 11 sec) 
Heartbeat CPU 0 instructions: 110000000 cycles: 180857537 heartbeat IPC: 0.357217 cumulative IPC: 0.356388 (Simulation time: 0 hr 12 min 37 sec) 
Heartbeat CPU 0 instructions: 120000002 cycles: 209069473 heartbeat IPC: 0.35446 cumulative IPC: 0.356111 (Simulation time: 0 hr 14 min 2 sec) 
Heartbeat CPU 0 instructions: 130000000 cycles: 236634818 heartbeat IPC: 0.362775 cumulative IPC: 0.356931 (Simulation time: 0 hr 15 min 27 sec) 
Heartbeat CPU 0 instructions: 140000002 cycles: 264367593 heartbeat IPC: 0.360585 cumulative IPC: 0.357333 (Simulation time: 0 hr 16 min 54 sec) 
Heartbeat CPU 0 instructions: 150000001 cycles: 290770725 heartbeat IPC: 0.378743 cumulative IPC: 0.359365 (Simulation time: 0 hr 18 min 22 sec) 
Simulation finished CPU 0 instructions: 100000003 cycles: 278269195 cumulative IPC: 0.359365 (Simulation time: 0 hr 18 min 22 sec) 

Simulation complete CPU 0 instructions: 100000003 cycles: 278269195 (Simulation time: 0 hr 18 min 22 sec) 


ChampSim completed all CPUs

Saving instructions large page distribution to /home/bsc/bsc018186/scratch/itp_asplos25_AE/dump/smt_srv540_ap_srv582_ap_1024i.pdst...
Saving data large page distribution to /home/bsc/bsc018186/scratch/itp_asplos25_AE/dump/smt_srv540_ap_srv582_ap_1024i.pdst...
=== Simulation ===
CPU 0 runs /gpfs/projects/bsc18/MN4/bsc18/romol/ChampSim/traces/qualcomm_srv/smt_srv540_ap_srv582_ap_1024i.champsimtrace.xz

Region of Interest Statistics

CPU 0 cumulative IPC: 0.359365 instructions: 100000003 cycles: 278269195
CPU 0 Branch Prediction Accuracy: 75.1418% MPKI: 44.8327 Average ROB Occupancy at Mispredict: 10.4474
Branch type MPKI
BRANCH_DIRECT_JUMP: 1.39703
BRANCH_INDIRECT: 23.1452
BRANCH_CONDITIONAL: 13.0321
BRANCH_DIRECT_CALL: 2.68798
BRANCH_INDIRECT_CALL: 1.02458
BRANCH_RETURN: 3.54574

Instructions large pages: 0
Instructions small pages: 9622
Large page distribution for instructions: 0%

Data large pages: 0
Data small pages: 8277
Large page distribution for data: 0%

cpu0_L1I TOTAL       ACCESS:   39647584  HIT:   30461219  MISS:    9186365  iACCESS:   39647584  iHIT:   30461219  iMISS:    9186365  dACCESS:          0  dHIT:          0  dMISS:          0  itACCESS:          0  itHIT:          0  itMISS:          0  dtACCESS:          0  dtHIT:          0  dtMISS:          0
cpu0_L1I LOAD         ACCESS:   11850795  HIT:    9358410  MISS:    2492385  iACCESS:   11850795  iHIT:    9358410  iMISS:    2492385  dACCESS:          0  dHIT:          0  dMISS:          0  itACCESS:          0  itHIT:          0  itMISS:          0  dtACCESS:          0  dtHIT:          0  dtMISS:          0
cpu0_L1I RFO          ACCESS:          0  HIT:          0  MISS:          0  iACCESS:          0  iHIT:          0  iMISS:          0  dACCESS:          0  dHIT:          0  dMISS:          0  itACCESS:          0  itHIT:          0  itMISS:          0  dtACCESS:          0  dtHIT:          0  dtMISS:          0
cpu0_L1I PREFETCH     ACCESS:   27796789  HIT:   21102809  MISS:    6693980  iACCESS:   27796789  iHIT:   21102809  iMISS:    6693980  dACCESS:          0  dHIT:          0  dMISS:          0  itACCESS:          0  itHIT:          0  itMISS:          0  dtACCESS:          0  dtHIT:          0  dtMISS:          0
cpu0_L1I WRITE        ACCESS:          0  HIT:          0  MISS:          0  iACCESS:          0  iHIT:          0  iMISS:          0  dACCESS:          0  dHIT:          0  dMISS:          0  itACCESS:          0  itHIT:          0  itMISS:          0  dtACCESS:          0  dtHIT:          0  dtMISS:          0
cpu0_L1I TRANSLATION  ACCESS:          0  HIT:          0  MISS:          0  iACCESS:          0  iHIT:          0  iMISS:          0  dACCESS:          0  dHIT:          0  dMISS:          0  itACCESS:          0  itHIT:          0  itMISS:          0  dtACCESS:          0  dtHIT:          0  dtMISS:          0
cpu0_L1I PREFETCH  REQUESTED:   30426003  ISSUED:   30424131  CROSSED:          0  USEFUL:    2211527  USELESS:     764629
cpu0_L1I AVERAGE iMISS LATENCY: 24.2565 cycles
cpu0_L1I AVERAGE dMISS LATENCY: 0 cycles
cpu0_L1I AVERAGE itMISS LATENCY: 0 cycles
cpu0_L1I AVERAGE dtMISS LATENCY: 0 cycles
cpu0_L1I PAGE CROSSINGS (TLB HIT):         0 
cpu0_L1I PAGE CROSSINGS (TLB MISS):         0 
cpu0_L1I AVERAGE MISS LATENCY: 24.2565 cycles
cpu0_ITLB TOTAL       ACCESS:   33332463  HIT:   31113476  MISS:    2218987  iACCESS:   33332463  iHIT:   31113476  iMISS:    2218987  dACCESS:          0  dHIT:          0  dMISS:          0  itACCESS:          0  itHIT:          0  itMISS:          0  dtACCESS:          0  dtHIT:          0  dtMISS:          0
cpu0_ITLB LOAD         ACCESS:   33332463  HIT:   31113476  MISS:    2218987  iACCESS:   33332463  iHIT:   31113476  iMISS:    2218987  dACCESS:          0  dHIT:          0  dMISS:          0  itACCESS:          0  itHIT:          0  itMISS:          0  dtACCESS:          0  dtHIT:          0  dtMISS:          0
cpu0_ITLB RFO          ACCESS:          0  HIT:          0  MISS:          0  iACCESS:          0  iHIT:          0  iMISS:          0  dACCESS:          0  dHIT:          0  dMISS:          0  itACCESS:          0  itHIT:          0  itMISS:          0  dtACCESS:          0  dtHIT:          0  dtMISS:          0
cpu0_ITLB PREFETCH     ACCESS:          0  HIT:          0  MISS:          0  iACCESS:          0  iHIT:          0  iMISS:          0  dACCESS:          0  dHIT:          0  dMISS:          0  itACCESS:          0  itHIT:          0  itMISS:          0  dtACCESS:          0  dtHIT:          0  dtMISS:          0
cpu0_ITLB WRITE        ACCESS:          0  HIT:          0  MISS:          0  iACCESS:          0  iHIT:          0  iMISS:          0  dACCESS:          0  dHIT:          0  dMISS:          0  itACCESS:          0  itHIT:          0  itMISS:          0  dtACCESS:          0  dtHIT:          0  dtMISS:          0
cpu0_ITLB TRANSLATION  ACCESS:          0  HIT:          0  MISS:          0  iACCESS:          0  iHIT:          0  iMISS:          0  dACCESS:          0  dHIT:          0  dMISS:          0  itACCESS:          0  itHIT:          0  itMISS:          0  dtACCESS:          0  dtHIT:          0  dtMISS:          0
cpu0_ITLB PREFETCH  REQUESTED:          0  ISSUED:          0  CROSSED:          0  USEFUL:     389423  USELESS:      79029
cpu0_ITLB AVERAGE iMISS LATENCY: 7.83662 cycles
cpu0_ITLB AVERAGE dMISS LATENCY: 0 cycles
cpu0_ITLB AVERAGE itMISS LATENCY: 0 cycles
cpu0_ITLB AVERAGE dtMISS LATENCY: 0 cycles
cpu0_ITLB PAGE CROSSINGS (TLB HIT):         0 
cpu0_ITLB PAGE CROSSINGS (TLB MISS):         0 
cpu0_ITLB AVERAGE MISS LATENCY: 7.83662 cycles
cpu0_DTLB TOTAL       ACCESS:   28874420  HIT:   25275800  MISS:    3598620  iACCESS:          0  iHIT:          0  iMISS:          0  dACCESS:   28874420  dHIT:   25275800  dMISS:    3598620  itACCESS:          0  itHIT:          0  itMISS:          0  dtACCESS:          0  dtHIT:          0  dtMISS:          0
cpu0_DTLB LOAD         ACCESS:   28874420  HIT:   25275800  MISS:    3598620  iACCESS:          0  iHIT:          0  iMISS:          0  dACCESS:   28874420  dHIT:   25275800  dMISS:    3598620  itACCESS:          0  itHIT:          0  itMISS:          0  dtACCESS:          0  dtHIT:          0  dtMISS:          0
cpu0_DTLB RFO          ACCESS:          0  HIT:          0  MISS:          0  iACCESS:          0  iHIT:          0  iMISS:          0  dACCESS:          0  dHIT:          0  dMISS:          0  itACCESS:          0  itHIT:          0  itMISS:          0  dtACCESS:          0  dtHIT:          0  dtMISS:          0
cpu0_DTLB PREFETCH     ACCESS:          0  HIT:          0  MISS:          0  iACCESS:          0  iHIT:          0  iMISS:          0  dACCESS:          0  dHIT:          0  dMISS:          0  itACCESS:          0  itHIT:          0  itMISS:          0  dtACCESS:          0  dtHIT:          0  dtMISS:          0
cpu0_DTLB WRITE        ACCESS:          0  HIT:          0  MISS:          0  iACCESS:          0  iHIT:          0  iMISS:          0  dACCESS:          0  dHIT:          0  dMISS:          0  itACCESS:          0  itHIT:          0  itMISS:          0  dtACCESS:          0  dtHIT:          0  dtMISS:          0
cpu0_DTLB TRANSLATION  ACCESS:          0  HIT:          0  MISS:          0  iACCESS:          0  iHIT:          0  iMISS:          0  dACCESS:          0  dHIT:          0  dMISS:          0  itACCESS:          0  itHIT:          0  itMISS:          0  dtACCESS:          0  dtHIT:          0  dtMISS:          0
cpu0_DTLB PREFETCH  REQUESTED:          0  ISSUED:          0  CROSSED:          0  USEFUL:          0  USELESS:          0
cpu0_DTLB AVERAGE iMISS LATENCY: 0 cycles
cpu0_DTLB AVERAGE dMISS LATENCY: 17.0245 cycles
cpu0_DTLB AVERAGE itMISS LATENCY: 0 cycles
cpu0_DTLB AVERAGE dtMISS LATENCY: 0 cycles
cpu0_DTLB PAGE CROSSINGS (TLB HIT):         0 
cpu0_DTLB PAGE CROSSINGS (TLB MISS):         0 
cpu0_DTLB AVERAGE MISS LATENCY: 17.0245 cycles
cpu0_STLB TOTAL       ACCESS:    2574126  HIT:    2191795  MISS:     382331  iACCESS:     468461  iHIT:     349896  iMISS:     118565  dACCESS:    2105665  dHIT:    1841899  dMISS:     263766  itACCESS:          0  itHIT:          0  itMISS:          0  dtACCESS:          0  dtHIT:          0  dtMISS:          0
cpu0_STLB LOAD         ACCESS:    2574126  HIT:    2191795  MISS:     382331  iACCESS:     468461  iHIT:     349896  iMISS:     118565  dACCESS:    2105665  dHIT:    1841899  dMISS:     263766  itACCESS:          0  itHIT:          0  itMISS:          0  dtACCESS:          0  dtHIT:          0  dtMISS:          0
cpu0_STLB RFO          ACCESS:          0  HIT:          0  MISS:          0  iACCESS:          0  iHIT:          0  iMISS:          0  dACCESS:          0  dHIT:          0  dMISS:          0  itACCESS:          0  itHIT:          0  itMISS:          0  dtACCESS:          0  dtHIT:          0  dtMISS:          0
cpu0_STLB PREFETCH     ACCESS:          0  HIT:          0  MISS:          0  iACCESS:          0  iHIT:          0  iMISS:          0  dACCESS:          0  dHIT:          0  dMISS:          0  itACCESS:          0  itHIT:          0  itMISS:          0  dtACCESS:          0  dtHIT:          0  dtMISS:          0
cpu0_STLB WRITE        ACCESS:          0  HIT:          0  MISS:          0  iACCESS:          0  iHIT:          0  iMISS:          0  dACCESS:          0  dHIT:          0  dMISS:          0  itACCESS:          0  itHIT:          0  itMISS:          0  dtACCESS:          0  dtHIT:          0  dtMISS:          0
cpu0_STLB TRANSLATION  ACCESS:          0  HIT:          0  MISS:          0  iACCESS:          0  iHIT:          0  iMISS:          0  dACCESS:          0  dHIT:          0  dMISS:          0  itACCESS:          0  itHIT:          0  itMISS:          0  dtACCESS:          0  dtHIT:          0  dtMISS:          0
cpu0_STLB PREFETCH  REQUESTED:          0  ISSUED:          0  CROSSED:          0  USEFUL:          0  USELESS:          0
cpu0_STLB AVERAGE iMISS LATENCY: 35.6807 cycles
cpu0_STLB AVERAGE dMISS LATENCY: 115.969 cycles
cpu0_STLB AVERAGE itMISS LATENCY: 0 cycles
cpu0_STLB AVERAGE dtMISS LATENCY: 0 cycles
cpu0_STLB PAGE CROSSINGS (TLB HIT):         0 
cpu0_STLB PAGE CROSSINGS (TLB MISS):         0 
cpu0_STLB AVERAGE MISS LATENCY: 151.649 cycles
cpu0_L1D TOTAL       ACCESS:   44921712  HIT:   39119365  MISS:    5802347  iACCESS:          0  iHIT:          0  iMISS:          0  dACCESS:   44373654  dHIT:   39085293  dMISS:    5288361  itACCESS:     132757  itHIT:      14476  itMISS:     118281  dtACCESS:     415301  dtHIT:      19596  dtMISS:     395705
cpu0_L1D LOAD         ACCESS:   20271982  HIT:   17901460  MISS:    2370522  iACCESS:          0  iHIT:          0  iMISS:          0  dACCESS:   20271982  dHIT:   17901460  dMISS:    2370522  itACCESS:          0  itHIT:          0  itMISS:          0  dtACCESS:          0  dtHIT:          0  dtMISS:          0
cpu0_L1D RFO          ACCESS:          0  HIT:          0  MISS:          0  iACCESS:          0  iHIT:          0  iMISS:          0  dACCESS:          0  dHIT:          0  dMISS:          0  itACCESS:          0  itHIT:          0  itMISS:          0  dtACCESS:          0  dtHIT:          0  dtMISS:          0
cpu0_L1D PREFETCH     ACCESS:   13951271  HIT:   11609446  MISS:    2341825  iACCESS:          0  iHIT:          0  iMISS:          0  dACCESS:   13951271  dHIT:   11609446  dMISS:    2341825  itACCESS:          0  itHIT:          0  itMISS:          0  dtACCESS:          0  dtHIT:          0  dtMISS:          0
cpu0_L1D WRITE        ACCESS:   10150401  HIT:    9574387  MISS:     576014  iACCESS:          0  iHIT:          0  iMISS:          0  dACCESS:   10150401  dHIT:    9574387  dMISS:     576014  itACCESS:          0  itHIT:          0  itMISS:          0  dtACCESS:          0  dtHIT:          0  dtMISS:          0
cpu0_L1D TRANSLATION  ACCESS:     548058  HIT:      34072  MISS:     513986  iACCESS:          0  iHIT:          0  iMISS:          0  dACCESS:          0  dHIT:          0  dMISS:          0  itACCESS:     132757  itHIT:      14476  itMISS:     118281  dtACCESS:     415301  dtHIT:      19596  dtMISS:     395705
cpu0_L1D PREFETCH  REQUESTED:   20271982  ISSUED:   18442294  CROSSED:          0  USEFUL:     360753  USELESS:     925838
cpu0_L1D AVERAGE iMISS LATENCY: 0 cycles
cpu0_L1D AVERAGE dMISS LATENCY: 50.6686 cycles
cpu0_L1D AVERAGE itMISS LATENCY: 2.1637 cycles
cpu0_L1D AVERAGE dtMISS LATENCY: 6.87966 cycles
cpu0_L1D PAGE CROSSINGS (TLB HIT):         0 
cpu0_L1D PAGE CROSSINGS (TLB MISS):         0 
cpu0_L1D AVERAGE MISS LATENCY: 59.712 cycles
cpu0_L2C TOTAL       ACCESS:    8623319  HIT:    1556308  MISS:    7067011  iACCESS:    3778351  iHIT:     827912  iMISS:    2950439  dACCESS:    4354691  dHIT:     529773  dMISS:    3824918  itACCESS:     117415  itHIT:      43304  itMISS:      74111  dtACCESS:     372862  dtHIT:     155319  dtMISS:     217543
cpu0_L2C LOAD         ACCESS:    2033470  HIT:     204761  MISS:    1828709  iACCESS:     838753  iHIT:     117457  iMISS:     721296  dACCESS:    1194717  dHIT:      87304  dMISS:    1107413  itACCESS:          0  itHIT:          0  itMISS:          0  dtACCESS:          0  dtHIT:          0  dtMISS:          0
cpu0_L2C RFO          ACCESS:     219523  HIT:      28814  MISS:     190709  iACCESS:          0  iHIT:          0  iMISS:          0  dACCESS:     219523  dHIT:      28814  dMISS:     190709  itACCESS:          0  itHIT:          0  itMISS:          0  dtACCESS:          0  dtHIT:          0  dtMISS:          0
cpu0_L2C PREFETCH     ACCESS:    5535322  HIT:    1028129  MISS:    4507193  iACCESS:    2939598  iHIT:     710455  iMISS:    2229143  dACCESS:    2595724  dHIT:     317674  dMISS:    2278050  itACCESS:          0  itHIT:          0  itMISS:          0  dtACCESS:          0  dtHIT:          0  dtMISS:          0
cpu0_L2C WRITE        ACCESS:     344727  HIT:      95981  MISS:     248746  iACCESS:          0  iHIT:          0  iMISS:          0  dACCESS:     344727  dHIT:      95981  dMISS:     248746  itACCESS:          0  itHIT:          0  itMISS:          0  dtACCESS:          0  dtHIT:          0  dtMISS:          0
cpu0_L2C TRANSLATION  ACCESS:     490277  HIT:     198623  MISS:     291654  iACCESS:          0  iHIT:          0  iMISS:          0  dACCESS:          0  dHIT:          0  dMISS:          0  itACCESS:     117415  itHIT:      43304  itMISS:      74111  dtACCESS:     372862  dtHIT:     155319  dtMISS:     217543
cpu0_L2C PREFETCH  REQUESTED:    1551701  ISSUED:    1551699  CROSSED:          0  USEFUL:     416233  USELESS:     495130
cpu0_L2C AVERAGE iMISS LATENCY: 26.9396 cycles
cpu0_L2C AVERAGE dMISS LATENCY: 51.407 cycles
cpu0_L2C AVERAGE itMISS LATENCY: 1.61604 cycles
cpu0_L2C AVERAGE dtMISS LATENCY: 5.14064 cycles
cpu0_L2C PAGE CROSSINGS (TLB HIT):         0 
cpu0_L2C PAGE CROSSINGS (TLB MISS):         0 
cpu0_L2C AVERAGE MISS LATENCY: 85.1033 cycles
LLC TOTAL       ACCESS:    6864627  HIT:    4113104  MISS:    2751523  iACCESS:    2856248  iHIT:    2001052  iMISS:     855196  dACCESS:    3716725  dHIT:    2043514  dMISS:    1673211  itACCESS:      74111  itHIT:      18287  itMISS:      55824  dtACCESS:     217543  dtHIT:      50251  dtMISS:     167292
LLC LOAD         ACCESS:    1821280  HIT:    1157820  MISS:     663460  iACCESS:     719827  iHIT:     539092  iMISS:     180735  dACCESS:    1101453  dHIT:     618728  dMISS:     482725  itACCESS:          0  itHIT:          0  itMISS:          0  dtACCESS:          0  dtHIT:          0  dtMISS:          0
LLC RFO          ACCESS:     190691  HIT:      94048  MISS:      96643  iACCESS:          0  iHIT:          0  iMISS:          0  dACCESS:     190691  dHIT:      94048  dMISS:      96643  itACCESS:          0  itHIT:          0  itMISS:          0  dtACCESS:          0  dtHIT:          0  dtMISS:          0
LLC PREFETCH     ACCESS:    4285345  HIT:    2523160  MISS:    1762185  iACCESS:    2136421  iHIT:    1461960  iMISS:     674461  dACCESS:    2148924  dHIT:    1061200  dMISS:    1087724  itACCESS:          0  itHIT:          0  itMISS:          0  dtACCESS:          0  dtHIT:          0  dtMISS:          0
LLC WRITE        ACCESS:     275657  HIT:     269538  MISS:       6119  iACCESS:          0  iHIT:          0  iMISS:          0  dACCESS:     275657  dHIT:     269538  dMISS:       6119  itACCESS:          0  itHIT:          0  itMISS:          0  dtACCESS:          0  dtHIT:          0  dtMISS:          0
LLC TRANSLATION  ACCESS:     291654  HIT:      68538  MISS:     223116  iACCESS:          0  iHIT:          0  iMISS:          0  dACCESS:          0  dHIT:          0  dMISS:          0  itACCESS:      74111  itHIT:      18287  itMISS:      55824  dtACCESS:     217543  dtHIT:      50251  dtMISS:     167292
LLC PREFETCH  REQUESTED:          0  ISSUED:          0  CROSSED:          0  USEFUL:          0  USELESS:          0
LLC AVERAGE iMISS LATENCY: 49.0246 cycles
LLC AVERAGE dMISS LATENCY: 108.737 cycles
LLC AVERAGE itMISS LATENCY: 3.62021 cycles
LLC AVERAGE dtMISS LATENCY: 11.6462 cycles
LLC PAGE CROSSINGS (TLB HIT):         0 
LLC PAGE CROSSINGS (TLB MISS):         0 
LLC AVERAGE MISS LATENCY: 173.028 cycles

PageTableWalker TOTAL       ACCESS:     195967  
PageTableWalker AVERAGE LATENCY: 5.76385 cycles
PageTableWalker TOTAL LATENCY: 1129524 cycles

DRAM Statistics
Channel 0
 RQ ROW_BUFFER_HIT:     595255
  ROW_BUFFER_MISS:    2129630
 AVG DBUS CONGESTED CYCLE:    3.65499
 WQ ROW_BUFFER_HIT:      68712
  ROW_BUFFER_MISS:      63178  FULL:          0

