last_page:0x200000000000000
VMEM_RES_CAP:0x100000
PAGE_SIZE:4096
LOG2_PAGE_SIZE:12
LOG2_PAGE_TABLE_SIZE:9
page_table_levels:5
WARNING: physical memory size is smaller than virtual memory size
FDiP enabled with aggresivity 16

*** ChampSim Multicore Out-of-Order Simulator ***

Warmup Instructions: 50000000
Simulation Instructions: 100000000
Number of CPUs: 1
Small page size: 4096
Large page size: 2097152

CPU 0 Bimodal branch predictor
Basic BTB sets: 1024 ways: 8 indirect buffer size: 4096 RAS size: 64
Instruction page size distrubution: 0
Loading instruction page size distribution from /home/bsc/bsc018186/scratch/itp_asplos25_AE/dump/smt_srv207_ap_srv526_ap_1024i.pdst
Data page size distrubution: 0
Loading data page size distribution from /home/bsc/bsc018186/scratch/itp_asplos25_AE/dump/smt_srv207_ap_srv526_ap_1024i.pdst
cpu0_L2C IP-based stride prefetcher
cpu0_L1D next line prefetcher
CHiRPing...
cpu0_L1I next line prefetcher
Off-chip DRAM Size: 4 GiB Channels: 1 Width: 64-bit Data Rate: 3200 MT/s
Heartbeat CPU 0 instructions: 10000002 cycles: 2500686 heartbeat IPC: 3.99891 cumulative IPC: 3.99891 (Simulation time: 0 hr 0 min 43 sec) 
Heartbeat CPU 0 instructions: 20000001 cycles: 5001126 heartbeat IPC: 3.9993 cumulative IPC: 3.9991 (Simulation time: 0 hr 1 min 28 sec) 
Heartbeat CPU 0 instructions: 30000003 cycles: 7592696 heartbeat IPC: 3.85867 cumulative IPC: 3.95117 (Simulation time: 0 hr 2 min 16 sec) 
Heartbeat CPU 0 instructions: 40000002 cycles: 10149447 heartbeat IPC: 3.91122 cumulative IPC: 3.94111 (Simulation time: 0 hr 3 min 5 sec) 
Heartbeat CPU 0 instructions: 50000003 cycles: 12678671 heartbeat IPC: 3.95379 cumulative IPC: 3.94364 (Simulation time: 0 hr 3 min 53 sec) 
Warmup finished CPU 0 instructions: 50000003 cycles: 12678672 cumulative IPC: 3.94364 (Simulation time: 0 hr 3 min 53 sec) 

Warmup complete CPU 0 instructions: 50000003 cycles: 12678672 (Simulation time: 0 hr 3 min 53 sec) 

Heartbeat CPU 0 instructions: 60000003 cycles: 40814806 heartbeat IPC: 0.355415 cumulative IPC: 0.355415 (Simulation time: 0 hr 5 min 22 sec) 
Heartbeat CPU 0 instructions: 70000004 cycles: 69484821 heartbeat IPC: 0.348797 cumulative IPC: 0.352075 (Simulation time: 0 hr 6 min 52 sec) 
Heartbeat CPU 0 instructions: 80000003 cycles: 98612811 heartbeat IPC: 0.343313 cumulative IPC: 0.349105 (Simulation time: 0 hr 8 min 18 sec) 
Heartbeat CPU 0 instructions: 90000003 cycles: 126766448 heartbeat IPC: 0.355194 cumulative IPC: 0.350608 (Simulation time: 0 hr 9 min 43 sec) 
Heartbeat CPU 0 instructions: 100000000 cycles: 155092449 heartbeat IPC: 0.353033 cumulative IPC: 0.35109 (Simulation time: 0 hr 11 min 9 sec) 
Heartbeat CPU 0 instructions: 110000000 cycles: 183549645 heartbeat IPC: 0.351405 cumulative IPC: 0.351143 (Simulation time: 0 hr 12 min 34 sec) 
Heartbeat CPU 0 instructions: 120000000 cycles: 210788518 heartbeat IPC: 0.367123 cumulative IPC: 0.35334 (Simulation time: 0 hr 13 min 58 sec) 
Heartbeat CPU 0 instructions: 130000002 cycles: 238419297 heartbeat IPC: 0.361916 cumulative IPC: 0.35439 (Simulation time: 0 hr 15 min 22 sec) 
Heartbeat CPU 0 instructions: 140000002 cycles: 268126750 heartbeat IPC: 0.336616 cumulative IPC: 0.352323 (Simulation time: 0 hr 16 min 49 sec) 
Heartbeat CPU 0 instructions: 150000003 cycles: 297030498 heartbeat IPC: 0.345976 cumulative IPC: 0.351678 (Simulation time: 0 hr 18 min 16 sec) 
Simulation finished CPU 0 instructions: 100000000 cycles: 284351827 cumulative IPC: 0.351678 (Simulation time: 0 hr 18 min 16 sec) 

Simulation complete CPU 0 instructions: 100000000 cycles: 284351827 (Simulation time: 0 hr 18 min 16 sec) 


ChampSim completed all CPUs

Saving instructions large page distribution to /home/bsc/bsc018186/scratch/itp_asplos25_AE/dump/smt_srv207_ap_srv526_ap_1024i.pdst...
Saving data large page distribution to /home/bsc/bsc018186/scratch/itp_asplos25_AE/dump/smt_srv207_ap_srv526_ap_1024i.pdst...
=== Simulation ===
CPU 0 runs /gpfs/projects/bsc18/MN4/bsc18/romol/ChampSim/traces/qualcomm_srv/smt_srv207_ap_srv526_ap_1024i.champsimtrace.xz

Region of Interest Statistics

CPU 0 cumulative IPC: 0.351678 instructions: 100000000 cycles: 284351827
CPU 0 Branch Prediction Accuracy: 75.1657% MPKI: 44.6877 Average ROB Occupancy at Mispredict: 10.6756
Branch type MPKI
BRANCH_DIRECT_JUMP: 1.46301
BRANCH_INDIRECT: 23.5899
BRANCH_CONDITIONAL: 12.4119
BRANCH_DIRECT_CALL: 2.63154
BRANCH_INDIRECT_CALL: 1.00381
BRANCH_RETURN: 3.58768

Instructions large pages: 0
Instructions small pages: 15154
Large page distribution for instructions: 0%

Data large pages: 0
Data small pages: 13659
Large page distribution for data: 0%

cpu0_L1I TOTAL       ACCESS:   39325742  HIT:   30030301  MISS:    9295441  iACCESS:   39325742  iHIT:   30030301  iMISS:    9295441  dACCESS:          0  dHIT:          0  dMISS:          0  itACCESS:          0  itHIT:          0  itMISS:          0  dtACCESS:          0  dtHIT:          0  dtMISS:          0
cpu0_L1I LOAD         ACCESS:   11624895  HIT:    9084902  MISS:    2539993  iACCESS:   11624895  iHIT:    9084902  iMISS:    2539993  dACCESS:          0  dHIT:          0  dMISS:          0  itACCESS:          0  itHIT:          0  itMISS:          0  dtACCESS:          0  dtHIT:          0  dtMISS:          0
cpu0_L1I RFO          ACCESS:          0  HIT:          0  MISS:          0  iACCESS:          0  iHIT:          0  iMISS:          0  dACCESS:          0  dHIT:          0  dMISS:          0  itACCESS:          0  itHIT:          0  itMISS:          0  dtACCESS:          0  dtHIT:          0  dtMISS:          0
cpu0_L1I PREFETCH     ACCESS:   27700847  HIT:   20945399  MISS:    6755448  iACCESS:   27700847  iHIT:   20945399  iMISS:    6755448  dACCESS:          0  dHIT:          0  dMISS:          0  itACCESS:          0  itHIT:          0  itMISS:          0  dtACCESS:          0  dtHIT:          0  dtMISS:          0
cpu0_L1I WRITE        ACCESS:          0  HIT:          0  MISS:          0  iACCESS:          0  iHIT:          0  iMISS:          0  dACCESS:          0  dHIT:          0  dMISS:          0  itACCESS:          0  itHIT:          0  itMISS:          0  dtACCESS:          0  dtHIT:          0  dtMISS:          0
cpu0_L1I TRANSLATION  ACCESS:          0  HIT:          0  MISS:          0  iACCESS:          0  iHIT:          0  iMISS:          0  dACCESS:          0  dHIT:          0  dMISS:          0  itACCESS:          0  itHIT:          0  itMISS:          0  dtACCESS:          0  dtHIT:          0  dtMISS:          0
cpu0_L1I PREFETCH  REQUESTED:   30234513  ISSUED:   30233166  CROSSED:          0  USEFUL:    2207650  USELESS:     796112
cpu0_L1I AVERAGE iMISS LATENCY: 24.1108 cycles
cpu0_L1I AVERAGE dMISS LATENCY: 0 cycles
cpu0_L1I AVERAGE itMISS LATENCY: 0 cycles
cpu0_L1I AVERAGE dtMISS LATENCY: 0 cycles
cpu0_L1I PAGE CROSSINGS (TLB HIT):         0 
cpu0_L1I PAGE CROSSINGS (TLB MISS):         0 
cpu0_L1I AVERAGE MISS LATENCY: 24.1108 cycles
cpu0_ITLB TOTAL       ACCESS:   33137246  HIT:   30837289  MISS:    2299957  iACCESS:   33137246  iHIT:   30837289  iMISS:    2299957  dACCESS:          0  dHIT:          0  dMISS:          0  itACCESS:          0  itHIT:          0  itMISS:          0  dtACCESS:          0  dtHIT:          0  dtMISS:          0
cpu0_ITLB LOAD         ACCESS:   33137246  HIT:   30837289  MISS:    2299957  iACCESS:   33137246  iHIT:   30837289  iMISS:    2299957  dACCESS:          0  dHIT:          0  dMISS:          0  itACCESS:          0  itHIT:          0  itMISS:          0  dtACCESS:          0  dtHIT:          0  dtMISS:          0
cpu0_ITLB RFO          ACCESS:          0  HIT:          0  MISS:          0  iACCESS:          0  iHIT:          0  iMISS:          0  dACCESS:          0  dHIT:          0  dMISS:          0  itACCESS:          0  itHIT:          0  itMISS:          0  dtACCESS:          0  dtHIT:          0  dtMISS:          0
cpu0_ITLB PREFETCH     ACCESS:          0  HIT:          0  MISS:          0  iACCESS:          0  iHIT:          0  iMISS:          0  dACCESS:          0  dHIT:          0  dMISS:          0  itACCESS:          0  itHIT:          0  itMISS:          0  dtACCESS:          0  dtHIT:          0  dtMISS:          0
cpu0_ITLB WRITE        ACCESS:          0  HIT:          0  MISS:          0  iACCESS:          0  iHIT:          0  iMISS:          0  dACCESS:          0  dHIT:          0  dMISS:          0  itACCESS:          0  itHIT:          0  itMISS:          0  dtACCESS:          0  dtHIT:          0  dtMISS:          0
cpu0_ITLB TRANSLATION  ACCESS:          0  HIT:          0  MISS:          0  iACCESS:          0  iHIT:          0  iMISS:          0  dACCESS:          0  dHIT:          0  dMISS:          0  itACCESS:          0  itHIT:          0  itMISS:          0  dtACCESS:          0  dtHIT:          0  dtMISS:          0
cpu0_ITLB PREFETCH  REQUESTED:          0  ISSUED:          0  CROSSED:          0  USEFUL:     404713  USELESS:      87000
cpu0_ITLB AVERAGE iMISS LATENCY: 8.41549 cycles
cpu0_ITLB AVERAGE dMISS LATENCY: 0 cycles
cpu0_ITLB AVERAGE itMISS LATENCY: 0 cycles
cpu0_ITLB AVERAGE dtMISS LATENCY: 0 cycles
cpu0_ITLB PAGE CROSSINGS (TLB HIT):         0 
cpu0_ITLB PAGE CROSSINGS (TLB MISS):         0 
cpu0_ITLB AVERAGE MISS LATENCY: 8.41549 cycles
cpu0_DTLB TOTAL       ACCESS:   29274788  HIT:   25722634  MISS:    3552154  iACCESS:          0  iHIT:          0  iMISS:          0  dACCESS:   29274788  dHIT:   25722634  dMISS:    3552154  itACCESS:          0  itHIT:          0  itMISS:          0  dtACCESS:          0  dtHIT:          0  dtMISS:          0
cpu0_DTLB LOAD         ACCESS:   29274788  HIT:   25722634  MISS:    3552154  iACCESS:          0  iHIT:          0  iMISS:          0  dACCESS:   29274788  dHIT:   25722634  dMISS:    3552154  itACCESS:          0  itHIT:          0  itMISS:          0  dtACCESS:          0  dtHIT:          0  dtMISS:          0
cpu0_DTLB RFO          ACCESS:          0  HIT:          0  MISS:          0  iACCESS:          0  iHIT:          0  iMISS:          0  dACCESS:          0  dHIT:          0  dMISS:          0  itACCESS:          0  itHIT:          0  itMISS:          0  dtACCESS:          0  dtHIT:          0  dtMISS:          0
cpu0_DTLB PREFETCH     ACCESS:          0  HIT:          0  MISS:          0  iACCESS:          0  iHIT:          0  iMISS:          0  dACCESS:          0  dHIT:          0  dMISS:          0  itACCESS:          0  itHIT:          0  itMISS:          0  dtACCESS:          0  dtHIT:          0  dtMISS:          0
cpu0_DTLB WRITE        ACCESS:          0  HIT:          0  MISS:          0  iACCESS:          0  iHIT:          0  iMISS:          0  dACCESS:          0  dHIT:          0  dMISS:          0  itACCESS:          0  itHIT:          0  itMISS:          0  dtACCESS:          0  dtHIT:          0  dtMISS:          0
cpu0_DTLB TRANSLATION  ACCESS:          0  HIT:          0  MISS:          0  iACCESS:          0  iHIT:          0  iMISS:          0  dACCESS:          0  dHIT:          0  dMISS:          0  itACCESS:          0  itHIT:          0  itMISS:          0  dtACCESS:          0  dtHIT:          0  dtMISS:          0
cpu0_DTLB PREFETCH  REQUESTED:          0  ISSUED:          0  CROSSED:          0  USEFUL:          0  USELESS:          0
cpu0_DTLB AVERAGE iMISS LATENCY: 0 cycles
cpu0_DTLB AVERAGE dMISS LATENCY: 18.3957 cycles
cpu0_DTLB AVERAGE itMISS LATENCY: 0 cycles
cpu0_DTLB AVERAGE dtMISS LATENCY: 0 cycles
cpu0_DTLB PAGE CROSSINGS (TLB HIT):         0 
cpu0_DTLB PAGE CROSSINGS (TLB MISS):         0 
cpu0_DTLB AVERAGE MISS LATENCY: 18.3957 cycles
cpu0_STLB TOTAL       ACCESS:    2574750  HIT:    2182445  MISS:     392305  iACCESS:     491728  iHIT:     370543  iMISS:     121185  dACCESS:    2083022  dHIT:    1811902  dMISS:     271120  itACCESS:          0  itHIT:          0  itMISS:          0  dtACCESS:          0  dtHIT:          0  dtMISS:          0
cpu0_STLB LOAD         ACCESS:    2574750  HIT:    2182445  MISS:     392305  iACCESS:     491728  iHIT:     370543  iMISS:     121185  dACCESS:    2083022  dHIT:    1811902  dMISS:     271120  itACCESS:          0  itHIT:          0  itMISS:          0  dtACCESS:          0  dtHIT:          0  dtMISS:          0
cpu0_STLB RFO          ACCESS:          0  HIT:          0  MISS:          0  iACCESS:          0  iHIT:          0  iMISS:          0  dACCESS:          0  dHIT:          0  dMISS:          0  itACCESS:          0  itHIT:          0  itMISS:          0  dtACCESS:          0  dtHIT:          0  dtMISS:          0
cpu0_STLB PREFETCH     ACCESS:          0  HIT:          0  MISS:          0  iACCESS:          0  iHIT:          0  iMISS:          0  dACCESS:          0  dHIT:          0  dMISS:          0  itACCESS:          0  itHIT:          0  itMISS:          0  dtACCESS:          0  dtHIT:          0  dtMISS:          0
cpu0_STLB WRITE        ACCESS:          0  HIT:          0  MISS:          0  iACCESS:          0  iHIT:          0  iMISS:          0  dACCESS:          0  dHIT:          0  dMISS:          0  itACCESS:          0  itHIT:          0  itMISS:          0  dtACCESS:          0  dtHIT:          0  dtMISS:          0
cpu0_STLB TRANSLATION  ACCESS:          0  HIT:          0  MISS:          0  iACCESS:          0  iHIT:          0  iMISS:          0  dACCESS:          0  dHIT:          0  dMISS:          0  itACCESS:          0  itHIT:          0  itMISS:          0  dtACCESS:          0  dtHIT:          0  dtMISS:          0
cpu0_STLB PREFETCH  REQUESTED:          0  ISSUED:          0  CROSSED:          0  USEFUL:          0  USELESS:          0
cpu0_STLB AVERAGE iMISS LATENCY: 39.3204 cycles
cpu0_STLB AVERAGE dMISS LATENCY: 123.874 cycles
cpu0_STLB AVERAGE itMISS LATENCY: 0 cycles
cpu0_STLB AVERAGE dtMISS LATENCY: 0 cycles
cpu0_STLB PAGE CROSSINGS (TLB HIT):         0 
cpu0_STLB PAGE CROSSINGS (TLB MISS):         0 
cpu0_STLB AVERAGE MISS LATENCY: 163.194 cycles
cpu0_L1D TOTAL       ACCESS:   45508981  HIT:   39714063  MISS:    5794918  iACCESS:          0  iHIT:          0  iMISS:          0  dACCESS:   44939114  dHIT:   39678643  dMISS:    5260471  itACCESS:     135860  itHIT:      13878  itMISS:     121982  dtACCESS:     434007  dtHIT:      21542  dtMISS:     412465
cpu0_L1D LOAD         ACCESS:   20541838  HIT:   18183731  MISS:    2358107  iACCESS:          0  iHIT:          0  iMISS:          0  dACCESS:   20541838  dHIT:   18183731  dMISS:    2358107  itACCESS:          0  itHIT:          0  itMISS:          0  dtACCESS:          0  dtHIT:          0  dtMISS:          0
cpu0_L1D RFO          ACCESS:          0  HIT:          0  MISS:          0  iACCESS:          0  iHIT:          0  iMISS:          0  dACCESS:          0  dHIT:          0  dMISS:          0  itACCESS:          0  itHIT:          0  itMISS:          0  dtACCESS:          0  dtHIT:          0  dtMISS:          0
cpu0_L1D PREFETCH     ACCESS:   14196042  HIT:   11906004  MISS:    2290038  iACCESS:          0  iHIT:          0  iMISS:          0  dACCESS:   14196042  dHIT:   11906004  dMISS:    2290038  itACCESS:          0  itHIT:          0  itMISS:          0  dtACCESS:          0  dtHIT:          0  dtMISS:          0
cpu0_L1D WRITE        ACCESS:   10201234  HIT:    9588908  MISS:     612326  iACCESS:          0  iHIT:          0  iMISS:          0  dACCESS:   10201234  dHIT:    9588908  dMISS:     612326  itACCESS:          0  itHIT:          0  itMISS:          0  dtACCESS:          0  dtHIT:          0  dtMISS:          0
cpu0_L1D TRANSLATION  ACCESS:     569867  HIT:      35420  MISS:     534447  iACCESS:          0  iHIT:          0  iMISS:          0  dACCESS:          0  dHIT:          0  dMISS:          0  itACCESS:     135860  itHIT:      13878  itMISS:     121982  dtACCESS:     434007  dtHIT:      21542  dtMISS:     412465
cpu0_L1D PREFETCH  REQUESTED:   20541838  ISSUED:   18886592  CROSSED:          0  USEFUL:     373582  USELESS:     964136
cpu0_L1D AVERAGE iMISS LATENCY: 0 cycles
cpu0_L1D AVERAGE dMISS LATENCY: 51.9168 cycles
cpu0_L1D AVERAGE itMISS LATENCY: 2.467 cycles
cpu0_L1D AVERAGE dtMISS LATENCY: 7.4207 cycles
cpu0_L1D PAGE CROSSINGS (TLB HIT):         0 
cpu0_L1D PAGE CROSSINGS (TLB MISS):         0 
cpu0_L1D AVERAGE MISS LATENCY: 61.8045 cycles
cpu0_L2C TOTAL       ACCESS:    8738939  HIT:    1451654  MISS:    7287285  iACCESS:    3831848  iHIT:     740218  iMISS:    3091630  dACCESS:    4400070  dHIT:     521832  dMISS:    3878238  itACCESS:     121734  itHIT:      39667  itMISS:      82067  dtACCESS:     385287  dtHIT:     149937  dtMISS:     235350
cpu0_L2C LOAD         ACCESS:    2112666  HIT:     195559  MISS:    1917107  iACCESS:     859727  iHIT:     104624  iMISS:     755103  dACCESS:    1252939  dHIT:      90935  dMISS:    1162004  itACCESS:          0  itHIT:          0  itMISS:          0  dtACCESS:          0  dtHIT:          0  dtMISS:          0
cpu0_L2C RFO          ACCESS:     229878  HIT:      28549  MISS:     201329  iACCESS:          0  iHIT:          0  iMISS:          0  dACCESS:     229878  dHIT:      28549  dMISS:     201329  itACCESS:          0  itHIT:          0  itMISS:          0  dtACCESS:          0  dtHIT:          0  dtMISS:          0
cpu0_L2C PREFETCH     ACCESS:    5537967  HIT:     933722  MISS:    4604245  iACCESS:    2972121  iHIT:     635594  iMISS:    2336527  dACCESS:    2565846  dHIT:     298128  dMISS:    2267718  itACCESS:          0  itHIT:          0  itMISS:          0  dtACCESS:          0  dtHIT:          0  dtMISS:          0
cpu0_L2C WRITE        ACCESS:     351407  HIT:     104220  MISS:     247187  iACCESS:          0  iHIT:          0  iMISS:          0  dACCESS:     351407  dHIT:     104220  dMISS:     247187  itACCESS:          0  itHIT:          0  itMISS:          0  dtACCESS:          0  dtHIT:          0  dtMISS:          0
cpu0_L2C TRANSLATION  ACCESS:     507021  HIT:     189604  MISS:     317417  iACCESS:          0  iHIT:          0  iMISS:          0  dACCESS:          0  dHIT:          0  dMISS:          0  itACCESS:     121734  itHIT:      39667  itMISS:      82067  dtACCESS:     385287  dtHIT:     149937  dtMISS:     235350
cpu0_L2C PREFETCH  REQUESTED:    1458865  ISSUED:    1458861  CROSSED:          0  USEFUL:     386971  USELESS:     491497
cpu0_L2C AVERAGE iMISS LATENCY: 26.2235 cycles
cpu0_L2C AVERAGE dMISS LATENCY: 50.0088 cycles
cpu0_L2C AVERAGE itMISS LATENCY: 1.79972 cycles
cpu0_L2C AVERAGE dtMISS LATENCY: 5.39038 cycles
cpu0_L2C PAGE CROSSINGS (TLB HIT):         0 
cpu0_L2C PAGE CROSSINGS (TLB MISS):         0 
cpu0_L2C AVERAGE MISS LATENCY: 83.4224 cycles
LLC TOTAL       ACCESS:    7121611  HIT:    4364552  MISS:    2757059  iACCESS:    3005849  iHIT:    2163495  iMISS:     842354  dACCESS:    3798345  dHIT:    2130527  dMISS:    1667818  itACCESS:      82067  itHIT:      17601  itMISS:      64466  dtACCESS:     235350  dtHIT:      52929  dtMISS:     182421
LLC LOAD         ACCESS:    1910255  HIT:    1230703  MISS:     679552  iACCESS:     753570  iHIT:     575913  iMISS:     177657  dACCESS:    1156685  dHIT:     654790  dMISS:     501895  itACCESS:          0  itHIT:          0  itMISS:          0  dtACCESS:          0  dtHIT:          0  dtMISS:          0
LLC RFO          ACCESS:     201305  HIT:     103998  MISS:      97307  iACCESS:          0  iHIT:          0  iMISS:          0  dACCESS:     201305  dHIT:     103998  dMISS:      97307  itACCESS:          0  itHIT:          0  itMISS:          0  dtACCESS:          0  dtHIT:          0  dtMISS:          0
LLC PREFETCH     ACCESS:    4408654  HIT:    2681677  MISS:    1726977  iACCESS:    2252279  iHIT:    1587582  iMISS:     664697  dACCESS:    2156375  dHIT:    1094095  dMISS:    1062280  itACCESS:          0  itHIT:          0  itMISS:          0  dtACCESS:          0  dtHIT:          0  dtMISS:          0
LLC WRITE        ACCESS:     283980  HIT:     277644  MISS:       6336  iACCESS:          0  iHIT:          0  iMISS:          0  dACCESS:     283980  dHIT:     277644  dMISS:       6336  itACCESS:          0  itHIT:          0  itMISS:          0  dtACCESS:          0  dtHIT:          0  dtMISS:          0
LLC TRANSLATION  ACCESS:     317417  HIT:      70530  MISS:     246887  iACCESS:          0  iHIT:          0  iMISS:          0  dACCESS:          0  dHIT:          0  dMISS:          0  itACCESS:      82067  itHIT:      17601  itMISS:      64466  dtACCESS:     235350  dtHIT:      52929  dtMISS:     182421
LLC PREFETCH  REQUESTED:          0  ISSUED:          0  CROSSED:          0  USEFUL:          0  USELESS:          0
LLC AVERAGE iMISS LATENCY: 48.1446 cycles
LLC AVERAGE dMISS LATENCY: 108.115 cycles
LLC AVERAGE itMISS LATENCY: 4.16997 cycles
LLC AVERAGE dtMISS LATENCY: 12.5659 cycles
LLC PAGE CROSSINGS (TLB HIT):         0 
LLC PAGE CROSSINGS (TLB MISS):         0 
LLC AVERAGE MISS LATENCY: 172.996 cycles

PageTableWalker TOTAL       ACCESS:     141293  
PageTableWalker AVERAGE LATENCY: 6.01802 cycles
PageTableWalker TOTAL LATENCY: 850304 cycles

DRAM Statistics
Channel 0
 RQ ROW_BUFFER_HIT:     598839
  ROW_BUFFER_MISS:    2139642
 AVG DBUS CONGESTED CYCLE:    3.65031
 WQ ROW_BUFFER_HIT:      67919
  ROW_BUFFER_MISS:      63625  FULL:          0

