last_page:0x200000000000000
VMEM_RES_CAP:0x100000
PAGE_SIZE:4096
LOG2_PAGE_SIZE:12
LOG2_PAGE_TABLE_SIZE:9
page_table_levels:5
WARNING: physical memory size is smaller than virtual memory size
FDiP enabled with aggresivity 16

*** ChampSim Multicore Out-of-Order Simulator ***

Warmup Instructions: 50000000
Simulation Instructions: 100000000
Number of CPUs: 1
Small page size: 4096
Large page size: 2097152

CPU 0 Bimodal branch predictor
Basic BTB sets: 1024 ways: 8 indirect buffer size: 4096 RAS size: 64
Instruction page size distrubution: 0
Loading instruction page size distribution from /home/bsc/bsc018186/scratch/itp_asplos25_AE/dump/smt_srv85_ap_srv346_ap_1024i.pdst
Data page size distrubution: 0
Loading data page size distribution from /home/bsc/bsc018186/scratch/itp_asplos25_AE/dump/smt_srv85_ap_srv346_ap_1024i.pdst
cpu0_L2C IP-based stride prefetcher
cpu0_L1D next line prefetcher
cpu0_L1I next line prefetcher
Off-chip DRAM Size: 4 GiB Channels: 1 Width: 64-bit Data Rate: 3200 MT/s
Heartbeat CPU 0 instructions: 10000002 cycles: 2500354 heartbeat IPC: 3.99944 cumulative IPC: 3.99944 (Simulation time: 0 hr 0 min 46 sec) 
Heartbeat CPU 0 instructions: 20000000 cycles: 5000719 heartbeat IPC: 3.99942 cumulative IPC: 3.99943 (Simulation time: 0 hr 1 min 35 sec) 
Heartbeat CPU 0 instructions: 30000003 cycles: 7501072 heartbeat IPC: 3.99944 cumulative IPC: 3.99943 (Simulation time: 0 hr 2 min 23 sec) 
Heartbeat CPU 0 instructions: 40000002 cycles: 10001312 heartbeat IPC: 3.99962 cumulative IPC: 3.99948 (Simulation time: 0 hr 3 min 13 sec) 
Heartbeat CPU 0 instructions: 50000003 cycles: 12501421 heartbeat IPC: 3.99983 cumulative IPC: 3.99955 (Simulation time: 0 hr 4 min 2 sec) 
Warmup finished CPU 0 instructions: 50000003 cycles: 12501422 cumulative IPC: 3.99955 (Simulation time: 0 hr 4 min 2 sec) 

Warmup complete CPU 0 instructions: 50000003 cycles: 12501422 (Simulation time: 0 hr 4 min 2 sec) 

Heartbeat CPU 0 instructions: 60000000 cycles: 39545250 heartbeat IPC: 0.369771 cumulative IPC: 0.369771 (Simulation time: 0 hr 5 min 38 sec) 
Heartbeat CPU 0 instructions: 70000003 cycles: 66407732 heartbeat IPC: 0.372267 cumulative IPC: 0.371015 (Simulation time: 0 hr 7 min 16 sec) 
Heartbeat CPU 0 instructions: 80000002 cycles: 93611695 heartbeat IPC: 0.367594 cumulative IPC: 0.369867 (Simulation time: 0 hr 8 min 54 sec) 
Heartbeat CPU 0 instructions: 90000002 cycles: 119574339 heartbeat IPC: 0.385169 cumulative IPC: 0.373578 (Simulation time: 0 hr 10 min 30 sec) 
Heartbeat CPU 0 instructions: 100000000 cycles: 146804573 heartbeat IPC: 0.367239 cumulative IPC: 0.372293 (Simulation time: 0 hr 12 min 7 sec) 
Heartbeat CPU 0 instructions: 110000002 cycles: 174045817 heartbeat IPC: 0.367091 cumulative IPC: 0.371415 (Simulation time: 0 hr 13 min 45 sec) 
Heartbeat CPU 0 instructions: 120000000 cycles: 200572149 heartbeat IPC: 0.376984 cumulative IPC: 0.372201 (Simulation time: 0 hr 15 min 20 sec) 
Heartbeat CPU 0 instructions: 130000002 cycles: 227175601 heartbeat IPC: 0.375892 cumulative IPC: 0.372658 (Simulation time: 0 hr 16 min 45 sec) 
Heartbeat CPU 0 instructions: 140000004 cycles: 254064054 heartbeat IPC: 0.371907 cumulative IPC: 0.372575 (Simulation time: 0 hr 18 min 10 sec) 
Heartbeat CPU 0 instructions: 150000000 cycles: 281362523 heartbeat IPC: 0.366321 cumulative IPC: 0.37194 (Simulation time: 0 hr 19 min 36 sec) 
Simulation finished CPU 0 instructions: 100000002 cycles: 268861103 cumulative IPC: 0.37194 (Simulation time: 0 hr 19 min 36 sec) 

Simulation complete CPU 0 instructions: 100000002 cycles: 268861103 (Simulation time: 0 hr 19 min 36 sec) 


ChampSim completed all CPUs

Saving instructions large page distribution to /home/bsc/bsc018186/scratch/itp_asplos25_AE/dump/smt_srv85_ap_srv346_ap_1024i.pdst...
Saving data large page distribution to /home/bsc/bsc018186/scratch/itp_asplos25_AE/dump/smt_srv85_ap_srv346_ap_1024i.pdst...
=== Simulation ===
CPU 0 runs /gpfs/projects/bsc18/MN4/bsc18/romol/ChampSim/traces/qualcomm_srv/smt_srv85_ap_srv346_ap_1024i.champsimtrace.xz

Region of Interest Statistics

CPU 0 cumulative IPC: 0.37194 instructions: 100000002 cycles: 268861103
CPU 0 Branch Prediction Accuracy: 75.947% MPKI: 43.2219 Average ROB Occupancy at Mispredict: 11.0605
Branch type MPKI
BRANCH_DIRECT_JUMP: 1.29361
BRANCH_INDIRECT: 22.5598
BRANCH_CONDITIONAL: 12.5539
BRANCH_DIRECT_CALL: 2.47788
BRANCH_INDIRECT_CALL: 0.91463
BRANCH_RETURN: 3.42202

Instructions large pages: 0
Instructions small pages: 13169
Large page distribution for instructions: 0%

Data large pages: 0
Data small pages: 11885
Large page distribution for data: 0%

cpu0_L1I TOTAL       ACCESS:   39228066  HIT:   30046964  MISS:    9181102  iACCESS:   39228066  iHIT:   30046964  iMISS:    9181102  dACCESS:          0  dHIT:          0  dMISS:          0  itACCESS:          0  itHIT:          0  itMISS:          0  dtACCESS:          0  dtHIT:          0  dtMISS:          0
cpu0_L1I LOAD         ACCESS:   11738528  HIT:    9241144  MISS:    2497384  iACCESS:   11738528  iHIT:    9241144  iMISS:    2497384  dACCESS:          0  dHIT:          0  dMISS:          0  itACCESS:          0  itHIT:          0  itMISS:          0  dtACCESS:          0  dtHIT:          0  dtMISS:          0
cpu0_L1I RFO          ACCESS:          0  HIT:          0  MISS:          0  iACCESS:          0  iHIT:          0  iMISS:          0  dACCESS:          0  dHIT:          0  dMISS:          0  itACCESS:          0  itHIT:          0  itMISS:          0  dtACCESS:          0  dtHIT:          0  dtMISS:          0
cpu0_L1I PREFETCH     ACCESS:   27489538  HIT:   20805820  MISS:    6683718  iACCESS:   27489538  iHIT:   20805820  iMISS:    6683718  dACCESS:          0  dHIT:          0  dMISS:          0  itACCESS:          0  itHIT:          0  itMISS:          0  dtACCESS:          0  dtHIT:          0  dtMISS:          0
cpu0_L1I WRITE        ACCESS:          0  HIT:          0  MISS:          0  iACCESS:          0  iHIT:          0  iMISS:          0  dACCESS:          0  dHIT:          0  dMISS:          0  itACCESS:          0  itHIT:          0  itMISS:          0  dtACCESS:          0  dtHIT:          0  dtMISS:          0
cpu0_L1I TRANSLATION  ACCESS:          0  HIT:          0  MISS:          0  iACCESS:          0  iHIT:          0  iMISS:          0  dACCESS:          0  dHIT:          0  dMISS:          0  itACCESS:          0  itHIT:          0  itMISS:          0  dtACCESS:          0  dtHIT:          0  dtMISS:          0
cpu0_L1I PREFETCH  REQUESTED:   30108299  ISSUED:   30106510  CROSSED:          0  USEFUL:    2195943  USELESS:     750881
cpu0_L1I AVERAGE iMISS LATENCY: 23.3194 cycles
cpu0_L1I AVERAGE dMISS LATENCY: 0 cycles
cpu0_L1I AVERAGE itMISS LATENCY: 0 cycles
cpu0_L1I AVERAGE dtMISS LATENCY: 0 cycles
cpu0_L1I PAGE CROSSINGS (TLB HIT):         0 
cpu0_L1I PAGE CROSSINGS (TLB MISS):         0 
cpu0_L1I AVERAGE MISS LATENCY: 23.3194 cycles
cpu0_ITLB TOTAL       ACCESS:   32911196  HIT:   30713941  MISS:    2197255  iACCESS:   32911196  iHIT:   30713941  iMISS:    2197255  dACCESS:          0  dHIT:          0  dMISS:          0  itACCESS:          0  itHIT:          0  itMISS:          0  dtACCESS:          0  dtHIT:          0  dtMISS:          0
cpu0_ITLB LOAD         ACCESS:   32911196  HIT:   30713941  MISS:    2197255  iACCESS:   32911196  iHIT:   30713941  iMISS:    2197255  dACCESS:          0  dHIT:          0  dMISS:          0  itACCESS:          0  itHIT:          0  itMISS:          0  dtACCESS:          0  dtHIT:          0  dtMISS:          0
cpu0_ITLB RFO          ACCESS:          0  HIT:          0  MISS:          0  iACCESS:          0  iHIT:          0  iMISS:          0  dACCESS:          0  dHIT:          0  dMISS:          0  itACCESS:          0  itHIT:          0  itMISS:          0  dtACCESS:          0  dtHIT:          0  dtMISS:          0
cpu0_ITLB PREFETCH     ACCESS:          0  HIT:          0  MISS:          0  iACCESS:          0  iHIT:          0  iMISS:          0  dACCESS:          0  dHIT:          0  dMISS:          0  itACCESS:          0  itHIT:          0  itMISS:          0  dtACCESS:          0  dtHIT:          0  dtMISS:          0
cpu0_ITLB WRITE        ACCESS:          0  HIT:          0  MISS:          0  iACCESS:          0  iHIT:          0  iMISS:          0  dACCESS:          0  dHIT:          0  dMISS:          0  itACCESS:          0  itHIT:          0  itMISS:          0  dtACCESS:          0  dtHIT:          0  dtMISS:          0
cpu0_ITLB TRANSLATION  ACCESS:          0  HIT:          0  MISS:          0  iACCESS:          0  iHIT:          0  iMISS:          0  dACCESS:          0  dHIT:          0  dMISS:          0  itACCESS:          0  itHIT:          0  itMISS:          0  dtACCESS:          0  dtHIT:          0  dtMISS:          0
cpu0_ITLB PREFETCH  REQUESTED:          0  ISSUED:          0  CROSSED:          0  USEFUL:     383290  USELESS:      77488
cpu0_ITLB AVERAGE iMISS LATENCY: 7.54336 cycles
cpu0_ITLB AVERAGE dMISS LATENCY: 0 cycles
cpu0_ITLB AVERAGE itMISS LATENCY: 0 cycles
cpu0_ITLB AVERAGE dtMISS LATENCY: 0 cycles
cpu0_ITLB PAGE CROSSINGS (TLB HIT):         0 
cpu0_ITLB PAGE CROSSINGS (TLB MISS):         0 
cpu0_ITLB AVERAGE MISS LATENCY: 7.54336 cycles
cpu0_DTLB TOTAL       ACCESS:   28791722  HIT:   25126865  MISS:    3664857  iACCESS:          0  iHIT:          0  iMISS:          0  dACCESS:   28791722  dHIT:   25126865  dMISS:    3664857  itACCESS:          0  itHIT:          0  itMISS:          0  dtACCESS:          0  dtHIT:          0  dtMISS:          0
cpu0_DTLB LOAD         ACCESS:   28791722  HIT:   25126865  MISS:    3664857  iACCESS:          0  iHIT:          0  iMISS:          0  dACCESS:   28791722  dHIT:   25126865  dMISS:    3664857  itACCESS:          0  itHIT:          0  itMISS:          0  dtACCESS:          0  dtHIT:          0  dtMISS:          0
cpu0_DTLB RFO          ACCESS:          0  HIT:          0  MISS:          0  iACCESS:          0  iHIT:          0  iMISS:          0  dACCESS:          0  dHIT:          0  dMISS:          0  itACCESS:          0  itHIT:          0  itMISS:          0  dtACCESS:          0  dtHIT:          0  dtMISS:          0
cpu0_DTLB PREFETCH     ACCESS:          0  HIT:          0  MISS:          0  iACCESS:          0  iHIT:          0  iMISS:          0  dACCESS:          0  dHIT:          0  dMISS:          0  itACCESS:          0  itHIT:          0  itMISS:          0  dtACCESS:          0  dtHIT:          0  dtMISS:          0
cpu0_DTLB WRITE        ACCESS:          0  HIT:          0  MISS:          0  iACCESS:          0  iHIT:          0  iMISS:          0  dACCESS:          0  dHIT:          0  dMISS:          0  itACCESS:          0  itHIT:          0  itMISS:          0  dtACCESS:          0  dtHIT:          0  dtMISS:          0
cpu0_DTLB TRANSLATION  ACCESS:          0  HIT:          0  MISS:          0  iACCESS:          0  iHIT:          0  iMISS:          0  dACCESS:          0  dHIT:          0  dMISS:          0  itACCESS:          0  itHIT:          0  itMISS:          0  dtACCESS:          0  dtHIT:          0  dtMISS:          0
cpu0_DTLB PREFETCH  REQUESTED:          0  ISSUED:          0  CROSSED:          0  USEFUL:          0  USELESS:          0
cpu0_DTLB AVERAGE iMISS LATENCY: 0 cycles
cpu0_DTLB AVERAGE dMISS LATENCY: 16.6591 cycles
cpu0_DTLB AVERAGE itMISS LATENCY: 0 cycles
cpu0_DTLB AVERAGE dtMISS LATENCY: 0 cycles
cpu0_DTLB PAGE CROSSINGS (TLB HIT):         0 
cpu0_DTLB PAGE CROSSINGS (TLB MISS):         0 
cpu0_DTLB AVERAGE MISS LATENCY: 16.6591 cycles
cpu0_STLB TOTAL       ACCESS:    2596479  HIT:    2226978  MISS:     369501  iACCESS:     460797  iHIT:     353286  iMISS:     107511  dACCESS:    2135682  dHIT:    1873692  dMISS:     261990  itACCESS:          0  itHIT:          0  itMISS:          0  dtACCESS:          0  dtHIT:          0  dtMISS:          0
cpu0_STLB LOAD         ACCESS:    2596479  HIT:    2226978  MISS:     369501  iACCESS:     460797  iHIT:     353286  iMISS:     107511  dACCESS:    2135682  dHIT:    1873692  dMISS:     261990  itACCESS:          0  itHIT:          0  itMISS:          0  dtACCESS:          0  dtHIT:          0  dtMISS:          0
cpu0_STLB RFO          ACCESS:          0  HIT:          0  MISS:          0  iACCESS:          0  iHIT:          0  iMISS:          0  dACCESS:          0  dHIT:          0  dMISS:          0  itACCESS:          0  itHIT:          0  itMISS:          0  dtACCESS:          0  dtHIT:          0  dtMISS:          0
cpu0_STLB PREFETCH     ACCESS:          0  HIT:          0  MISS:          0  iACCESS:          0  iHIT:          0  iMISS:          0  dACCESS:          0  dHIT:          0  dMISS:          0  itACCESS:          0  itHIT:          0  itMISS:          0  dtACCESS:          0  dtHIT:          0  dtMISS:          0
cpu0_STLB WRITE        ACCESS:          0  HIT:          0  MISS:          0  iACCESS:          0  iHIT:          0  iMISS:          0  dACCESS:          0  dHIT:          0  dMISS:          0  itACCESS:          0  itHIT:          0  itMISS:          0  dtACCESS:          0  dtHIT:          0  dtMISS:          0
cpu0_STLB TRANSLATION  ACCESS:          0  HIT:          0  MISS:          0  iACCESS:          0  iHIT:          0  iMISS:          0  dACCESS:          0  dHIT:          0  dMISS:          0  itACCESS:          0  itHIT:          0  itMISS:          0  dtACCESS:          0  dtHIT:          0  dtMISS:          0
cpu0_STLB PREFETCH  REQUESTED:          0  ISSUED:          0  CROSSED:          0  USEFUL:          0  USELESS:          0
cpu0_STLB AVERAGE iMISS LATENCY: 34.9127 cycles
cpu0_STLB AVERAGE dMISS LATENCY: 118.794 cycles
cpu0_STLB AVERAGE itMISS LATENCY: 0 cycles
cpu0_STLB AVERAGE dtMISS LATENCY: 0 cycles
cpu0_STLB PAGE CROSSINGS (TLB HIT):         0 
cpu0_STLB PAGE CROSSINGS (TLB MISS):         0 
cpu0_STLB AVERAGE MISS LATENCY: 153.707 cycles
cpu0_L1D TOTAL       ACCESS:   44623339  HIT:   39095271  MISS:    5528068  iACCESS:          0  iHIT:          0  iMISS:          0  dACCESS:   44079884  dHIT:   39060256  dMISS:    5019628  itACCESS:     120735  itHIT:      14716  itMISS:     106019  dtACCESS:     422720  dtHIT:      20299  dtMISS:     402421
cpu0_L1D LOAD         ACCESS:   20111834  HIT:   17868704  MISS:    2243130  iACCESS:          0  iHIT:          0  iMISS:          0  dACCESS:   20111834  dHIT:   17868704  dMISS:    2243130  itACCESS:          0  itHIT:          0  itMISS:          0  dtACCESS:          0  dtHIT:          0  dtMISS:          0
cpu0_L1D RFO          ACCESS:          0  HIT:          0  MISS:          0  iACCESS:          0  iHIT:          0  iMISS:          0  dACCESS:          0  dHIT:          0  dMISS:          0  itACCESS:          0  itHIT:          0  itMISS:          0  dtACCESS:          0  dtHIT:          0  dtMISS:          0
cpu0_L1D PREFETCH     ACCESS:   13831089  HIT:   11612644  MISS:    2218445  iACCESS:          0  iHIT:          0  iMISS:          0  dACCESS:   13831089  dHIT:   11612644  dMISS:    2218445  itACCESS:          0  itHIT:          0  itMISS:          0  dtACCESS:          0  dtHIT:          0  dtMISS:          0
cpu0_L1D WRITE        ACCESS:   10136961  HIT:    9578908  MISS:     558053  iACCESS:          0  iHIT:          0  iMISS:          0  dACCESS:   10136961  dHIT:    9578908  dMISS:     558053  itACCESS:          0  itHIT:          0  itMISS:          0  dtACCESS:          0  dtHIT:          0  dtMISS:          0
cpu0_L1D TRANSLATION  ACCESS:     543455  HIT:      35015  MISS:     508440  iACCESS:          0  iHIT:          0  iMISS:          0  dACCESS:          0  dHIT:          0  dMISS:          0  itACCESS:     120735  itHIT:      14716  itMISS:     106019  dtACCESS:     422720  dtHIT:      20299  dtMISS:     402421
cpu0_L1D PREFETCH  REQUESTED:   20111834  ISSUED:   18380865  CROSSED:          0  USEFUL:     358288  USELESS:     933545
cpu0_L1D AVERAGE iMISS LATENCY: 0 cycles
cpu0_L1D AVERAGE dMISS LATENCY: 50.9438 cycles
cpu0_L1D AVERAGE itMISS LATENCY: 2.15265 cycles
cpu0_L1D AVERAGE dtMISS LATENCY: 6.97603 cycles
cpu0_L1D PAGE CROSSINGS (TLB HIT):         0 
cpu0_L1D PAGE CROSSINGS (TLB MISS):         0 
cpu0_L1D AVERAGE MISS LATENCY: 60.0724 cycles
cpu0_L2C TOTAL       ACCESS:    8544456  HIT:    1533805  MISS:    7010651  iACCESS:    3747039  iHIT:     805743  iMISS:    2941296  dACCESS:    4315631  dHIT:     529872  dMISS:    3785759  itACCESS:     105782  itHIT:      36081  itMISS:      69701  dtACCESS:     376004  dtHIT:     162109  dtMISS:     213895
cpu0_L2C LOAD         ACCESS:    2044006  HIT:     205143  MISS:    1838863  iACCESS:     837477  iHIT:     112772  iMISS:     724705  dACCESS:    1206529  dHIT:      92371  dMISS:    1114158  itACCESS:          0  itHIT:          0  itMISS:          0  dtACCESS:          0  dtHIT:          0  dtMISS:          0
cpu0_L2C RFO          ACCESS:     210019  HIT:      26647  MISS:     183372  iACCESS:          0  iHIT:          0  iMISS:          0  dACCESS:     210019  dHIT:      26647  dMISS:     183372  itACCESS:          0  itHIT:          0  itMISS:          0  dtACCESS:          0  dtHIT:          0  dtMISS:          0
cpu0_L2C PREFETCH     ACCESS:    5463263  HIT:    1001634  MISS:    4461629  iACCESS:    2909562  iHIT:     692971  iMISS:    2216591  dACCESS:    2553701  dHIT:     308663  dMISS:    2245038  itACCESS:          0  itHIT:          0  itMISS:          0  dtACCESS:          0  dtHIT:          0  dtMISS:          0
cpu0_L2C WRITE        ACCESS:     345382  HIT:     102191  MISS:     243191  iACCESS:          0  iHIT:          0  iMISS:          0  dACCESS:     345382  dHIT:     102191  dMISS:     243191  itACCESS:          0  itHIT:          0  itMISS:          0  dtACCESS:          0  dtHIT:          0  dtMISS:          0
cpu0_L2C TRANSLATION  ACCESS:     481786  HIT:     198190  MISS:     283596  iACCESS:          0  iHIT:          0  iMISS:          0  dACCESS:          0  dHIT:          0  dMISS:          0  itACCESS:     105782  itHIT:      36081  itMISS:      69701  dtACCESS:     376004  dtHIT:     162109  dtMISS:     213895
cpu0_L2C PREFETCH  REQUESTED:    1506377  ISSUED:    1506373  CROSSED:          0  USEFUL:     413501  USELESS:     481795
cpu0_L2C AVERAGE iMISS LATENCY: 25.8884 cycles
cpu0_L2C AVERAGE dMISS LATENCY: 49.338 cycles
cpu0_L2C AVERAGE itMISS LATENCY: 1.55132 cycles
cpu0_L2C AVERAGE dtMISS LATENCY: 4.98516 cycles
cpu0_L2C PAGE CROSSINGS (TLB HIT):         0 
cpu0_L2C PAGE CROSSINGS (TLB MISS):         0 
cpu0_L2C AVERAGE MISS LATENCY: 81.7628 cycles
LLC TOTAL       ACCESS:    6834406  HIT:    4238080  MISS:    2596326  iACCESS:    2849283  iHIT:    2046820  iMISS:     802463  dACCESS:    3701527  dHIT:    2123004  dMISS:    1578523  itACCESS:      69701  itHIT:      16511  itMISS:      53190  dtACCESS:     213895  dtHIT:      51745  dtMISS:     162150
LLC LOAD         ACCESS:    1833140  HIT:    1205317  MISS:     627823  iACCESS:     723308  iHIT:     554962  iMISS:     168346  dACCESS:    1109832  dHIT:     650355  dMISS:     459477  itACCESS:          0  itHIT:          0  itMISS:          0  dtACCESS:          0  dtHIT:          0  dtMISS:          0
LLC RFO          ACCESS:     183336  HIT:      96811  MISS:      86525  iACCESS:          0  iHIT:          0  iMISS:          0  dACCESS:     183336  dHIT:      96811  dMISS:      86525  itACCESS:          0  itHIT:          0  itMISS:          0  dtACCESS:          0  dtHIT:          0  dtMISS:          0
LLC PREFETCH     ACCESS:    4255667  HIT:    2595390  MISS:    1660277  iACCESS:    2125975  iHIT:    1491858  iMISS:     634117  dACCESS:    2129692  dHIT:    1103532  dMISS:    1026160  itACCESS:          0  itHIT:          0  itMISS:          0  dtACCESS:          0  dtHIT:          0  dtMISS:          0
LLC WRITE        ACCESS:     278667  HIT:     272306  MISS:       6361  iACCESS:          0  iHIT:          0  iMISS:          0  dACCESS:     278667  dHIT:     272306  dMISS:       6361  itACCESS:          0  itHIT:          0  itMISS:          0  dtACCESS:          0  dtHIT:          0  dtMISS:          0
LLC TRANSLATION  ACCESS:     283596  HIT:      68256  MISS:     215340  iACCESS:          0  iHIT:          0  iMISS:          0  dACCESS:          0  dHIT:          0  dMISS:          0  itACCESS:      69701  itHIT:      16511  itMISS:      53190  dtACCESS:     213895  dtHIT:      51745  dtMISS:     162150
LLC PREFETCH  REQUESTED:          0  ISSUED:          0  CROSSED:          0  USEFUL:          0  USELESS:          0
LLC AVERAGE iMISS LATENCY: 48.5953 cycles
LLC AVERAGE dMISS LATENCY: 108.384 cycles
LLC AVERAGE itMISS LATENCY: 3.66012 cycles
LLC AVERAGE dtMISS LATENCY: 11.8387 cycles
LLC PAGE CROSSINGS (TLB HIT):         0 
LLC PAGE CROSSINGS (TLB MISS):         0 
LLC AVERAGE MISS LATENCY: 172.478 cycles

PageTableWalker TOTAL       ACCESS:     185587  
PageTableWalker AVERAGE LATENCY: 5.91899 cycles
PageTableWalker TOTAL LATENCY: 1098487 cycles

DRAM Statistics
Channel 0
 RQ ROW_BUFFER_HIT:     577126
  ROW_BUFFER_MISS:    2001438
 AVG DBUS CONGESTED CYCLE:    3.65199
 WQ ROW_BUFFER_HIT:      65114
  ROW_BUFFER_MISS:      64107  FULL:          0

