last_page:0x200000000000000
VMEM_RES_CAP:0x100000
PAGE_SIZE:4096
LOG2_PAGE_SIZE:12
LOG2_PAGE_TABLE_SIZE:9
page_table_levels:5
WARNING: physical memory size is smaller than virtual memory size
FDiP enabled with aggresivity 16

*** ChampSim Multicore Out-of-Order Simulator ***

Warmup Instructions: 50000000
Simulation Instructions: 100000000
Number of CPUs: 1
Small page size: 4096
Large page size: 2097152

CPU 0 Bimodal branch predictor
Basic BTB sets: 1024 ways: 8 indirect buffer size: 4096 RAS size: 64
Instruction page size distrubution: 0
Loading instruction page size distribution from /home/bsc/bsc018186/scratch/itp_asplos25_AE/dump/smt_srv12_ap_srv73_ap_1024i.pdst
Data page size distrubution: 0
Loading data page size distribution from /home/bsc/bsc018186/scratch/itp_asplos25_AE/dump/smt_srv12_ap_srv73_ap_1024i.pdst
cpu0_L2C IP-based stride prefetcher
cpu0_L1D next line prefetcher
CHiRPing...
cpu0_L1I next line prefetcher
Off-chip DRAM Size: 4 GiB Channels: 1 Width: 64-bit Data Rate: 3200 MT/s
Heartbeat CPU 0 instructions: 10000003 cycles: 2500630 heartbeat IPC: 3.999 cumulative IPC: 3.999 (Simulation time: 0 hr 0 min 40 sec) 
Heartbeat CPU 0 instructions: 20000003 cycles: 5001174 heartbeat IPC: 3.99913 cumulative IPC: 3.99907 (Simulation time: 0 hr 1 min 22 sec) 
Heartbeat CPU 0 instructions: 30000002 cycles: 7501874 heartbeat IPC: 3.99888 cumulative IPC: 3.99901 (Simulation time: 0 hr 2 min 6 sec) 
Heartbeat CPU 0 instructions: 40000000 cycles: 10002243 heartbeat IPC: 3.99941 cumulative IPC: 3.99911 (Simulation time: 0 hr 2 min 48 sec) 
Heartbeat CPU 0 instructions: 50000002 cycles: 12503370 heartbeat IPC: 3.9982 cumulative IPC: 3.99893 (Simulation time: 0 hr 3 min 32 sec) 
Warmup finished CPU 0 instructions: 50000002 cycles: 12503371 cumulative IPC: 3.99893 (Simulation time: 0 hr 3 min 32 sec) 

Warmup complete CPU 0 instructions: 50000002 cycles: 12503371 (Simulation time: 0 hr 3 min 32 sec) 

Heartbeat CPU 0 instructions: 60000001 cycles: 37037152 heartbeat IPC: 0.407602 cumulative IPC: 0.407602 (Simulation time: 0 hr 4 min 51 sec) 
Heartbeat CPU 0 instructions: 70000003 cycles: 59221665 heartbeat IPC: 0.450765 cumulative IPC: 0.428098 (Simulation time: 0 hr 6 min 7 sec) 
Heartbeat CPU 0 instructions: 80000001 cycles: 82486185 heartbeat IPC: 0.429839 cumulative IPC: 0.428677 (Simulation time: 0 hr 7 min 23 sec) 
Heartbeat CPU 0 instructions: 90000000 cycles: 109123747 heartbeat IPC: 0.37541 cumulative IPC: 0.413992 (Simulation time: 0 hr 8 min 44 sec) 
Heartbeat CPU 0 instructions: 100000000 cycles: 138563922 heartbeat IPC: 0.339672 cumulative IPC: 0.396635 (Simulation time: 0 hr 10 min 11 sec) 
Heartbeat CPU 0 instructions: 110000002 cycles: 168392612 heartbeat IPC: 0.335248 cumulative IPC: 0.384889 (Simulation time: 0 hr 11 min 39 sec) 
Heartbeat CPU 0 instructions: 120000001 cycles: 196164128 heartbeat IPC: 0.360082 cumulative IPC: 0.381138 (Simulation time: 0 hr 13 min 5 sec) 
Heartbeat CPU 0 instructions: 130000004 cycles: 214335333 heartbeat IPC: 0.550322 cumulative IPC: 0.39637 (Simulation time: 0 hr 14 min 21 sec) 
Heartbeat CPU 0 instructions: 140000000 cycles: 235324085 heartbeat IPC: 0.476446 cumulative IPC: 0.403913 (Simulation time: 0 hr 15 min 40 sec) 
Heartbeat CPU 0 instructions: 150000002 cycles: 263986002 heartbeat IPC: 0.348896 cumulative IPC: 0.397642 (Simulation time: 0 hr 17 min 6 sec) 
Simulation finished CPU 0 instructions: 100000000 cycles: 251482632 cumulative IPC: 0.397642 (Simulation time: 0 hr 17 min 6 sec) 

Simulation complete CPU 0 instructions: 100000000 cycles: 251482632 (Simulation time: 0 hr 17 min 6 sec) 


ChampSim completed all CPUs

Saving instructions large page distribution to /home/bsc/bsc018186/scratch/itp_asplos25_AE/dump/smt_srv12_ap_srv73_ap_1024i.pdst...
Saving data large page distribution to /home/bsc/bsc018186/scratch/itp_asplos25_AE/dump/smt_srv12_ap_srv73_ap_1024i.pdst...
=== Simulation ===
CPU 0 runs /gpfs/projects/bsc18/MN4/bsc18/romol/ChampSim/traces/qualcomm_srv/smt_srv12_ap_srv73_ap_1024i.champsimtrace.xz

Region of Interest Statistics

CPU 0 cumulative IPC: 0.397642 instructions: 100000000 cycles: 251482632
CPU 0 Branch Prediction Accuracy: 77.5128% MPKI: 43.838 Average ROB Occupancy at Mispredict: 10.8389
Branch type MPKI
BRANCH_DIRECT_JUMP: 1.16919
BRANCH_INDIRECT: 23.1063
BRANCH_CONDITIONAL: 12.637
BRANCH_DIRECT_CALL: 2.15755
BRANCH_INDIRECT_CALL: 1.79688
BRANCH_RETURN: 2.97122

Instructions large pages: 0
Instructions small pages: 12334
Large page distribution for instructions: 0%

Data large pages: 0
Data small pages: 10484
Large page distribution for data: 0%

cpu0_L1I TOTAL       ACCESS:   38510706  HIT:   31056862  MISS:    7453844  iACCESS:   38510706  iHIT:   31056862  iMISS:    7453844  dACCESS:          0  dHIT:          0  dMISS:          0  itACCESS:          0  itHIT:          0  itMISS:          0  dtACCESS:          0  dtHIT:          0  dtMISS:          0
cpu0_L1I LOAD         ACCESS:   10613991  HIT:    8580777  MISS:    2033214  iACCESS:   10613991  iHIT:    8580777  iMISS:    2033214  dACCESS:          0  dHIT:          0  dMISS:          0  itACCESS:          0  itHIT:          0  itMISS:          0  dtACCESS:          0  dtHIT:          0  dtMISS:          0
cpu0_L1I RFO          ACCESS:          0  HIT:          0  MISS:          0  iACCESS:          0  iHIT:          0  iMISS:          0  dACCESS:          0  dHIT:          0  dMISS:          0  itACCESS:          0  itHIT:          0  itMISS:          0  dtACCESS:          0  dtHIT:          0  dtMISS:          0
cpu0_L1I PREFETCH     ACCESS:   27896715  HIT:   22476085  MISS:    5420630  iACCESS:   27896715  iHIT:   22476085  iMISS:    5420630  dACCESS:          0  dHIT:          0  dMISS:          0  itACCESS:          0  itHIT:          0  itMISS:          0  dtACCESS:          0  dtHIT:          0  dtMISS:          0
cpu0_L1I WRITE        ACCESS:          0  HIT:          0  MISS:          0  iACCESS:          0  iHIT:          0  iMISS:          0  dACCESS:          0  dHIT:          0  dMISS:          0  itACCESS:          0  itHIT:          0  itMISS:          0  dtACCESS:          0  dtHIT:          0  dtMISS:          0
cpu0_L1I TRANSLATION  ACCESS:          0  HIT:          0  MISS:          0  iACCESS:          0  iHIT:          0  iMISS:          0  dACCESS:          0  dHIT:          0  dMISS:          0  itACCESS:          0  itHIT:          0  itMISS:          0  dtACCESS:          0  dtHIT:          0  dtMISS:          0
cpu0_L1I PREFETCH  REQUESTED:   30154388  ISSUED:   30153422  CROSSED:          0  USEFUL:    1800731  USELESS:     650089
cpu0_L1I AVERAGE iMISS LATENCY: 24.8206 cycles
cpu0_L1I AVERAGE dMISS LATENCY: 0 cycles
cpu0_L1I AVERAGE itMISS LATENCY: 0 cycles
cpu0_L1I AVERAGE dtMISS LATENCY: 0 cycles
cpu0_L1I PAGE CROSSINGS (TLB HIT):         0 
cpu0_L1I PAGE CROSSINGS (TLB MISS):         0 
cpu0_L1I AVERAGE MISS LATENCY: 24.8206 cycles
cpu0_ITLB TOTAL       ACCESS:   32486107  HIT:   30649567  MISS:    1836540  iACCESS:   32486107  iHIT:   30649567  iMISS:    1836540  dACCESS:          0  dHIT:          0  dMISS:          0  itACCESS:          0  itHIT:          0  itMISS:          0  dtACCESS:          0  dtHIT:          0  dtMISS:          0
cpu0_ITLB LOAD         ACCESS:   32486107  HIT:   30649567  MISS:    1836540  iACCESS:   32486107  iHIT:   30649567  iMISS:    1836540  dACCESS:          0  dHIT:          0  dMISS:          0  itACCESS:          0  itHIT:          0  itMISS:          0  dtACCESS:          0  dtHIT:          0  dtMISS:          0
cpu0_ITLB RFO          ACCESS:          0  HIT:          0  MISS:          0  iACCESS:          0  iHIT:          0  iMISS:          0  dACCESS:          0  dHIT:          0  dMISS:          0  itACCESS:          0  itHIT:          0  itMISS:          0  dtACCESS:          0  dtHIT:          0  dtMISS:          0
cpu0_ITLB PREFETCH     ACCESS:          0  HIT:          0  MISS:          0  iACCESS:          0  iHIT:          0  iMISS:          0  dACCESS:          0  dHIT:          0  dMISS:          0  itACCESS:          0  itHIT:          0  itMISS:          0  dtACCESS:          0  dtHIT:          0  dtMISS:          0
cpu0_ITLB WRITE        ACCESS:          0  HIT:          0  MISS:          0  iACCESS:          0  iHIT:          0  iMISS:          0  dACCESS:          0  dHIT:          0  dMISS:          0  itACCESS:          0  itHIT:          0  itMISS:          0  dtACCESS:          0  dtHIT:          0  dtMISS:          0
cpu0_ITLB TRANSLATION  ACCESS:          0  HIT:          0  MISS:          0  iACCESS:          0  iHIT:          0  iMISS:          0  dACCESS:          0  dHIT:          0  dMISS:          0  itACCESS:          0  itHIT:          0  itMISS:          0  dtACCESS:          0  dtHIT:          0  dtMISS:          0
cpu0_ITLB PREFETCH  REQUESTED:          0  ISSUED:          0  CROSSED:          0  USEFUL:     329471  USELESS:      67793
cpu0_ITLB AVERAGE iMISS LATENCY: 8.33076 cycles
cpu0_ITLB AVERAGE dMISS LATENCY: 0 cycles
cpu0_ITLB AVERAGE itMISS LATENCY: 0 cycles
cpu0_ITLB AVERAGE dtMISS LATENCY: 0 cycles
cpu0_ITLB PAGE CROSSINGS (TLB HIT):         0 
cpu0_ITLB PAGE CROSSINGS (TLB MISS):         0 
cpu0_ITLB AVERAGE MISS LATENCY: 8.33076 cycles
cpu0_DTLB TOTAL       ACCESS:   31383384  HIT:   26163042  MISS:    5220342  iACCESS:          0  iHIT:          0  iMISS:          0  dACCESS:   31383384  dHIT:   26163042  dMISS:    5220342  itACCESS:          0  itHIT:          0  itMISS:          0  dtACCESS:          0  dtHIT:          0  dtMISS:          0
cpu0_DTLB LOAD         ACCESS:   31383384  HIT:   26163042  MISS:    5220342  iACCESS:          0  iHIT:          0  iMISS:          0  dACCESS:   31383384  dHIT:   26163042  dMISS:    5220342  itACCESS:          0  itHIT:          0  itMISS:          0  dtACCESS:          0  dtHIT:          0  dtMISS:          0
cpu0_DTLB RFO          ACCESS:          0  HIT:          0  MISS:          0  iACCESS:          0  iHIT:          0  iMISS:          0  dACCESS:          0  dHIT:          0  dMISS:          0  itACCESS:          0  itHIT:          0  itMISS:          0  dtACCESS:          0  dtHIT:          0  dtMISS:          0
cpu0_DTLB PREFETCH     ACCESS:          0  HIT:          0  MISS:          0  iACCESS:          0  iHIT:          0  iMISS:          0  dACCESS:          0  dHIT:          0  dMISS:          0  itACCESS:          0  itHIT:          0  itMISS:          0  dtACCESS:          0  dtHIT:          0  dtMISS:          0
cpu0_DTLB WRITE        ACCESS:          0  HIT:          0  MISS:          0  iACCESS:          0  iHIT:          0  iMISS:          0  dACCESS:          0  dHIT:          0  dMISS:          0  itACCESS:          0  itHIT:          0  itMISS:          0  dtACCESS:          0  dtHIT:          0  dtMISS:          0
cpu0_DTLB TRANSLATION  ACCESS:          0  HIT:          0  MISS:          0  iACCESS:          0  iHIT:          0  iMISS:          0  dACCESS:          0  dHIT:          0  dMISS:          0  itACCESS:          0  itHIT:          0  itMISS:          0  dtACCESS:          0  dtHIT:          0  dtMISS:          0
cpu0_DTLB PREFETCH  REQUESTED:          0  ISSUED:          0  CROSSED:          0  USEFUL:          0  USELESS:          0
cpu0_DTLB AVERAGE iMISS LATENCY: 0 cycles
cpu0_DTLB AVERAGE dMISS LATENCY: 11.0878 cycles
cpu0_DTLB AVERAGE itMISS LATENCY: 0 cycles
cpu0_DTLB AVERAGE dtMISS LATENCY: 0 cycles
cpu0_DTLB PAGE CROSSINGS (TLB HIT):         0 
cpu0_DTLB PAGE CROSSINGS (TLB MISS):         0 
cpu0_DTLB AVERAGE MISS LATENCY: 11.0878 cycles
cpu0_STLB TOTAL       ACCESS:    3221900  HIT:    2935166  MISS:     286734  iACCESS:     397274  iHIT:     303672  iMISS:      93602  dACCESS:    2824626  dHIT:    2631494  dMISS:     193132  itACCESS:          0  itHIT:          0  itMISS:          0  dtACCESS:          0  dtHIT:          0  dtMISS:          0
cpu0_STLB LOAD         ACCESS:    3221900  HIT:    2935166  MISS:     286734  iACCESS:     397274  iHIT:     303672  iMISS:      93602  dACCESS:    2824626  dHIT:    2631494  dMISS:     193132  itACCESS:          0  itHIT:          0  itMISS:          0  dtACCESS:          0  dtHIT:          0  dtMISS:          0
cpu0_STLB RFO          ACCESS:          0  HIT:          0  MISS:          0  iACCESS:          0  iHIT:          0  iMISS:          0  dACCESS:          0  dHIT:          0  dMISS:          0  itACCESS:          0  itHIT:          0  itMISS:          0  dtACCESS:          0  dtHIT:          0  dtMISS:          0
cpu0_STLB PREFETCH     ACCESS:          0  HIT:          0  MISS:          0  iACCESS:          0  iHIT:          0  iMISS:          0  dACCESS:          0  dHIT:          0  dMISS:          0  itACCESS:          0  itHIT:          0  itMISS:          0  dtACCESS:          0  dtHIT:          0  dtMISS:          0
cpu0_STLB WRITE        ACCESS:          0  HIT:          0  MISS:          0  iACCESS:          0  iHIT:          0  iMISS:          0  dACCESS:          0  dHIT:          0  dMISS:          0  itACCESS:          0  itHIT:          0  itMISS:          0  dtACCESS:          0  dtHIT:          0  dtMISS:          0
cpu0_STLB TRANSLATION  ACCESS:          0  HIT:          0  MISS:          0  iACCESS:          0  iHIT:          0  iMISS:          0  dACCESS:          0  dHIT:          0  dMISS:          0  itACCESS:          0  itHIT:          0  itMISS:          0  dtACCESS:          0  dtHIT:          0  dtMISS:          0
cpu0_STLB PREFETCH  REQUESTED:          0  ISSUED:          0  CROSSED:          0  USEFUL:          0  USELESS:          0
cpu0_STLB AVERAGE iMISS LATENCY: 42.2998 cycles
cpu0_STLB AVERAGE dMISS LATENCY: 122.341 cycles
cpu0_STLB AVERAGE itMISS LATENCY: 0 cycles
cpu0_STLB AVERAGE dtMISS LATENCY: 0 cycles
cpu0_STLB PAGE CROSSINGS (TLB HIT):         0 
cpu0_STLB PAGE CROSSINGS (TLB MISS):         0 
cpu0_STLB AVERAGE MISS LATENCY: 164.641 cycles
cpu0_L1D TOTAL       ACCESS:   50500231  HIT:   40931133  MISS:    9569098  iACCESS:          0  iHIT:          0  iMISS:          0  dACCESS:   50026368  dHIT:   40907712  dMISS:    9118656  itACCESS:     111709  itHIT:      10264  itMISS:     101445  dtACCESS:     362154  dtHIT:      13157  dtMISS:     348997
cpu0_L1D LOAD         ACCESS:   24195717  HIT:   19416434  MISS:    4779283  iACCESS:          0  iHIT:          0  iMISS:          0  dACCESS:   24195717  dHIT:   19416434  dMISS:    4779283  itACCESS:          0  itHIT:          0  itMISS:          0  dtACCESS:          0  dtHIT:          0  dtMISS:          0
cpu0_L1D RFO          ACCESS:          0  HIT:          0  MISS:          0  iACCESS:          0  iHIT:          0  iMISS:          0  dACCESS:          0  dHIT:          0  dMISS:          0  itACCESS:          0  itHIT:          0  itMISS:          0  dtACCESS:          0  dtHIT:          0  dtMISS:          0
cpu0_L1D PREFETCH     ACCESS:   15965753  HIT:   12420423  MISS:    3545330  iACCESS:          0  iHIT:          0  iMISS:          0  dACCESS:   15965753  dHIT:   12420423  dMISS:    3545330  itACCESS:          0  itHIT:          0  itMISS:          0  dtACCESS:          0  dtHIT:          0  dtMISS:          0
cpu0_L1D WRITE        ACCESS:    9864898  HIT:    9070855  MISS:     794043  iACCESS:          0  iHIT:          0  iMISS:          0  dACCESS:    9864898  dHIT:    9070855  dMISS:     794043  itACCESS:          0  itHIT:          0  itMISS:          0  dtACCESS:          0  dtHIT:          0  dtMISS:          0
cpu0_L1D TRANSLATION  ACCESS:     473863  HIT:      23421  MISS:     450442  iACCESS:          0  iHIT:          0  iMISS:          0  dACCESS:          0  dHIT:          0  dMISS:          0  itACCESS:     111709  itHIT:      10264  itMISS:     101445  dtACCESS:     362154  dtHIT:      13157  dtMISS:     348997
cpu0_L1D PREFETCH  REQUESTED:   24195717  ISSUED:   19877659  CROSSED:          0  USEFUL:     343309  USELESS:    1051722
cpu0_L1D AVERAGE iMISS LATENCY: 0 cycles
cpu0_L1D AVERAGE dMISS LATENCY: 30.7082 cycles
cpu0_L1D AVERAGE itMISS LATENCY: 1.16859 cycles
cpu0_L1D AVERAGE dtMISS LATENCY: 3.26548 cycles
cpu0_L1D PAGE CROSSINGS (TLB HIT):         0 
cpu0_L1D PAGE CROSSINGS (TLB MISS):         0 
cpu0_L1D AVERAGE MISS LATENCY: 35.1423 cycles
cpu0_L2C TOTAL       ACCESS:    9102170  HIT:    1911275  MISS:    7190895  iACCESS:    3113498  iHIT:     681207  iMISS:    2432291  dACCESS:    5621346  dHIT:    1097048  dMISS:    4524298  itACCESS:      94355  itHIT:      30003  itMISS:      64352  dtACCESS:     272971  dtHIT:     103017  dtMISS:     169954
cpu0_L2C LOAD         ACCESS:    3298118  HIT:     683674  MISS:    2614444  iACCESS:     689515  iHIT:     105562  iMISS:     583953  dACCESS:    2608603  dHIT:     578112  dMISS:    2030491  itACCESS:          0  itHIT:          0  itMISS:          0  dtACCESS:          0  dtHIT:          0  dtMISS:          0
cpu0_L2C RFO          ACCESS:     239724  HIT:      50220  MISS:     189504  iACCESS:          0  iHIT:          0  iMISS:          0  dACCESS:     239724  dHIT:      50220  dMISS:     189504  itACCESS:          0  itHIT:          0  itMISS:          0  dtACCESS:          0  dtHIT:          0  dtMISS:          0
cpu0_L2C PREFETCH     ACCESS:    4867317  HIT:     933251  MISS:    3934066  iACCESS:    2423983  iHIT:     575645  iMISS:    1848338  dACCESS:    2443334  dHIT:     357606  dMISS:    2085728  itACCESS:          0  itHIT:          0  itMISS:          0  dtACCESS:          0  dtHIT:          0  dtMISS:          0
cpu0_L2C WRITE        ACCESS:     329685  HIT:     111110  MISS:     218575  iACCESS:          0  iHIT:          0  iMISS:          0  dACCESS:     329685  dHIT:     111110  dMISS:     218575  itACCESS:          0  itHIT:          0  itMISS:          0  dtACCESS:          0  dtHIT:          0  dtMISS:          0
cpu0_L2C TRANSLATION  ACCESS:     367326  HIT:     133020  MISS:     234306  iACCESS:          0  iHIT:          0  iMISS:          0  dACCESS:          0  dHIT:          0  dMISS:          0  itACCESS:      94355  itHIT:      30003  itMISS:      64352  dtACCESS:     272971  dtHIT:     103017  dtMISS:     169954
cpu0_L2C PREFETCH  REQUESTED:    1230156  ISSUED:    1230156  CROSSED:          0  USEFUL:     320594  USELESS:     399442
cpu0_L2C AVERAGE iMISS LATENCY: 22.0223 cycles
cpu0_L2C AVERAGE dMISS LATENCY: 45.5098 cycles
cpu0_L2C AVERAGE itMISS LATENCY: 1.4277 cycles
cpu0_L2C AVERAGE dtMISS LATENCY: 3.97859 cycles
cpu0_L2C PAGE CROSSINGS (TLB HIT):         0 
cpu0_L2C PAGE CROSSINGS (TLB MISS):         0 
cpu0_L2C AVERAGE MISS LATENCY: 72.9384 cycles
LLC TOTAL       ACCESS:    7032124  HIT:    4748698  MISS:    2283426  iACCESS:    2361148  iHIT:    1646419  iMISS:     714729  dACCESS:    4436670  dHIT:    3048627  dMISS:    1388043  itACCESS:      64352  itHIT:      13938  itMISS:      50414  dtACCESS:     169954  dtHIT:      39714  dtMISS:     130240
LLC LOAD         ACCESS:    2608085  HIT:    2054983  MISS:     553102  iACCESS:     582853  iHIT:     435879  iMISS:     146974  dACCESS:    2025232  dHIT:    1619104  dMISS:     406128  itACCESS:          0  itHIT:          0  itMISS:          0  dtACCESS:          0  dtHIT:          0  dtMISS:          0
LLC RFO          ACCESS:     189474  HIT:      95999  MISS:      93475  iACCESS:          0  iHIT:          0  iMISS:          0  dACCESS:     189474  dHIT:      95999  dMISS:      93475  itACCESS:          0  itHIT:          0  itMISS:          0  dtACCESS:          0  dtHIT:          0  dtMISS:          0
LLC PREFETCH     ACCESS:    3749757  HIT:    2300246  MISS:    1449511  iACCESS:    1778294  iHIT:    1210539  iMISS:     567755  dACCESS:    1971463  dHIT:    1089707  dMISS:     881756  itACCESS:          0  itHIT:          0  itMISS:          0  dtACCESS:          0  dtHIT:          0  dtMISS:          0
LLC WRITE        ACCESS:     250502  HIT:     243818  MISS:       6684  iACCESS:          1  iHIT:          1  iMISS:          0  dACCESS:     250501  dHIT:     243817  dMISS:       6684  itACCESS:          0  itHIT:          0  itMISS:          0  dtACCESS:          0  dtHIT:          0  dtMISS:          0
LLC TRANSLATION  ACCESS:     234306  HIT:      53652  MISS:     180654  iACCESS:          0  iHIT:          0  iMISS:          0  dACCESS:          0  dHIT:          0  dMISS:          0  itACCESS:      64352  itHIT:      13938  itMISS:      50414  dtACCESS:     169954  dtHIT:      39714  dtMISS:     130240
LLC PREFETCH  REQUESTED:          0  ISSUED:          0  CROSSED:          0  USEFUL:          0  USELESS:          0
LLC AVERAGE iMISS LATENCY: 49.2631 cycles
LLC AVERAGE dMISS LATENCY: 108.522 cycles
LLC AVERAGE itMISS LATENCY: 3.9404 cycles
LLC AVERAGE dtMISS LATENCY: 11.064 cycles
LLC PAGE CROSSINGS (TLB HIT):         0 
LLC PAGE CROSSINGS (TLB MISS):         0 
LLC AVERAGE MISS LATENCY: 172.789 cycles

PageTableWalker TOTAL       ACCESS:     180928  
PageTableWalker AVERAGE LATENCY: 5.98075 cycles
PageTableWalker TOTAL LATENCY: 1082085 cycles

DRAM Statistics
Channel 0
 RQ ROW_BUFFER_HIT:     506296
  ROW_BUFFER_MISS:    1756764
 AVG DBUS CONGESTED CYCLE:    3.65764
 WQ ROW_BUFFER_HIT:      57542
  ROW_BUFFER_MISS:      57006  FULL:          0

