last_page:0x200000000000000
VMEM_RES_CAP:0x100000
PAGE_SIZE:4096
LOG2_PAGE_SIZE:12
LOG2_PAGE_TABLE_SIZE:9
page_table_levels:5
WARNING: physical memory size is smaller than virtual memory size
FDiP enabled with aggresivity 16

*** ChampSim Multicore Out-of-Order Simulator ***

Warmup Instructions: 50000000
Simulation Instructions: 100000000
Number of CPUs: 1
Small page size: 4096
Large page size: 2097152

CPU 0 Bimodal branch predictor
Basic BTB sets: 1024 ways: 8 indirect buffer size: 4096 RAS size: 64
Instruction page size distrubution: 0
Loading instruction page size distribution from /home/bsc/bsc018186/scratch/itp_asplos25_AE/dump/smt_srv85_ap_srv495_ap_1024i.pdst
Data page size distrubution: 0
Loading data page size distribution from /home/bsc/bsc018186/scratch/itp_asplos25_AE/dump/smt_srv85_ap_srv495_ap_1024i.pdst
cpu0_L2C IP-based stride prefetcher
cpu0_L1D next line prefetcher
cpu0_L1I next line prefetcher
Off-chip DRAM Size: 4 GiB Channels: 1 Width: 64-bit Data Rate: 3200 MT/s
Heartbeat CPU 0 instructions: 10000003 cycles: 2500445 heartbeat IPC: 3.99929 cumulative IPC: 3.99929 (Simulation time: 0 hr 0 min 43 sec) 
Heartbeat CPU 0 instructions: 20000002 cycles: 5000746 heartbeat IPC: 3.99952 cumulative IPC: 3.99941 (Simulation time: 0 hr 1 min 26 sec) 
Heartbeat CPU 0 instructions: 30000000 cycles: 7501036 heartbeat IPC: 3.99954 cumulative IPC: 3.99945 (Simulation time: 0 hr 2 min 11 sec) 
Heartbeat CPU 0 instructions: 40000003 cycles: 10001614 heartbeat IPC: 3.99908 cumulative IPC: 3.99936 (Simulation time: 0 hr 2 min 56 sec) 
Heartbeat CPU 0 instructions: 50000001 cycles: 12501868 heartbeat IPC: 3.9996 cumulative IPC: 3.99941 (Simulation time: 0 hr 3 min 42 sec) 
Warmup finished CPU 0 instructions: 50000001 cycles: 12501869 cumulative IPC: 3.99941 (Simulation time: 0 hr 3 min 42 sec) 

Warmup complete CPU 0 instructions: 50000001 cycles: 12501869 (Simulation time: 0 hr 3 min 42 sec) 

Heartbeat CPU 0 instructions: 60000001 cycles: 41336611 heartbeat IPC: 0.346804 cumulative IPC: 0.346804 (Simulation time: 0 hr 5 min 14 sec) 
Heartbeat CPU 0 instructions: 70000003 cycles: 70188943 heartbeat IPC: 0.346593 cumulative IPC: 0.346699 (Simulation time: 0 hr 6 min 43 sec) 
Heartbeat CPU 0 instructions: 80000000 cycles: 99258438 heartbeat IPC: 0.344004 cumulative IPC: 0.345796 (Simulation time: 0 hr 8 min 12 sec) 
Heartbeat CPU 0 instructions: 90000002 cycles: 128254873 heartbeat IPC: 0.344871 cumulative IPC: 0.345564 (Simulation time: 0 hr 9 min 40 sec) 
Heartbeat CPU 0 instructions: 100000000 cycles: 156580608 heartbeat IPC: 0.353036 cumulative IPC: 0.347033 (Simulation time: 0 hr 11 min 7 sec) 
Heartbeat CPU 0 instructions: 110000000 cycles: 185514522 heartbeat IPC: 0.345616 cumulative IPC: 0.346796 (Simulation time: 0 hr 12 min 35 sec) 
Heartbeat CPU 0 instructions: 120000000 cycles: 213501509 heartbeat IPC: 0.357309 cumulative IPC: 0.34826 (Simulation time: 0 hr 14 min 1 sec) 
Heartbeat CPU 0 instructions: 130000002 cycles: 242074121 heartbeat IPC: 0.349986 cumulative IPC: 0.348475 (Simulation time: 0 hr 15 min 28 sec) 
Heartbeat CPU 0 instructions: 140000004 cycles: 270355127 heartbeat IPC: 0.353595 cumulative IPC: 0.349036 (Simulation time: 0 hr 16 min 55 sec) 
Heartbeat CPU 0 instructions: 150000000 cycles: 298695679 heartbeat IPC: 0.352852 cumulative IPC: 0.349414 (Simulation time: 0 hr 18 min 22 sec) 
Simulation finished CPU 0 instructions: 100000004 cycles: 286193812 cumulative IPC: 0.349414 (Simulation time: 0 hr 18 min 22 sec) 

Simulation complete CPU 0 instructions: 100000004 cycles: 286193812 (Simulation time: 0 hr 18 min 22 sec) 


ChampSim completed all CPUs

Saving instructions large page distribution to /home/bsc/bsc018186/scratch/itp_asplos25_AE/dump/smt_srv85_ap_srv495_ap_1024i.pdst...
Saving data large page distribution to /home/bsc/bsc018186/scratch/itp_asplos25_AE/dump/smt_srv85_ap_srv495_ap_1024i.pdst...
=== Simulation ===
CPU 0 runs /gpfs/projects/bsc18/MN4/bsc18/romol/ChampSim/traces/qualcomm_srv/smt_srv85_ap_srv495_ap_1024i.champsimtrace.xz

Region of Interest Statistics

CPU 0 cumulative IPC: 0.349414 instructions: 100000004 cycles: 286193812
CPU 0 Branch Prediction Accuracy: 74.693% MPKI: 45.6057 Average ROB Occupancy at Mispredict: 10.2902
Branch type MPKI
BRANCH_DIRECT_JUMP: 1.43109
BRANCH_INDIRECT: 23.5974
BRANCH_CONDITIONAL: 13.2603
BRANCH_DIRECT_CALL: 2.72313
BRANCH_INDIRECT_CALL: 1.02023
BRANCH_RETURN: 3.57353

Instructions large pages: 0
Instructions small pages: 9904
Large page distribution for instructions: 0%

Data large pages: 0
Data small pages: 8542
Large page distribution for data: 0%

cpu0_L1I TOTAL       ACCESS:   39852811  HIT:   30515534  MISS:    9337277  iACCESS:   39852811  iHIT:   30515534  iMISS:    9337277  dACCESS:          0  dHIT:          0  dMISS:          0  itACCESS:          0  itHIT:          0  itMISS:          0  dtACCESS:          0  dtHIT:          0  dtMISS:          0
cpu0_L1I LOAD         ACCESS:   11923253  HIT:    9395183  MISS:    2528070  iACCESS:   11923253  iHIT:    9395183  iMISS:    2528070  dACCESS:          0  dHIT:          0  dMISS:          0  itACCESS:          0  itHIT:          0  itMISS:          0  dtACCESS:          0  dtHIT:          0  dtMISS:          0
cpu0_L1I RFO          ACCESS:          0  HIT:          0  MISS:          0  iACCESS:          0  iHIT:          0  iMISS:          0  dACCESS:          0  dHIT:          0  dMISS:          0  itACCESS:          0  itHIT:          0  itMISS:          0  dtACCESS:          0  dtHIT:          0  dtMISS:          0
cpu0_L1I PREFETCH     ACCESS:   27929558  HIT:   21120351  MISS:    6809207  iACCESS:   27929558  iHIT:   21120351  iMISS:    6809207  dACCESS:          0  dHIT:          0  dMISS:          0  itACCESS:          0  itHIT:          0  itMISS:          0  dtACCESS:          0  dtHIT:          0  dtMISS:          0
cpu0_L1I WRITE        ACCESS:          0  HIT:          0  MISS:          0  iACCESS:          0  iHIT:          0  iMISS:          0  dACCESS:          0  dHIT:          0  dMISS:          0  itACCESS:          0  itHIT:          0  itMISS:          0  dtACCESS:          0  dtHIT:          0  dtMISS:          0
cpu0_L1I TRANSLATION  ACCESS:          0  HIT:          0  MISS:          0  iACCESS:          0  iHIT:          0  iMISS:          0  dACCESS:          0  dHIT:          0  dMISS:          0  itACCESS:          0  itHIT:          0  itMISS:          0  dtACCESS:          0  dtHIT:          0  dtMISS:          0
cpu0_L1I PREFETCH  REQUESTED:   30555120  ISSUED:   30553326  CROSSED:          0  USEFUL:    2247372  USELESS:     778741
cpu0_L1I AVERAGE iMISS LATENCY: 24.5275 cycles
cpu0_L1I AVERAGE dMISS LATENCY: 0 cycles
cpu0_L1I AVERAGE itMISS LATENCY: 0 cycles
cpu0_L1I AVERAGE dtMISS LATENCY: 0 cycles
cpu0_L1I PAGE CROSSINGS (TLB HIT):         0 
cpu0_L1I PAGE CROSSINGS (TLB MISS):         0 
cpu0_L1I AVERAGE MISS LATENCY: 24.5275 cycles
cpu0_ITLB TOTAL       ACCESS:   33541394  HIT:   31274342  MISS:    2267052  iACCESS:   33541394  iHIT:   31274342  iMISS:    2267052  dACCESS:          0  dHIT:          0  dMISS:          0  itACCESS:          0  itHIT:          0  itMISS:          0  dtACCESS:          0  dtHIT:          0  dtMISS:          0
cpu0_ITLB LOAD         ACCESS:   33541394  HIT:   31274342  MISS:    2267052  iACCESS:   33541394  iHIT:   31274342  iMISS:    2267052  dACCESS:          0  dHIT:          0  dMISS:          0  itACCESS:          0  itHIT:          0  itMISS:          0  dtACCESS:          0  dtHIT:          0  dtMISS:          0
cpu0_ITLB RFO          ACCESS:          0  HIT:          0  MISS:          0  iACCESS:          0  iHIT:          0  iMISS:          0  dACCESS:          0  dHIT:          0  dMISS:          0  itACCESS:          0  itHIT:          0  itMISS:          0  dtACCESS:          0  dtHIT:          0  dtMISS:          0
cpu0_ITLB PREFETCH     ACCESS:          0  HIT:          0  MISS:          0  iACCESS:          0  iHIT:          0  iMISS:          0  dACCESS:          0  dHIT:          0  dMISS:          0  itACCESS:          0  itHIT:          0  itMISS:          0  dtACCESS:          0  dtHIT:          0  dtMISS:          0
cpu0_ITLB WRITE        ACCESS:          0  HIT:          0  MISS:          0  iACCESS:          0  iHIT:          0  iMISS:          0  dACCESS:          0  dHIT:          0  dMISS:          0  itACCESS:          0  itHIT:          0  itMISS:          0  dtACCESS:          0  dtHIT:          0  dtMISS:          0
cpu0_ITLB TRANSLATION  ACCESS:          0  HIT:          0  MISS:          0  iACCESS:          0  iHIT:          0  iMISS:          0  dACCESS:          0  dHIT:          0  dMISS:          0  itACCESS:          0  itHIT:          0  itMISS:          0  dtACCESS:          0  dtHIT:          0  dtMISS:          0
cpu0_ITLB PREFETCH  REQUESTED:          0  ISSUED:          0  CROSSED:          0  USEFUL:     397389  USELESS:      81018
cpu0_ITLB AVERAGE iMISS LATENCY: 8.1176 cycles
cpu0_ITLB AVERAGE dMISS LATENCY: 0 cycles
cpu0_ITLB AVERAGE itMISS LATENCY: 0 cycles
cpu0_ITLB AVERAGE dtMISS LATENCY: 0 cycles
cpu0_ITLB PAGE CROSSINGS (TLB HIT):         0 
cpu0_ITLB PAGE CROSSINGS (TLB MISS):         0 
cpu0_ITLB AVERAGE MISS LATENCY: 8.1176 cycles
cpu0_DTLB TOTAL       ACCESS:   28920567  HIT:   25300376  MISS:    3620191  iACCESS:          0  iHIT:          0  iMISS:          0  dACCESS:   28920567  dHIT:   25300376  dMISS:    3620191  itACCESS:          0  itHIT:          0  itMISS:          0  dtACCESS:          0  dtHIT:          0  dtMISS:          0
cpu0_DTLB LOAD         ACCESS:   28920567  HIT:   25300376  MISS:    3620191  iACCESS:          0  iHIT:          0  iMISS:          0  dACCESS:   28920567  dHIT:   25300376  dMISS:    3620191  itACCESS:          0  itHIT:          0  itMISS:          0  dtACCESS:          0  dtHIT:          0  dtMISS:          0
cpu0_DTLB RFO          ACCESS:          0  HIT:          0  MISS:          0  iACCESS:          0  iHIT:          0  iMISS:          0  dACCESS:          0  dHIT:          0  dMISS:          0  itACCESS:          0  itHIT:          0  itMISS:          0  dtACCESS:          0  dtHIT:          0  dtMISS:          0
cpu0_DTLB PREFETCH     ACCESS:          0  HIT:          0  MISS:          0  iACCESS:          0  iHIT:          0  iMISS:          0  dACCESS:          0  dHIT:          0  dMISS:          0  itACCESS:          0  itHIT:          0  itMISS:          0  dtACCESS:          0  dtHIT:          0  dtMISS:          0
cpu0_DTLB WRITE        ACCESS:          0  HIT:          0  MISS:          0  iACCESS:          0  iHIT:          0  iMISS:          0  dACCESS:          0  dHIT:          0  dMISS:          0  itACCESS:          0  itHIT:          0  itMISS:          0  dtACCESS:          0  dtHIT:          0  dtMISS:          0
cpu0_DTLB TRANSLATION  ACCESS:          0  HIT:          0  MISS:          0  iACCESS:          0  iHIT:          0  iMISS:          0  dACCESS:          0  dHIT:          0  dMISS:          0  itACCESS:          0  itHIT:          0  itMISS:          0  dtACCESS:          0  dtHIT:          0  dtMISS:          0
cpu0_DTLB PREFETCH  REQUESTED:          0  ISSUED:          0  CROSSED:          0  USEFUL:          0  USELESS:          0
cpu0_DTLB AVERAGE iMISS LATENCY: 0 cycles
cpu0_DTLB AVERAGE dMISS LATENCY: 17.4476 cycles
cpu0_DTLB AVERAGE itMISS LATENCY: 0 cycles
cpu0_DTLB AVERAGE dtMISS LATENCY: 0 cycles
cpu0_DTLB PAGE CROSSINGS (TLB HIT):         0 
cpu0_DTLB PAGE CROSSINGS (TLB MISS):         0 
cpu0_DTLB AVERAGE MISS LATENCY: 17.4476 cycles
cpu0_STLB TOTAL       ACCESS:    2612413  HIT:    2219636  MISS:     392777  iACCESS:     478411  iHIT:     358796  iMISS:     119615  dACCESS:    2134002  dHIT:    1860840  dMISS:     273162  itACCESS:          0  itHIT:          0  itMISS:          0  dtACCESS:          0  dtHIT:          0  dtMISS:          0
cpu0_STLB LOAD         ACCESS:    2612413  HIT:    2219636  MISS:     392777  iACCESS:     478411  iHIT:     358796  iMISS:     119615  dACCESS:    2134002  dHIT:    1860840  dMISS:     273162  itACCESS:          0  itHIT:          0  itMISS:          0  dtACCESS:          0  dtHIT:          0  dtMISS:          0
cpu0_STLB RFO          ACCESS:          0  HIT:          0  MISS:          0  iACCESS:          0  iHIT:          0  iMISS:          0  dACCESS:          0  dHIT:          0  dMISS:          0  itACCESS:          0  itHIT:          0  itMISS:          0  dtACCESS:          0  dtHIT:          0  dtMISS:          0
cpu0_STLB PREFETCH     ACCESS:          0  HIT:          0  MISS:          0  iACCESS:          0  iHIT:          0  iMISS:          0  dACCESS:          0  dHIT:          0  dMISS:          0  itACCESS:          0  itHIT:          0  itMISS:          0  dtACCESS:          0  dtHIT:          0  dtMISS:          0
cpu0_STLB WRITE        ACCESS:          0  HIT:          0  MISS:          0  iACCESS:          0  iHIT:          0  iMISS:          0  dACCESS:          0  dHIT:          0  dMISS:          0  itACCESS:          0  itHIT:          0  itMISS:          0  dtACCESS:          0  dtHIT:          0  dtMISS:          0
cpu0_STLB TRANSLATION  ACCESS:          0  HIT:          0  MISS:          0  iACCESS:          0  iHIT:          0  iMISS:          0  dACCESS:          0  dHIT:          0  dMISS:          0  itACCESS:          0  itHIT:          0  itMISS:          0  dtACCESS:          0  dtHIT:          0  dtMISS:          0
cpu0_STLB PREFETCH  REQUESTED:          0  ISSUED:          0  CROSSED:          0  USEFUL:          0  USELESS:          0
cpu0_STLB AVERAGE iMISS LATENCY: 37.1133 cycles
cpu0_STLB AVERAGE dMISS LATENCY: 117.141 cycles
cpu0_STLB AVERAGE itMISS LATENCY: 0 cycles
cpu0_STLB AVERAGE dtMISS LATENCY: 0 cycles
cpu0_STLB PAGE CROSSINGS (TLB HIT):         0 
cpu0_STLB PAGE CROSSINGS (TLB MISS):         0 
cpu0_STLB AVERAGE MISS LATENCY: 154.254 cycles
cpu0_L1D TOTAL       ACCESS:   45111933  HIT:   39306965  MISS:    5804968  iACCESS:          0  iHIT:          0  iMISS:          0  dACCESS:   44543636  dHIT:   39273156  dMISS:    5270480  itACCESS:     133680  itHIT:      14779  itMISS:     118901  dtACCESS:     434617  dtHIT:      19030  dtMISS:     415587
cpu0_L1D LOAD         ACCESS:   20310845  HIT:   17940411  MISS:    2370434  iACCESS:          0  iHIT:          0  iMISS:          0  dACCESS:   20310845  dHIT:   17940411  dMISS:    2370434  itACCESS:          0  itHIT:          0  itMISS:          0  dtACCESS:          0  dtHIT:          0  dtMISS:          0
cpu0_L1D RFO          ACCESS:          0  HIT:          0  MISS:          0  iACCESS:          0  iHIT:          0  iMISS:          0  dACCESS:          0  dHIT:          0  dMISS:          0  itACCESS:          0  itHIT:          0  itMISS:          0  dtACCESS:          0  dtHIT:          0  dtMISS:          0
cpu0_L1D PREFETCH     ACCESS:   14081826  HIT:   11762343  MISS:    2319483  iACCESS:          0  iHIT:          0  iMISS:          0  dACCESS:   14081826  dHIT:   11762343  dMISS:    2319483  itACCESS:          0  itHIT:          0  itMISS:          0  dtACCESS:          0  dtHIT:          0  dtMISS:          0
cpu0_L1D WRITE        ACCESS:   10150965  HIT:    9570402  MISS:     580563  iACCESS:          0  iHIT:          0  iMISS:          0  dACCESS:   10150965  dHIT:    9570402  dMISS:     580563  itACCESS:          0  itHIT:          0  itMISS:          0  dtACCESS:          0  dtHIT:          0  dtMISS:          0
cpu0_L1D TRANSLATION  ACCESS:     568297  HIT:      33809  MISS:     534488  iACCESS:          0  iHIT:          0  iMISS:          0  dACCESS:          0  dHIT:          0  dMISS:          0  itACCESS:     133680  itHIT:      14779  itMISS:     118901  dtACCESS:     434617  dtHIT:      19030  dtMISS:     415587
cpu0_L1D PREFETCH  REQUESTED:   20310845  ISSUED:   18553771  CROSSED:          0  USEFUL:     362524  USELESS:     939746
cpu0_L1D AVERAGE iMISS LATENCY: 0 cycles
cpu0_L1D AVERAGE dMISS LATENCY: 51.5412 cycles
cpu0_L1D AVERAGE itMISS LATENCY: 2.32055 cycles
cpu0_L1D AVERAGE dtMISS LATENCY: 7.13315 cycles
cpu0_L1D PAGE CROSSINGS (TLB HIT):         0 
cpu0_L1D PAGE CROSSINGS (TLB MISS):         0 
cpu0_L1D AVERAGE MISS LATENCY: 60.9949 cycles
cpu0_L2C TOTAL       ACCESS:    8756042  HIT:    1531917  MISS:    7224125  iACCESS:    3841864  iHIT:     803900  iMISS:    3037964  dACCESS:    4406853  dHIT:     525531  dMISS:    3881322  itACCESS:     118534  itHIT:      39376  itMISS:      79158  dtACCESS:     388791  dtHIT:     163110  dtMISS:     225681
cpu0_L2C LOAD         ACCESS:    2076275  HIT:     197318  MISS:    1878957  iACCESS:     852325  iHIT:     112247  iMISS:     740078  dACCESS:    1223950  dHIT:      85071  dMISS:    1138879  itACCESS:          0  itHIT:          0  itMISS:          0  dtACCESS:          0  dtHIT:          0  dtMISS:          0
cpu0_L2C RFO          ACCESS:     215184  HIT:      25975  MISS:     189209  iACCESS:          0  iHIT:          0  iMISS:          0  dACCESS:     215184  dHIT:      25975  dMISS:     189209  itACCESS:          0  itHIT:          0  itMISS:          0  dtACCESS:          0  dtHIT:          0  dtMISS:          0
cpu0_L2C PREFETCH     ACCESS:    5612472  HIT:    1007656  MISS:    4604816  iACCESS:    2989539  iHIT:     691653  iMISS:    2297886  dACCESS:    2622933  dHIT:     316003  dMISS:    2306930  itACCESS:          0  itHIT:          0  itMISS:          0  dtACCESS:          0  dtHIT:          0  dtMISS:          0
cpu0_L2C WRITE        ACCESS:     344786  HIT:      98482  MISS:     246304  iACCESS:          0  iHIT:          0  iMISS:          0  dACCESS:     344786  dHIT:      98482  dMISS:     246304  itACCESS:          0  itHIT:          0  itMISS:          0  dtACCESS:          0  dtHIT:          0  dtMISS:          0
cpu0_L2C TRANSLATION  ACCESS:     507325  HIT:     202486  MISS:     304839  iACCESS:          0  iHIT:          0  iMISS:          0  dACCESS:          0  dHIT:          0  dMISS:          0  itACCESS:     118534  itHIT:      39376  itMISS:      79158  dtACCESS:     388791  dtHIT:     163110  dtMISS:     225681
cpu0_L2C PREFETCH  REQUESTED:    1567757  ISSUED:    1567756  CROSSED:          0  USEFUL:     421696  USELESS:     502781
cpu0_L2C AVERAGE iMISS LATENCY: 27.154 cycles
cpu0_L2C AVERAGE dMISS LATENCY: 51.0408 cycles
cpu0_L2C AVERAGE itMISS LATENCY: 1.7056 cycles
cpu0_L2C AVERAGE dtMISS LATENCY: 5.21402 cycles
cpu0_L2C PAGE CROSSINGS (TLB HIT):         0 
cpu0_L2C PAGE CROSSINGS (TLB MISS):         0 
cpu0_L2C AVERAGE MISS LATENCY: 85.1144 cycles
LLC TOTAL       ACCESS:    7031045  HIT:    4190610  MISS:    2840435  iACCESS:    2942493  iHIT:    2053464  iMISS:     889029  dACCESS:    3783713  dHIT:    2066750  dMISS:    1716963  itACCESS:      79158  itHIT:      18773  itMISS:      60385  dtACCESS:     225681  dtHIT:      51623  dtMISS:     174058
LLC LOAD         ACCESS:    1871242  HIT:    1179487  MISS:     691755  iACCESS:     738617  iHIT:     550617  iMISS:     188000  dACCESS:    1132625  dHIT:     628870  dMISS:     503755  itACCESS:          0  itHIT:          0  itMISS:          0  dtACCESS:          0  dtHIT:          0  dtMISS:          0
LLC RFO          ACCESS:     189187  HIT:      94051  MISS:      95136  iACCESS:          0  iHIT:          0  iMISS:          0  dACCESS:     189187  dHIT:      94051  dMISS:      95136  itACCESS:          0  itHIT:          0  itMISS:          0  dtACCESS:          0  dtHIT:          0  dtMISS:          0
LLC PREFETCH     ACCESS:    4383207  HIT:    2570197  MISS:    1813010  iACCESS:    2203876  iHIT:    1502847  iMISS:     701029  dACCESS:    2179331  dHIT:    1067350  dMISS:    1111981  itACCESS:          0  itHIT:          0  itMISS:          0  dtACCESS:          0  dtHIT:          0  dtMISS:          0
LLC WRITE        ACCESS:     282570  HIT:     276479  MISS:       6091  iACCESS:          0  iHIT:          0  iMISS:          0  dACCESS:     282570  dHIT:     276479  dMISS:       6091  itACCESS:          0  itHIT:          0  itMISS:          0  dtACCESS:          0  dtHIT:          0  dtMISS:          0
LLC TRANSLATION  ACCESS:     304839  HIT:      70396  MISS:     234443  iACCESS:          0  iHIT:          0  iMISS:          0  dACCESS:          0  dHIT:          0  dMISS:          0  itACCESS:      79158  itHIT:      18773  itMISS:      60385  dtACCESS:     225681  dtHIT:      51623  dtMISS:     174058
LLC PREFETCH  REQUESTED:          0  ISSUED:          0  CROSSED:          0  USEFUL:          0  USELESS:          0
LLC AVERAGE iMISS LATENCY: 48.9308 cycles
LLC AVERAGE dMISS LATENCY: 106.704 cycles
LLC AVERAGE itMISS LATENCY: 3.78895 cycles
LLC AVERAGE dtMISS LATENCY: 11.6957 cycles
LLC PAGE CROSSINGS (TLB HIT):         0 
LLC PAGE CROSSINGS (TLB MISS):         0 
LLC AVERAGE MISS LATENCY: 171.119 cycles

PageTableWalker TOTAL       ACCESS:     197704  
PageTableWalker AVERAGE LATENCY: 5.89194 cycles
PageTableWalker TOTAL LATENCY: 1164859 cycles

DRAM Statistics
Channel 0
 RQ ROW_BUFFER_HIT:     640842
  ROW_BUFFER_MISS:    2174102
 AVG DBUS CONGESTED CYCLE:    3.65236
 WQ ROW_BUFFER_HIT:      72293
  ROW_BUFFER_MISS:      66252  FULL:          0

