last_page:0x200000000000000
VMEM_RES_CAP:0x100000
PAGE_SIZE:4096
LOG2_PAGE_SIZE:12
LOG2_PAGE_TABLE_SIZE:9
page_table_levels:5
WARNING: physical memory size is smaller than virtual memory size
FDiP enabled with aggresivity 16

*** ChampSim Multicore Out-of-Order Simulator ***

Warmup Instructions: 50000000
Simulation Instructions: 100000000
Number of CPUs: 1
Small page size: 4096
Large page size: 2097152

CPU 0 Bimodal branch predictor
Basic BTB sets: 1024 ways: 8 indirect buffer size: 4096 RAS size: 64
Instruction page size distrubution: 0
Loading instruction page size distribution from /home/bsc/bsc018186/scratch/itp_asplos25_AE/dump/smt_srv537_ap_srv697_ap_1024i.pdst
Data page size distrubution: 0
Loading data page size distribution from /home/bsc/bsc018186/scratch/itp_asplos25_AE/dump/smt_srv537_ap_srv697_ap_1024i.pdst
cpu0_L2C IP-based stride prefetcher
cpu0_L1D next line prefetcher
cpu0_STLB using iTP with max lru@8
cpu0_STLB using iTP with instr@0 and data@2
Init sat counter with 3 bits (max:50).
cpu0_L1I next line prefetcher
Off-chip DRAM Size: 4 GiB Channels: 1 Width: 64-bit Data Rate: 3200 MT/s
Heartbeat CPU 0 instructions: 10000001 cycles: 2500391 heartbeat IPC: 3.99938 cumulative IPC: 3.99938 (Simulation time: 0 hr 0 min 35 sec) 
Heartbeat CPU 0 instructions: 20000003 cycles: 5000406 heartbeat IPC: 3.99998 cumulative IPC: 3.99968 (Simulation time: 0 hr 1 min 13 sec) 
Heartbeat CPU 0 instructions: 30000002 cycles: 7500434 heartbeat IPC: 3.99996 cumulative IPC: 3.99977 (Simulation time: 0 hr 1 min 51 sec) 
Heartbeat CPU 0 instructions: 40000003 cycles: 10000476 heartbeat IPC: 3.99994 cumulative IPC: 3.99981 (Simulation time: 0 hr 2 min 29 sec) 
Heartbeat CPU 0 instructions: 50000001 cycles: 12500711 heartbeat IPC: 3.99963 cumulative IPC: 3.99978 (Simulation time: 0 hr 3 min 8 sec) 
Warmup finished CPU 0 instructions: 50000001 cycles: 12500712 cumulative IPC: 3.99978 (Simulation time: 0 hr 3 min 8 sec) 

Warmup complete CPU 0 instructions: 50000001 cycles: 12500712 (Simulation time: 0 hr 3 min 8 sec) 

Heartbeat CPU 0 instructions: 60000003 cycles: 41820019 heartbeat IPC: 0.341073 cumulative IPC: 0.341073 (Simulation time: 0 hr 4 min 27 sec) 
Heartbeat CPU 0 instructions: 70000002 cycles: 69716138 heartbeat IPC: 0.358473 cumulative IPC: 0.349557 (Simulation time: 0 hr 5 min 45 sec) 
Heartbeat CPU 0 instructions: 80000002 cycles: 97717440 heartbeat IPC: 0.357127 cumulative IPC: 0.352044 (Simulation time: 0 hr 7 min 3 sec) 
Heartbeat CPU 0 instructions: 90000000 cycles: 126348176 heartbeat IPC: 0.349275 cumulative IPC: 0.351348 (Simulation time: 0 hr 8 min 22 sec) 
Heartbeat CPU 0 instructions: 100000003 cycles: 154607821 heartbeat IPC: 0.353862 cumulative IPC: 0.351848 (Simulation time: 0 hr 9 min 40 sec) 
Heartbeat CPU 0 instructions: 110000002 cycles: 183283046 heartbeat IPC: 0.348734 cumulative IPC: 0.351325 (Simulation time: 0 hr 10 min 58 sec) 
Heartbeat CPU 0 instructions: 120000001 cycles: 211637997 heartbeat IPC: 0.352673 cumulative IPC: 0.351517 (Simulation time: 0 hr 12 min 16 sec) 
Heartbeat CPU 0 instructions: 130000004 cycles: 239712857 heartbeat IPC: 0.356191 cumulative IPC: 0.352094 (Simulation time: 0 hr 13 min 34 sec) 
Heartbeat CPU 0 instructions: 140000003 cycles: 267349421 heartbeat IPC: 0.36184 cumulative IPC: 0.353151 (Simulation time: 0 hr 14 min 51 sec) 
Heartbeat CPU 0 instructions: 150000003 cycles: 296378366 heartbeat IPC: 0.344484 cumulative IPC: 0.352265 (Simulation time: 0 hr 16 min 11 sec) 
Simulation finished CPU 0 instructions: 100000002 cycles: 283877655 cumulative IPC: 0.352265 (Simulation time: 0 hr 16 min 11 sec) 

Simulation complete CPU 0 instructions: 100000002 cycles: 283877655 (Simulation time: 0 hr 16 min 11 sec) 


ChampSim completed all CPUs

Saving instructions large page distribution to /home/bsc/bsc018186/scratch/itp_asplos25_AE/dump/smt_srv537_ap_srv697_ap_1024i.pdst...
Saving data large page distribution to /home/bsc/bsc018186/scratch/itp_asplos25_AE/dump/smt_srv537_ap_srv697_ap_1024i.pdst...
=== Simulation ===
CPU 0 runs /gpfs/projects/bsc18/MN4/bsc18/romol/ChampSim/traces/qualcomm_srv/smt_srv537_ap_srv697_ap_1024i.champsimtrace.xz

Region of Interest Statistics

CPU 0 cumulative IPC: 0.352265 instructions: 100000002 cycles: 283877655
CPU 0 Branch Prediction Accuracy: 76.0748% MPKI: 43.0951 Average ROB Occupancy at Mispredict: 11.4644
Branch type MPKI
BRANCH_DIRECT_JUMP: 1.29081
BRANCH_INDIRECT: 22.4002
BRANCH_CONDITIONAL: 12.5647
BRANCH_DIRECT_CALL: 2.48234
BRANCH_INDIRECT_CALL: 0.93561
BRANCH_RETURN: 3.4215

Instructions large pages: 0
Instructions small pages: 13574
Large page distribution for instructions: 0%

Data large pages: 0
Data small pages: 12278
Large page distribution for data: 0%

cpu0_L1I TOTAL       ACCESS:   39084905  HIT:   30426471  MISS:    8658434  iACCESS:   39084905  iHIT:   30426471  iMISS:    8658434  dACCESS:          0  dHIT:          0  dMISS:          0  itACCESS:          0  itHIT:          0  itMISS:          0  dtACCESS:          0  dtHIT:          0  dtMISS:          0
cpu0_L1I LOAD         ACCESS:   11757447  HIT:    9392644  MISS:    2364803  iACCESS:   11757447  iHIT:    9392644  iMISS:    2364803  dACCESS:          0  dHIT:          0  dMISS:          0  itACCESS:          0  itHIT:          0  itMISS:          0  dtACCESS:          0  dtHIT:          0  dtMISS:          0
cpu0_L1I RFO          ACCESS:          0  HIT:          0  MISS:          0  iACCESS:          0  iHIT:          0  iMISS:          0  dACCESS:          0  dHIT:          0  dMISS:          0  itACCESS:          0  itHIT:          0  itMISS:          0  dtACCESS:          0  dtHIT:          0  dtMISS:          0
cpu0_L1I PREFETCH     ACCESS:   27327458  HIT:   21033827  MISS:    6293631  iACCESS:   27327458  iHIT:   21033827  iMISS:    6293631  dACCESS:          0  dHIT:          0  dMISS:          0  itACCESS:          0  itHIT:          0  itMISS:          0  dtACCESS:          0  dtHIT:          0  dtMISS:          0
cpu0_L1I WRITE        ACCESS:          0  HIT:          0  MISS:          0  iACCESS:          0  iHIT:          0  iMISS:          0  dACCESS:          0  dHIT:          0  dMISS:          0  itACCESS:          0  itHIT:          0  itMISS:          0  dtACCESS:          0  dtHIT:          0  dtMISS:          0
cpu0_L1I TRANSLATION  ACCESS:          0  HIT:          0  MISS:          0  iACCESS:          0  iHIT:          0  iMISS:          0  dACCESS:          0  dHIT:          0  dMISS:          0  itACCESS:          0  itHIT:          0  itMISS:          0  dtACCESS:          0  dtHIT:          0  dtMISS:          0
cpu0_L1I PREFETCH  REQUESTED:   30214638  ISSUED:   30214618  CROSSED:          0  USEFUL:    2194661  USELESS:     751388
cpu0_L1I AVERAGE iMISS LATENCY: 23.0319 cycles
cpu0_L1I AVERAGE dMISS LATENCY: 0 cycles
cpu0_L1I AVERAGE itMISS LATENCY: 0 cycles
cpu0_L1I AVERAGE dtMISS LATENCY: 0 cycles
cpu0_L1I PAGE CROSSINGS (TLB HIT):         0 
cpu0_L1I PAGE CROSSINGS (TLB MISS):         0 
cpu0_L1I AVERAGE MISS LATENCY: 23.0319 cycles
cpu0_ITLB TOTAL       ACCESS:   32979927  HIT:   30778375  MISS:    2201552  iACCESS:   32979927  iHIT:   30778375  iMISS:    2201552  dACCESS:          0  dHIT:          0  dMISS:          0  itACCESS:          0  itHIT:          0  itMISS:          0  dtACCESS:          0  dtHIT:          0  dtMISS:          0
cpu0_ITLB LOAD         ACCESS:   32979927  HIT:   30778375  MISS:    2201552  iACCESS:   32979927  iHIT:   30778375  iMISS:    2201552  dACCESS:          0  dHIT:          0  dMISS:          0  itACCESS:          0  itHIT:          0  itMISS:          0  dtACCESS:          0  dtHIT:          0  dtMISS:          0
cpu0_ITLB RFO          ACCESS:          0  HIT:          0  MISS:          0  iACCESS:          0  iHIT:          0  iMISS:          0  dACCESS:          0  dHIT:          0  dMISS:          0  itACCESS:          0  itHIT:          0  itMISS:          0  dtACCESS:          0  dtHIT:          0  dtMISS:          0
cpu0_ITLB PREFETCH     ACCESS:          0  HIT:          0  MISS:          0  iACCESS:          0  iHIT:          0  iMISS:          0  dACCESS:          0  dHIT:          0  dMISS:          0  itACCESS:          0  itHIT:          0  itMISS:          0  dtACCESS:          0  dtHIT:          0  dtMISS:          0
cpu0_ITLB WRITE        ACCESS:          0  HIT:          0  MISS:          0  iACCESS:          0  iHIT:          0  iMISS:          0  dACCESS:          0  dHIT:          0  dMISS:          0  itACCESS:          0  itHIT:          0  itMISS:          0  dtACCESS:          0  dtHIT:          0  dtMISS:          0
cpu0_ITLB TRANSLATION  ACCESS:          0  HIT:          0  MISS:          0  iACCESS:          0  iHIT:          0  iMISS:          0  dACCESS:          0  dHIT:          0  dMISS:          0  itACCESS:          0  itHIT:          0  itMISS:          0  dtACCESS:          0  dtHIT:          0  dtMISS:          0
cpu0_ITLB PREFETCH  REQUESTED:          0  ISSUED:          0  CROSSED:          0  USEFUL:     383420  USELESS:      77401
cpu0_ITLB AVERAGE iMISS LATENCY: 5.93212 cycles
cpu0_ITLB AVERAGE dMISS LATENCY: 0 cycles
cpu0_ITLB AVERAGE itMISS LATENCY: 0 cycles
cpu0_ITLB AVERAGE dtMISS LATENCY: 0 cycles
cpu0_ITLB PAGE CROSSINGS (TLB HIT):         0 
cpu0_ITLB PAGE CROSSINGS (TLB MISS):         0 
cpu0_ITLB AVERAGE MISS LATENCY: 5.93212 cycles
cpu0_DTLB TOTAL       ACCESS:   28724180  HIT:   25242803  MISS:    3481377  iACCESS:          0  iHIT:          0  iMISS:          0  dACCESS:   28724180  dHIT:   25242803  dMISS:    3481377  itACCESS:          0  itHIT:          0  itMISS:          0  dtACCESS:          0  dtHIT:          0  dtMISS:          0
cpu0_DTLB LOAD         ACCESS:   28724180  HIT:   25242803  MISS:    3481377  iACCESS:          0  iHIT:          0  iMISS:          0  dACCESS:   28724180  dHIT:   25242803  dMISS:    3481377  itACCESS:          0  itHIT:          0  itMISS:          0  dtACCESS:          0  dtHIT:          0  dtMISS:          0
cpu0_DTLB RFO          ACCESS:          0  HIT:          0  MISS:          0  iACCESS:          0  iHIT:          0  iMISS:          0  dACCESS:          0  dHIT:          0  dMISS:          0  itACCESS:          0  itHIT:          0  itMISS:          0  dtACCESS:          0  dtHIT:          0  dtMISS:          0
cpu0_DTLB PREFETCH     ACCESS:          0  HIT:          0  MISS:          0  iACCESS:          0  iHIT:          0  iMISS:          0  dACCESS:          0  dHIT:          0  dMISS:          0  itACCESS:          0  itHIT:          0  itMISS:          0  dtACCESS:          0  dtHIT:          0  dtMISS:          0
cpu0_DTLB WRITE        ACCESS:          0  HIT:          0  MISS:          0  iACCESS:          0  iHIT:          0  iMISS:          0  dACCESS:          0  dHIT:          0  dMISS:          0  itACCESS:          0  itHIT:          0  itMISS:          0  dtACCESS:          0  dtHIT:          0  dtMISS:          0
cpu0_DTLB TRANSLATION  ACCESS:          0  HIT:          0  MISS:          0  iACCESS:          0  iHIT:          0  iMISS:          0  dACCESS:          0  dHIT:          0  dMISS:          0  itACCESS:          0  itHIT:          0  itMISS:          0  dtACCESS:          0  dtHIT:          0  dtMISS:          0
cpu0_DTLB PREFETCH  REQUESTED:          0  ISSUED:          0  CROSSED:          0  USEFUL:          0  USELESS:          0
cpu0_DTLB AVERAGE iMISS LATENCY: 0 cycles
cpu0_DTLB AVERAGE dMISS LATENCY: 27.4707 cycles
cpu0_DTLB AVERAGE itMISS LATENCY: 0 cycles
cpu0_DTLB AVERAGE dtMISS LATENCY: 0 cycles
cpu0_DTLB PAGE CROSSINGS (TLB HIT):         0 
cpu0_DTLB PAGE CROSSINGS (TLB MISS):         0 
cpu0_DTLB AVERAGE MISS LATENCY: 27.4707 cycles
cpu0_STLB TOTAL       ACCESS:    2429552  HIT:    2085831  MISS:     343721  iACCESS:     460828  iHIT:     412451  iMISS:      48377  dACCESS:    1968724  dHIT:    1673380  dMISS:     295344  itACCESS:          0  itHIT:          0  itMISS:          0  dtACCESS:          0  dtHIT:          0  dtMISS:          0
cpu0_STLB LOAD         ACCESS:    2429552  HIT:    2085831  MISS:     343721  iACCESS:     460828  iHIT:     412451  iMISS:      48377  dACCESS:    1968724  dHIT:    1673380  dMISS:     295344  itACCESS:          0  itHIT:          0  itMISS:          0  dtACCESS:          0  dtHIT:          0  dtMISS:          0
cpu0_STLB RFO          ACCESS:          0  HIT:          0  MISS:          0  iACCESS:          0  iHIT:          0  iMISS:          0  dACCESS:          0  dHIT:          0  dMISS:          0  itACCESS:          0  itHIT:          0  itMISS:          0  dtACCESS:          0  dtHIT:          0  dtMISS:          0
cpu0_STLB PREFETCH     ACCESS:          0  HIT:          0  MISS:          0  iACCESS:          0  iHIT:          0  iMISS:          0  dACCESS:          0  dHIT:          0  dMISS:          0  itACCESS:          0  itHIT:          0  itMISS:          0  dtACCESS:          0  dtHIT:          0  dtMISS:          0
cpu0_STLB WRITE        ACCESS:          0  HIT:          0  MISS:          0  iACCESS:          0  iHIT:          0  iMISS:          0  dACCESS:          0  dHIT:          0  dMISS:          0  itACCESS:          0  itHIT:          0  itMISS:          0  dtACCESS:          0  dtHIT:          0  dtMISS:          0
cpu0_STLB TRANSLATION  ACCESS:          0  HIT:          0  MISS:          0  iACCESS:          0  iHIT:          0  iMISS:          0  dACCESS:          0  dHIT:          0  dMISS:          0  itACCESS:          0  itHIT:          0  itMISS:          0  dtACCESS:          0  dtHIT:          0  dtMISS:          0
cpu0_STLB PREFETCH  REQUESTED:          0  ISSUED:          0  CROSSED:          0  USEFUL:          0  USELESS:          0
cpu0_STLB AVERAGE iMISS LATENCY: 27.4809 cycles
cpu0_STLB AVERAGE dMISS LATENCY: 232.054 cycles
cpu0_STLB AVERAGE itMISS LATENCY: 0 cycles
cpu0_STLB AVERAGE dtMISS LATENCY: 0 cycles
cpu0_STLB PAGE CROSSINGS (TLB HIT):         0 
cpu0_STLB PAGE CROSSINGS (TLB MISS):         0 
cpu0_STLB AVERAGE MISS LATENCY: 259.535 cycles
cpu0_L1D TOTAL       ACCESS:   44259688  HIT:   39039496  MISS:    5220192  iACCESS:          0  iHIT:          0  iMISS:          0  dACCESS:   43718016  dHIT:   39012111  dMISS:    4705905  itACCESS:      57617  itHIT:       4888  itMISS:      52729  dtACCESS:     484055  dtHIT:      22497  dtMISS:     461558
cpu0_L1D LOAD         ACCESS:   19934361  HIT:   17825665  MISS:    2108696  iACCESS:          0  iHIT:          0  iMISS:          0  dACCESS:   19934361  dHIT:   17825665  dMISS:    2108696  itACCESS:          0  itHIT:          0  itMISS:          0  dtACCESS:          0  dtHIT:          0  dtMISS:          0
cpu0_L1D RFO          ACCESS:          0  HIT:          0  MISS:          0  iACCESS:          0  iHIT:          0  iMISS:          0  dACCESS:          0  dHIT:          0  dMISS:          0  itACCESS:          0  itHIT:          0  itMISS:          0  dtACCESS:          0  dtHIT:          0  dtMISS:          0
cpu0_L1D PREFETCH     ACCESS:   13624433  HIT:   11564424  MISS:    2060009  iACCESS:          0  iHIT:          0  iMISS:          0  dACCESS:   13624433  dHIT:   11564424  dMISS:    2060009  itACCESS:          0  itHIT:          0  itMISS:          0  dtACCESS:          0  dtHIT:          0  dtMISS:          0
cpu0_L1D WRITE        ACCESS:   10159222  HIT:    9622022  MISS:     537200  iACCESS:          0  iHIT:          0  iMISS:          0  dACCESS:   10159222  dHIT:    9622022  dMISS:     537200  itACCESS:          0  itHIT:          0  itMISS:          0  dtACCESS:          0  dtHIT:          0  dtMISS:          0
cpu0_L1D TRANSLATION  ACCESS:     541672  HIT:      27385  MISS:     514287  iACCESS:          0  iHIT:          0  iMISS:          0  dACCESS:          0  dHIT:          0  dMISS:          0  itACCESS:      57617  itHIT:       4888  itMISS:      52729  dtACCESS:     484055  dtHIT:      22497  dtMISS:     461558
cpu0_L1D PREFETCH  REQUESTED:   19934361  ISSUED:   18230627  CROSSED:          0  USEFUL:     369061  USELESS:     908473
cpu0_L1D AVERAGE iMISS LATENCY: 0 cycles
cpu0_L1D AVERAGE dMISS LATENCY: 50.5497 cycles
cpu0_L1D AVERAGE itMISS LATENCY: 1.7105 cycles
cpu0_L1D AVERAGE dtMISS LATENCY: 14.1478 cycles
cpu0_L1D PAGE CROSSINGS (TLB HIT):         0 
cpu0_L1D PAGE CROSSINGS (TLB MISS):         0 
cpu0_L1D AVERAGE MISS LATENCY: 66.4079 cycles
cpu0_L2C TOTAL       ACCESS:    8519910  HIT:    4225828  MISS:    4294082  iACCESS:    3749915  iHIT:    2327664  iMISS:    1422251  dACCESS:    4288242  dHIT:    1836456  dMISS:    2451786  itACCESS:      52729  itHIT:       7639  itMISS:      45090  dtACCESS:     429024  dtHIT:      54069  dtMISS:     374955
cpu0_L2C LOAD         ACCESS:    2037603  HIT:    1026050  MISS:    1011553  iACCESS:     842968  iHIT:     550865  iMISS:     292103  dACCESS:    1194635  dHIT:     475185  dMISS:     719450  itACCESS:          0  itHIT:          0  itMISS:          0  dtACCESS:          0  dtHIT:          0  dtMISS:          0
cpu0_L2C RFO          ACCESS:     208819  HIT:      80735  MISS:     128084  iACCESS:          0  iHIT:          0  iMISS:          0  dACCESS:     208819  dHIT:      80735  dMISS:     128084  itACCESS:          0  itHIT:          0  itMISS:          0  dtACCESS:          0  dtHIT:          0  dtMISS:          0
cpu0_L2C PREFETCH     ACCESS:    5444623  HIT:    2714693  MISS:    2729930  iACCESS:    2906947  iHIT:    1776799  iMISS:    1130148  dACCESS:    2537676  dHIT:     937894  dMISS:    1599782  itACCESS:          0  itHIT:          0  itMISS:          0  dtACCESS:          0  dtHIT:          0  dtMISS:          0
cpu0_L2C WRITE        ACCESS:     347112  HIT:     342642  MISS:       4470  iACCESS:          0  iHIT:          0  iMISS:          0  dACCESS:     347112  dHIT:     342642  dMISS:       4470  itACCESS:          0  itHIT:          0  itMISS:          0  dtACCESS:          0  dtHIT:          0  dtMISS:          0
cpu0_L2C TRANSLATION  ACCESS:     481753  HIT:      61708  MISS:     420045  iACCESS:          0  iHIT:          0  iMISS:          0  dACCESS:          0  dHIT:          0  dMISS:          0  itACCESS:      52729  itHIT:       7639  itMISS:      45090  dtACCESS:     429024  dtHIT:      54069  dtMISS:     374955
cpu0_L2C PREFETCH  REQUESTED:    1505511  ISSUED:    1505511  CROSSED:          0  USEFUL:     357982  USELESS:     313493
cpu0_L2C AVERAGE iMISS LATENCY: 39.0206 cycles
cpu0_L2C AVERAGE dMISS LATENCY: 76.6756 cycles
cpu0_L2C AVERAGE itMISS LATENCY: 1.95806 cycles
cpu0_L2C AVERAGE dtMISS LATENCY: 16.2065 cycles
cpu0_L2C PAGE CROSSINGS (TLB HIT):         0 
cpu0_L2C PAGE CROSSINGS (TLB MISS):         0 
cpu0_L2C AVERAGE MISS LATENCY: 133.861 cycles
LLC TOTAL       ACCESS:    4295347  HIT:    1412094  MISS:    2883253  iACCESS:    1331542  iHIT:     446094  iMISS:     885448  dACCESS:    2543760  dHIT:     911497  dMISS:    1632263  itACCESS:      45090  itHIT:       3050  itMISS:      42040  dtACCESS:     374955  dtHIT:      51453  dtMISS:     323502
LLC LOAD         ACCESS:    1006731  HIT:     350867  MISS:     655864  iACCESS:     290954  iHIT:     103878  iMISS:     187076  dACCESS:     715777  dHIT:     246989  dMISS:     468788  itACCESS:          0  itHIT:          0  itMISS:          0  dtACCESS:          0  dtHIT:          0  dtMISS:          0
LLC RFO          ACCESS:     128078  HIT:      42312  MISS:      85766  iACCESS:          0  iHIT:          0  iMISS:          0  dACCESS:     128078  dHIT:      42312  dMISS:      85766  itACCESS:          0  itHIT:          0  itMISS:          0  dtACCESS:          0  dtHIT:          0  dtMISS:          0
LLC PREFETCH     ACCESS:    2524470  HIT:     759571  MISS:    1764899  iACCESS:    1040588  iHIT:     342216  iMISS:     698372  dACCESS:    1483882  dHIT:     417355  dMISS:    1066527  itACCESS:          0  itHIT:          0  itMISS:          0  dtACCESS:          0  dtHIT:          0  dtMISS:          0
LLC WRITE        ACCESS:     216023  HIT:     204841  MISS:      11182  iACCESS:          0  iHIT:          0  iMISS:          0  dACCESS:     216023  dHIT:     204841  dMISS:      11182  itACCESS:          0  itHIT:          0  itMISS:          0  dtACCESS:          0  dtHIT:          0  dtMISS:          0
LLC TRANSLATION  ACCESS:     420045  HIT:      54503  MISS:     365542  iACCESS:          0  iHIT:          0  iMISS:          0  dACCESS:          0  dHIT:          0  dMISS:          0  itACCESS:      45090  itHIT:       3050  itMISS:      42040  dtACCESS:     374955  dtHIT:      51453  dtMISS:     323502
LLC PREFETCH  REQUESTED:          0  ISSUED:          0  CROSSED:          0  USEFUL:          0  USELESS:          0
LLC AVERAGE iMISS LATENCY: 49.0264 cycles
LLC AVERAGE dMISS LATENCY: 98.8563 cycles
LLC AVERAGE itMISS LATENCY: 2.60602 cycles
LLC AVERAGE dtMISS LATENCY: 21.5681 cycles
LLC PAGE CROSSINGS (TLB HIT):         0 
LLC PAGE CROSSINGS (TLB MISS):         0 
LLC AVERAGE MISS LATENCY: 172.057 cycles

PageTableWalker TOTAL       ACCESS:     166701  
PageTableWalker AVERAGE LATENCY: 6.91718 cycles
PageTableWalker TOTAL LATENCY: 1153100 cycles

DRAM Statistics
Channel 0
 RQ ROW_BUFFER_HIT:     611093
  ROW_BUFFER_MISS:    2251655
 AVG DBUS CONGESTED CYCLE:    3.65007
 WQ ROW_BUFFER_HIT:      62223
  ROW_BUFFER_MISS:      54422  FULL:          0

