last_page:0x200000000000000
VMEM_RES_CAP:0x100000
PAGE_SIZE:4096
LOG2_PAGE_SIZE:12
LOG2_PAGE_TABLE_SIZE:9
page_table_levels:5
WARNING: physical memory size is smaller than virtual memory size
FDiP enabled with aggresivity 16

*** ChampSim Multicore Out-of-Order Simulator ***

Warmup Instructions: 50000000
Simulation Instructions: 100000000
Number of CPUs: 1
Small page size: 4096
Large page size: 2097152

CPU 0 Bimodal branch predictor
Basic BTB sets: 1024 ways: 8 indirect buffer size: 4096 RAS size: 64
Instruction page size distrubution: 0
Loading instruction page size distribution from /home/bsc/bsc018186/scratch/itp_asplos25_AE/dump/smt_srv12_ap_srv442_ap_1024i.pdst
Data page size distrubution: 0
Loading data page size distribution from /home/bsc/bsc018186/scratch/itp_asplos25_AE/dump/smt_srv12_ap_srv442_ap_1024i.pdst
cpu0_L2C IP-based stride prefetcher
cpu0_L1D next line prefetcher
cpu0_STLB using iTP with max lru@8
cpu0_STLB using iTP with instr@0 and data@2
Init sat counter with 3 bits (max:50).
cpu0_L1I next line prefetcher
Off-chip DRAM Size: 4 GiB Channels: 1 Width: 64-bit Data Rate: 3200 MT/s
Heartbeat CPU 0 instructions: 10000001 cycles: 2500273 heartbeat IPC: 3.99957 cumulative IPC: 3.99957 (Simulation time: 0 hr 0 min 35 sec) 
Heartbeat CPU 0 instructions: 20000002 cycles: 5000317 heartbeat IPC: 3.99994 cumulative IPC: 3.99975 (Simulation time: 0 hr 1 min 13 sec) 
Heartbeat CPU 0 instructions: 30000001 cycles: 7500714 heartbeat IPC: 3.99937 cumulative IPC: 3.99962 (Simulation time: 0 hr 1 min 52 sec) 
Heartbeat CPU 0 instructions: 40000000 cycles: 10000798 heartbeat IPC: 3.99987 cumulative IPC: 3.99969 (Simulation time: 0 hr 2 min 30 sec) 
Heartbeat CPU 0 instructions: 50000002 cycles: 12500952 heartbeat IPC: 3.99976 cumulative IPC: 3.9997 (Simulation time: 0 hr 3 min 8 sec) 
Warmup finished CPU 0 instructions: 50000002 cycles: 12500953 cumulative IPC: 3.9997 (Simulation time: 0 hr 3 min 8 sec) 

Warmup complete CPU 0 instructions: 50000002 cycles: 12500953 (Simulation time: 0 hr 3 min 8 sec) 

Heartbeat CPU 0 instructions: 60000000 cycles: 42823102 heartbeat IPC: 0.329792 cumulative IPC: 0.329792 (Simulation time: 0 hr 4 min 30 sec) 
Heartbeat CPU 0 instructions: 70000004 cycles: 72044481 heartbeat IPC: 0.342216 cumulative IPC: 0.335889 (Simulation time: 0 hr 5 min 50 sec) 
Heartbeat CPU 0 instructions: 80000001 cycles: 102121551 heartbeat IPC: 0.33248 cumulative IPC: 0.334745 (Simulation time: 0 hr 7 min 11 sec) 
Heartbeat CPU 0 instructions: 90000000 cycles: 130015119 heartbeat IPC: 0.358506 cumulative IPC: 0.340385 (Simulation time: 0 hr 8 min 34 sec) 
Heartbeat CPU 0 instructions: 100000001 cycles: 159561585 heartbeat IPC: 0.33845 cumulative IPC: 0.339996 (Simulation time: 0 hr 9 min 57 sec) 
Heartbeat CPU 0 instructions: 110000003 cycles: 189096403 heartbeat IPC: 0.338584 cumulative IPC: 0.33976 (Simulation time: 0 hr 11 min 17 sec) 
Heartbeat CPU 0 instructions: 120000002 cycles: 217436570 heartbeat IPC: 0.352857 cumulative IPC: 0.341571 (Simulation time: 0 hr 12 min 36 sec) 
Heartbeat CPU 0 instructions: 130000000 cycles: 248327917 heartbeat IPC: 0.323716 cumulative IPC: 0.339232 (Simulation time: 0 hr 13 min 58 sec) 
Heartbeat CPU 0 instructions: 140000000 cycles: 277642014 heartbeat IPC: 0.341133 cumulative IPC: 0.339442 (Simulation time: 0 hr 15 min 18 sec) 
Heartbeat CPU 0 instructions: 150000002 cycles: 307196575 heartbeat IPC: 0.338358 cumulative IPC: 0.339334 (Simulation time: 0 hr 16 min 39 sec) 
Simulation finished CPU 0 instructions: 100000000 cycles: 294695623 cumulative IPC: 0.339334 (Simulation time: 0 hr 16 min 39 sec) 

Simulation complete CPU 0 instructions: 100000000 cycles: 294695623 (Simulation time: 0 hr 16 min 39 sec) 


ChampSim completed all CPUs

Saving instructions large page distribution to /home/bsc/bsc018186/scratch/itp_asplos25_AE/dump/smt_srv12_ap_srv442_ap_1024i.pdst...
Saving data large page distribution to /home/bsc/bsc018186/scratch/itp_asplos25_AE/dump/smt_srv12_ap_srv442_ap_1024i.pdst...
=== Simulation ===
CPU 0 runs /gpfs/projects/bsc18/MN4/bsc18/romol/ChampSim/traces/qualcomm_srv/smt_srv12_ap_srv442_ap_1024i.champsimtrace.xz

Region of Interest Statistics

CPU 0 cumulative IPC: 0.339334 instructions: 100000000 cycles: 294695623
CPU 0 Branch Prediction Accuracy: 75.7426% MPKI: 43.9697 Average ROB Occupancy at Mispredict: 11.1567
Branch type MPKI
BRANCH_DIRECT_JUMP: 1.38601
BRANCH_INDIRECT: 23.1713
BRANCH_CONDITIONAL: 12.2361
BRANCH_DIRECT_CALL: 2.58698
BRANCH_INDIRECT_CALL: 1.12084
BRANCH_RETURN: 3.46853

Instructions large pages: 0
Instructions small pages: 11516
Large page distribution for instructions: 0%

Data large pages: 0
Data small pages: 9858
Large page distribution for data: 0%

cpu0_L1I TOTAL       ACCESS:   39023594  HIT:   30165985  MISS:    8857609  iACCESS:   39023594  iHIT:   30165985  iMISS:    8857609  dACCESS:          0  dHIT:          0  dMISS:          0  itACCESS:          0  itHIT:          0  itMISS:          0  dtACCESS:          0  dtHIT:          0  dtMISS:          0
cpu0_L1I LOAD         ACCESS:   11650849  HIT:    9218066  MISS:    2432783  iACCESS:   11650849  iHIT:    9218066  iMISS:    2432783  dACCESS:          0  dHIT:          0  dMISS:          0  itACCESS:          0  itHIT:          0  itMISS:          0  dtACCESS:          0  dtHIT:          0  dtMISS:          0
cpu0_L1I RFO          ACCESS:          0  HIT:          0  MISS:          0  iACCESS:          0  iHIT:          0  iMISS:          0  dACCESS:          0  dHIT:          0  dMISS:          0  itACCESS:          0  itHIT:          0  itMISS:          0  dtACCESS:          0  dtHIT:          0  dtMISS:          0
cpu0_L1I PREFETCH     ACCESS:   27372745  HIT:   20947919  MISS:    6424826  iACCESS:   27372745  iHIT:   20947919  iMISS:    6424826  dACCESS:          0  dHIT:          0  dMISS:          0  itACCESS:          0  itHIT:          0  itMISS:          0  dtACCESS:          0  dtHIT:          0  dtMISS:          0
cpu0_L1I WRITE        ACCESS:          0  HIT:          0  MISS:          0  iACCESS:          0  iHIT:          0  iMISS:          0  dACCESS:          0  dHIT:          0  dMISS:          0  itACCESS:          0  itHIT:          0  itMISS:          0  dtACCESS:          0  dtHIT:          0  dtMISS:          0
cpu0_L1I TRANSLATION  ACCESS:          0  HIT:          0  MISS:          0  iACCESS:          0  iHIT:          0  iMISS:          0  dACCESS:          0  dHIT:          0  dMISS:          0  itACCESS:          0  itHIT:          0  itMISS:          0  dtACCESS:          0  dtHIT:          0  dtMISS:          0
cpu0_L1I PREFETCH  REQUESTED:   30178739  ISSUED:   30178738  CROSSED:          0  USEFUL:    2232213  USELESS:     785946
cpu0_L1I AVERAGE iMISS LATENCY: 22.8411 cycles
cpu0_L1I AVERAGE dMISS LATENCY: 0 cycles
cpu0_L1I AVERAGE itMISS LATENCY: 0 cycles
cpu0_L1I AVERAGE dtMISS LATENCY: 0 cycles
cpu0_L1I PAGE CROSSINGS (TLB HIT):         0 
cpu0_L1I PAGE CROSSINGS (TLB MISS):         0 
cpu0_L1I AVERAGE MISS LATENCY: 22.8411 cycles
cpu0_ITLB TOTAL       ACCESS:   33044911  HIT:   30748459  MISS:    2296452  iACCESS:   33044911  iHIT:   30748459  iMISS:    2296452  dACCESS:          0  dHIT:          0  dMISS:          0  itACCESS:          0  itHIT:          0  itMISS:          0  dtACCESS:          0  dtHIT:          0  dtMISS:          0
cpu0_ITLB LOAD         ACCESS:   33044911  HIT:   30748459  MISS:    2296452  iACCESS:   33044911  iHIT:   30748459  iMISS:    2296452  dACCESS:          0  dHIT:          0  dMISS:          0  itACCESS:          0  itHIT:          0  itMISS:          0  dtACCESS:          0  dtHIT:          0  dtMISS:          0
cpu0_ITLB RFO          ACCESS:          0  HIT:          0  MISS:          0  iACCESS:          0  iHIT:          0  iMISS:          0  dACCESS:          0  dHIT:          0  dMISS:          0  itACCESS:          0  itHIT:          0  itMISS:          0  dtACCESS:          0  dtHIT:          0  dtMISS:          0
cpu0_ITLB PREFETCH     ACCESS:          0  HIT:          0  MISS:          0  iACCESS:          0  iHIT:          0  iMISS:          0  dACCESS:          0  dHIT:          0  dMISS:          0  itACCESS:          0  itHIT:          0  itMISS:          0  dtACCESS:          0  dtHIT:          0  dtMISS:          0
cpu0_ITLB WRITE        ACCESS:          0  HIT:          0  MISS:          0  iACCESS:          0  iHIT:          0  iMISS:          0  dACCESS:          0  dHIT:          0  dMISS:          0  itACCESS:          0  itHIT:          0  itMISS:          0  dtACCESS:          0  dtHIT:          0  dtMISS:          0
cpu0_ITLB TRANSLATION  ACCESS:          0  HIT:          0  MISS:          0  iACCESS:          0  iHIT:          0  iMISS:          0  dACCESS:          0  dHIT:          0  dMISS:          0  itACCESS:          0  itHIT:          0  itMISS:          0  dtACCESS:          0  dtHIT:          0  dtMISS:          0
cpu0_ITLB PREFETCH  REQUESTED:          0  ISSUED:          0  CROSSED:          0  USEFUL:     396054  USELESS:      84412
cpu0_ITLB AVERAGE iMISS LATENCY: 6.13516 cycles
cpu0_ITLB AVERAGE dMISS LATENCY: 0 cycles
cpu0_ITLB AVERAGE itMISS LATENCY: 0 cycles
cpu0_ITLB AVERAGE dtMISS LATENCY: 0 cycles
cpu0_ITLB PAGE CROSSINGS (TLB HIT):         0 
cpu0_ITLB PAGE CROSSINGS (TLB MISS):         0 
cpu0_ITLB AVERAGE MISS LATENCY: 6.13516 cycles
cpu0_DTLB TOTAL       ACCESS:   28949099  HIT:   25367927  MISS:    3581172  iACCESS:          0  iHIT:          0  iMISS:          0  dACCESS:   28949099  dHIT:   25367927  dMISS:    3581172  itACCESS:          0  itHIT:          0  itMISS:          0  dtACCESS:          0  dtHIT:          0  dtMISS:          0
cpu0_DTLB LOAD         ACCESS:   28949099  HIT:   25367927  MISS:    3581172  iACCESS:          0  iHIT:          0  iMISS:          0  dACCESS:   28949099  dHIT:   25367927  dMISS:    3581172  itACCESS:          0  itHIT:          0  itMISS:          0  dtACCESS:          0  dtHIT:          0  dtMISS:          0
cpu0_DTLB RFO          ACCESS:          0  HIT:          0  MISS:          0  iACCESS:          0  iHIT:          0  iMISS:          0  dACCESS:          0  dHIT:          0  dMISS:          0  itACCESS:          0  itHIT:          0  itMISS:          0  dtACCESS:          0  dtHIT:          0  dtMISS:          0
cpu0_DTLB PREFETCH     ACCESS:          0  HIT:          0  MISS:          0  iACCESS:          0  iHIT:          0  iMISS:          0  dACCESS:          0  dHIT:          0  dMISS:          0  itACCESS:          0  itHIT:          0  itMISS:          0  dtACCESS:          0  dtHIT:          0  dtMISS:          0
cpu0_DTLB WRITE        ACCESS:          0  HIT:          0  MISS:          0  iACCESS:          0  iHIT:          0  iMISS:          0  dACCESS:          0  dHIT:          0  dMISS:          0  itACCESS:          0  itHIT:          0  itMISS:          0  dtACCESS:          0  dtHIT:          0  dtMISS:          0
cpu0_DTLB TRANSLATION  ACCESS:          0  HIT:          0  MISS:          0  iACCESS:          0  iHIT:          0  iMISS:          0  dACCESS:          0  dHIT:          0  dMISS:          0  itACCESS:          0  itHIT:          0  itMISS:          0  dtACCESS:          0  dtHIT:          0  dtMISS:          0
cpu0_DTLB PREFETCH  REQUESTED:          0  ISSUED:          0  CROSSED:          0  USEFUL:          0  USELESS:          0
cpu0_DTLB AVERAGE iMISS LATENCY: 0 cycles
cpu0_DTLB AVERAGE dMISS LATENCY: 28.3743 cycles
cpu0_DTLB AVERAGE itMISS LATENCY: 0 cycles
cpu0_DTLB AVERAGE dtMISS LATENCY: 0 cycles
cpu0_DTLB PAGE CROSSINGS (TLB HIT):         0 
cpu0_DTLB PAGE CROSSINGS (TLB MISS):         0 
cpu0_DTLB AVERAGE MISS LATENCY: 28.3743 cycles
cpu0_STLB TOTAL       ACCESS:    2563035  HIT:    2199549  MISS:     363486  iACCESS:     480471  iHIT:     429816  iMISS:      50655  dACCESS:    2082564  dHIT:    1769733  dMISS:     312831  itACCESS:          0  itHIT:          0  itMISS:          0  dtACCESS:          0  dtHIT:          0  dtMISS:          0
cpu0_STLB LOAD         ACCESS:    2563035  HIT:    2199549  MISS:     363486  iACCESS:     480471  iHIT:     429816  iMISS:      50655  dACCESS:    2082564  dHIT:    1769733  dMISS:     312831  itACCESS:          0  itHIT:          0  itMISS:          0  dtACCESS:          0  dtHIT:          0  dtMISS:          0
cpu0_STLB RFO          ACCESS:          0  HIT:          0  MISS:          0  iACCESS:          0  iHIT:          0  iMISS:          0  dACCESS:          0  dHIT:          0  dMISS:          0  itACCESS:          0  itHIT:          0  itMISS:          0  dtACCESS:          0  dtHIT:          0  dtMISS:          0
cpu0_STLB PREFETCH     ACCESS:          0  HIT:          0  MISS:          0  iACCESS:          0  iHIT:          0  iMISS:          0  dACCESS:          0  dHIT:          0  dMISS:          0  itACCESS:          0  itHIT:          0  itMISS:          0  dtACCESS:          0  dtHIT:          0  dtMISS:          0
cpu0_STLB WRITE        ACCESS:          0  HIT:          0  MISS:          0  iACCESS:          0  iHIT:          0  iMISS:          0  dACCESS:          0  dHIT:          0  dMISS:          0  itACCESS:          0  itHIT:          0  itMISS:          0  dtACCESS:          0  dtHIT:          0  dtMISS:          0
cpu0_STLB TRANSLATION  ACCESS:          0  HIT:          0  MISS:          0  iACCESS:          0  iHIT:          0  iMISS:          0  dACCESS:          0  dHIT:          0  dMISS:          0  itACCESS:          0  itHIT:          0  itMISS:          0  dtACCESS:          0  dtHIT:          0  dtMISS:          0
cpu0_STLB PREFETCH  REQUESTED:          0  ISSUED:          0  CROSSED:          0  USEFUL:          0  USELESS:          0
cpu0_STLB AVERAGE iMISS LATENCY: 28.3903 cycles
cpu0_STLB AVERAGE dMISS LATENCY: 233.289 cycles
cpu0_STLB AVERAGE itMISS LATENCY: 0 cycles
cpu0_STLB AVERAGE dtMISS LATENCY: 0 cycles
cpu0_STLB PAGE CROSSINGS (TLB HIT):         0 
cpu0_STLB PAGE CROSSINGS (TLB MISS):         0 
cpu0_STLB AVERAGE MISS LATENCY: 261.679 cycles
cpu0_L1D TOTAL       ACCESS:   45070314  HIT:   39211485  MISS:    5858829  iACCESS:          0  iHIT:          0  iMISS:          0  dACCESS:   44500253  dHIT:   39183938  dMISS:    5316315  itACCESS:      62608  itHIT:       4422  itMISS:      58186  dtACCESS:     507453  dtHIT:      23125  dtMISS:     484328
cpu0_L1D LOAD         ACCESS:   20343533  HIT:   17958504  MISS:    2385029  iACCESS:          0  iHIT:          0  iMISS:          0  dACCESS:   20343533  dHIT:   17958504  dMISS:    2385029  itACCESS:          0  itHIT:          0  itMISS:          0  dtACCESS:          0  dtHIT:          0  dtMISS:          0
cpu0_L1D RFO          ACCESS:          0  HIT:          0  MISS:          0  iACCESS:          0  iHIT:          0  iMISS:          0  dACCESS:          0  dHIT:          0  dMISS:          0  itACCESS:          0  itHIT:          0  itMISS:          0  dtACCESS:          0  dtHIT:          0  dtMISS:          0
cpu0_L1D PREFETCH     ACCESS:   13987089  HIT:   11638325  MISS:    2348764  iACCESS:          0  iHIT:          0  iMISS:          0  dACCESS:   13987089  dHIT:   11638325  dMISS:    2348764  itACCESS:          0  itHIT:          0  itMISS:          0  dtACCESS:          0  dtHIT:          0  dtMISS:          0
cpu0_L1D WRITE        ACCESS:   10169631  HIT:    9587109  MISS:     582522  iACCESS:          0  iHIT:          0  iMISS:          0  dACCESS:   10169631  dHIT:    9587109  dMISS:     582522  itACCESS:          0  itHIT:          0  itMISS:          0  dtACCESS:          0  dtHIT:          0  dtMISS:          0
cpu0_L1D TRANSLATION  ACCESS:     570061  HIT:      27547  MISS:     542514  iACCESS:          0  iHIT:          0  iMISS:          0  dACCESS:          0  dHIT:          0  dMISS:          0  itACCESS:      62608  itHIT:       4422  itMISS:      58186  dtACCESS:     507453  dtHIT:      23125  dtMISS:     484328
cpu0_L1D PREFETCH  REQUESTED:   20343533  ISSUED:   18547239  CROSSED:          0  USEFUL:     361417  USELESS:     941710
cpu0_L1D AVERAGE iMISS LATENCY: 0 cycles
cpu0_L1D AVERAGE dMISS LATENCY: 49.8875 cycles
cpu0_L1D AVERAGE itMISS LATENCY: 1.65122 cycles
cpu0_L1D AVERAGE dtMISS LATENCY: 13.5513 cycles
cpu0_L1D PAGE CROSSINGS (TLB HIT):         0 
cpu0_L1D PAGE CROSSINGS (TLB MISS):         0 
cpu0_L1D AVERAGE MISS LATENCY: 65.09 cycles
cpu0_L2C TOTAL       ACCESS:    8722535  HIT:    4293975  MISS:    4428560  iACCESS:    3853625  iHIT:    2380968  iMISS:    1472657  dACCESS:    4364477  dHIT:    1850100  dMISS:    2514377  itACCESS:      56633  itHIT:       7477  itMISS:      49156  dtACCESS:     447800  dtHIT:      55430  dtMISS:     392370
cpu0_L2C LOAD         ACCESS:    2095732  HIT:    1037081  MISS:    1058651  iACCESS:     873199  iHIT:     563434  iMISS:     309765  dACCESS:    1222533  dHIT:     473647  dMISS:     748886  itACCESS:          0  itHIT:          0  itMISS:          0  dtACCESS:          0  dtHIT:          0  dtMISS:          0
cpu0_L2C RFO          ACCESS:     217530  HIT:      82358  MISS:     135172  iACCESS:          0  iHIT:          0  iMISS:          0  dACCESS:     217530  dHIT:      82358  dMISS:     135172  itACCESS:          0  itHIT:          0  itMISS:          0  dtACCESS:          0  dtHIT:          0  dtMISS:          0
cpu0_L2C PREFETCH     ACCESS:    5562317  HIT:    2773370  MISS:    2788947  iACCESS:    2980426  iHIT:    1817534  iMISS:    1162892  dACCESS:    2581891  dHIT:     955836  dMISS:    1626055  itACCESS:          0  itHIT:          0  itMISS:          0  dtACCESS:          0  dtHIT:          0  dtMISS:          0
cpu0_L2C WRITE        ACCESS:     342523  HIT:     338259  MISS:       4264  iACCESS:          0  iHIT:          0  iMISS:          0  dACCESS:     342523  dHIT:     338259  dMISS:       4264  itACCESS:          0  itHIT:          0  itMISS:          0  dtACCESS:          0  dtHIT:          0  dtMISS:          0
cpu0_L2C TRANSLATION  ACCESS:     504433  HIT:      62907  MISS:     441526  iACCESS:          0  iHIT:          0  iMISS:          0  dACCESS:          0  dHIT:          0  dMISS:          0  itACCESS:      56633  itHIT:       7477  itMISS:      49156  dtACCESS:     447800  dtHIT:      55430  dtMISS:     392370
cpu0_L2C PREFETCH  REQUESTED:    1534321  ISSUED:    1534315  CROSSED:          0  USEFUL:     359008  USELESS:     311318
cpu0_L2C AVERAGE iMISS LATENCY: 38.2519 cycles
cpu0_L2C AVERAGE dMISS LATENCY: 79.9467 cycles
cpu0_L2C AVERAGE itMISS LATENCY: 2.05788 cycles
cpu0_L2C AVERAGE dtMISS LATENCY: 16.9231 cycles
cpu0_L2C PAGE CROSSINGS (TLB HIT):         0 
cpu0_L2C PAGE CROSSINGS (TLB MISS):         0 
cpu0_L2C AVERAGE MISS LATENCY: 137.18 cycles
LLC TOTAL       ACCESS:    4434219  HIT:    1412568  MISS:    3021651  iACCESS:    1388652  iHIT:     489396  iMISS:     899256  dACCESS:    2604041  dHIT:     871557  dMISS:    1732484  itACCESS:      49156  itHIT:       3438  itMISS:      45718  dtACCESS:     392370  dtHIT:      48177  dtMISS:     344193
LLC LOAD         ACCESS:    1051204  HIT:     338516  MISS:     712688  iACCESS:     308565  iHIT:     116472  iMISS:     192093  dACCESS:     742639  dHIT:     222044  dMISS:     520595  itACCESS:          0  itHIT:          0  itMISS:          0  dtACCESS:          0  dtHIT:          0  dtMISS:          0
LLC RFO          ACCESS:     135168  HIT:      40117  MISS:      95051  iACCESS:          0  iHIT:          0  iMISS:          0  dACCESS:     135168  dHIT:      40117  dMISS:      95051  itACCESS:          0  itHIT:          0  itMISS:          0  dtACCESS:          0  dtHIT:          0  dtMISS:          0
LLC PREFETCH     ACCESS:    2596318  HIT:     782972  MISS:    1813346  iACCESS:    1080087  iHIT:     372924  iMISS:     707163  dACCESS:    1516231  dHIT:     410048  dMISS:    1106183  itACCESS:          0  itHIT:          0  itMISS:          0  dtACCESS:          0  dtHIT:          0  dtMISS:          0
LLC WRITE        ACCESS:     210003  HIT:     199348  MISS:      10655  iACCESS:          0  iHIT:          0  iMISS:          0  dACCESS:     210003  dHIT:     199348  dMISS:      10655  itACCESS:          0  itHIT:          0  itMISS:          0  dtACCESS:          0  dtHIT:          0  dtMISS:          0
LLC TRANSLATION  ACCESS:     441526  HIT:      51615  MISS:     389911  iACCESS:          0  iHIT:          0  iMISS:          0  dACCESS:          0  dHIT:          0  dMISS:          0  itACCESS:      49156  itHIT:       3438  itMISS:      45718  dtACCESS:     392370  dtHIT:      48177  dtMISS:     344193
LLC PREFETCH  REQUESTED:          0  ISSUED:          0  CROSSED:          0  USEFUL:          0  USELESS:          0
LLC AVERAGE iMISS LATENCY: 47.0309 cycles
LLC AVERAGE dMISS LATENCY: 102.429 cycles
LLC AVERAGE itMISS LATENCY: 2.69337 cycles
LLC AVERAGE dtMISS LATENCY: 22.2366 cycles
LLC PAGE CROSSINGS (TLB HIT):         0 
LLC PAGE CROSSINGS (TLB MISS):         0 
LLC AVERAGE MISS LATENCY: 174.39 cycles

PageTableWalker TOTAL       ACCESS:     170717  
PageTableWalker AVERAGE LATENCY: 6.82172 cycles
PageTableWalker TOTAL LATENCY: 1164582 cycles

DRAM Statistics
Channel 0
 RQ ROW_BUFFER_HIT:     646555
  ROW_BUFFER_MISS:    2345493
 AVG DBUS CONGESTED CYCLE:    3.64999
 WQ ROW_BUFFER_HIT:      65777
  ROW_BUFFER_MISS:      55856  FULL:          0

