last_page:0x200000000000000
VMEM_RES_CAP:0x100000
PAGE_SIZE:4096
LOG2_PAGE_SIZE:12
LOG2_PAGE_TABLE_SIZE:9
page_table_levels:5
WARNING: physical memory size is smaller than virtual memory size
FDiP enabled with aggresivity 16

*** ChampSim Multicore Out-of-Order Simulator ***

Warmup Instructions: 50000000
Simulation Instructions: 100000000
Number of CPUs: 1
Small page size: 4096
Large page size: 2097152

CPU 0 Bimodal branch predictor
Basic BTB sets: 1024 ways: 8 indirect buffer size: 4096 RAS size: 64
Instruction page size distrubution: 0
Loading instruction page size distribution from /home/bsc/bsc018186/scratch/itp_asplos25_AE/dump/smt_srv207_ap_srv551_ap_1024i.pdst
Data page size distrubution: 0
Loading data page size distribution from /home/bsc/bsc018186/scratch/itp_asplos25_AE/dump/smt_srv207_ap_srv551_ap_1024i.pdst
cpu0_L2C IP-based stride prefetcher
cpu0_L2C is using PTP replacement policy:
	TLB_STRESS_THRESHOLD:0
	PTE_EVICTION_RATIO:0
cpu0_L1D next line prefetcher
cpu0_STLB using iTP with max lru@8
cpu0_STLB using iTP with instr@0 and data@2
Init sat counter with 3 bits (max:50).
cpu0_L1I next line prefetcher
Off-chip DRAM Size: 4 GiB Channels: 1 Width: 64-bit Data Rate: 3200 MT/s
Heartbeat CPU 0 instructions: 10000003 cycles: 2500495 heartbeat IPC: 3.99921 cumulative IPC: 3.99921 (Simulation time: 0 hr 0 min 37 sec) 
Heartbeat CPU 0 instructions: 20000001 cycles: 5000998 heartbeat IPC: 3.9992 cumulative IPC: 3.99921 (Simulation time: 0 hr 1 min 16 sec) 
Heartbeat CPU 0 instructions: 30000000 cycles: 7501281 heartbeat IPC: 3.99955 cumulative IPC: 3.99932 (Simulation time: 0 hr 1 min 55 sec) 
Heartbeat CPU 0 instructions: 40000003 cycles: 10001424 heartbeat IPC: 3.99978 cumulative IPC: 3.99944 (Simulation time: 0 hr 2 min 34 sec) 
Heartbeat CPU 0 instructions: 50000000 cycles: 12501581 heartbeat IPC: 3.99975 cumulative IPC: 3.9995 (Simulation time: 0 hr 3 min 14 sec) 
Warmup finished CPU 0 instructions: 50000000 cycles: 12501582 cumulative IPC: 3.9995 (Simulation time: 0 hr 3 min 14 sec) 

Warmup complete CPU 0 instructions: 50000000 cycles: 12501582 (Simulation time: 0 hr 3 min 14 sec) 

Heartbeat CPU 0 instructions: 60000000 cycles: 43123776 heartbeat IPC: 0.326561 cumulative IPC: 0.326561 (Simulation time: 0 hr 4 min 37 sec) 
Heartbeat CPU 0 instructions: 70000000 cycles: 75252655 heartbeat IPC: 0.311247 cumulative IPC: 0.31872 (Simulation time: 0 hr 6 min 1 sec) 
Heartbeat CPU 0 instructions: 80000001 cycles: 106686228 heartbeat IPC: 0.318132 cumulative IPC: 0.318524 (Simulation time: 0 hr 7 min 25 sec) 
Heartbeat CPU 0 instructions: 90000000 cycles: 138042586 heartbeat IPC: 0.318915 cumulative IPC: 0.318621 (Simulation time: 0 hr 8 min 49 sec) 
Heartbeat CPU 0 instructions: 100000000 cycles: 168945399 heartbeat IPC: 0.323596 cumulative IPC: 0.319604 (Simulation time: 0 hr 10 min 12 sec) 
Heartbeat CPU 0 instructions: 110000000 cycles: 198684628 heartbeat IPC: 0.336257 cumulative IPC: 0.322264 (Simulation time: 0 hr 11 min 34 sec) 
Heartbeat CPU 0 instructions: 120000002 cycles: 224435690 heartbeat IPC: 0.388334 cumulative IPC: 0.330292 (Simulation time: 0 hr 12 min 51 sec) 
Heartbeat CPU 0 instructions: 130000000 cycles: 241126915 heartbeat IPC: 0.599118 cumulative IPC: 0.349918 (Simulation time: 0 hr 13 min 59 sec) 
Heartbeat CPU 0 instructions: 140000002 cycles: 260268900 heartbeat IPC: 0.522412 cumulative IPC: 0.363245 (Simulation time: 0 hr 15 min 9 sec) 
Heartbeat CPU 0 instructions: 150000000 cycles: 292183674 heartbeat IPC: 0.313335 cumulative IPC: 0.357549 (Simulation time: 0 hr 16 min 34 sec) 
Simulation finished CPU 0 instructions: 100000000 cycles: 279682093 cumulative IPC: 0.357549 (Simulation time: 0 hr 16 min 34 sec) 

Simulation complete CPU 0 instructions: 100000000 cycles: 279682093 (Simulation time: 0 hr 16 min 34 sec) 


ChampSim completed all CPUs

Saving instructions large page distribution to /home/bsc/bsc018186/scratch/itp_asplos25_AE/dump/smt_srv207_ap_srv551_ap_1024i.pdst...
Saving data large page distribution to /home/bsc/bsc018186/scratch/itp_asplos25_AE/dump/smt_srv207_ap_srv551_ap_1024i.pdst...
=== Simulation ===
CPU 0 runs /gpfs/projects/bsc18/MN4/bsc18/romol/ChampSim/traces/qualcomm_srv/smt_srv207_ap_srv551_ap_1024i.champsimtrace.xz

Region of Interest Statistics

CPU 0 cumulative IPC: 0.357549 instructions: 100000000 cycles: 279682093
CPU 0 Branch Prediction Accuracy: 77.4636% MPKI: 43.4302 Average ROB Occupancy at Mispredict: 11.3724
Branch type MPKI
BRANCH_DIRECT_JUMP: 1.27779
BRANCH_INDIRECT: 23.718
BRANCH_CONDITIONAL: 11.5725
BRANCH_DIRECT_CALL: 2.41065
BRANCH_INDIRECT_CALL: 1.08264
BRANCH_RETURN: 3.36874

Instructions large pages: 0
Instructions small pages: 11910
Large page distribution for instructions: 0%

Data large pages: 0
Data small pages: 10385
Large page distribution for data: 0%

cpu0_L1I TOTAL       ACCESS:   39660840  HIT:   31893918  MISS:    7766922  iACCESS:   39660840  iHIT:   31893918  iMISS:    7766922  dACCESS:          0  dHIT:          0  dMISS:          0  itACCESS:          0  itHIT:          0  itMISS:          0  dtACCESS:          0  dtHIT:          0  dtMISS:          0
cpu0_L1I LOAD         ACCESS:   11215646  HIT:    9097008  MISS:    2118638  iACCESS:   11215646  iHIT:    9097008  iMISS:    2118638  dACCESS:          0  dHIT:          0  dMISS:          0  itACCESS:          0  itHIT:          0  itMISS:          0  dtACCESS:          0  dtHIT:          0  dtMISS:          0
cpu0_L1I RFO          ACCESS:          0  HIT:          0  MISS:          0  iACCESS:          0  iHIT:          0  iMISS:          0  dACCESS:          0  dHIT:          0  dMISS:          0  itACCESS:          0  itHIT:          0  itMISS:          0  dtACCESS:          0  dtHIT:          0  dtMISS:          0
cpu0_L1I PREFETCH     ACCESS:   28445194  HIT:   22796910  MISS:    5648284  iACCESS:   28445194  iHIT:   22796910  iMISS:    5648284  dACCESS:          0  dHIT:          0  dMISS:          0  itACCESS:          0  itHIT:          0  itMISS:          0  dtACCESS:          0  dtHIT:          0  dtMISS:          0
cpu0_L1I WRITE        ACCESS:          0  HIT:          0  MISS:          0  iACCESS:          0  iHIT:          0  iMISS:          0  dACCESS:          0  dHIT:          0  dMISS:          0  itACCESS:          0  itHIT:          0  itMISS:          0  dtACCESS:          0  dtHIT:          0  dtMISS:          0
cpu0_L1I TRANSLATION  ACCESS:          0  HIT:          0  MISS:          0  iACCESS:          0  iHIT:          0  iMISS:          0  dACCESS:          0  dHIT:          0  dMISS:          0  itACCESS:          0  itHIT:          0  itMISS:          0  dtACCESS:          0  dtHIT:          0  dtMISS:          0
cpu0_L1I PREFETCH  REQUESTED:   31048437  ISSUED:   31048322  CROSSED:          0  USEFUL:    1964638  USELESS:     708265
cpu0_L1I AVERAGE iMISS LATENCY: 24.9471 cycles
cpu0_L1I AVERAGE dMISS LATENCY: 0 cycles
cpu0_L1I AVERAGE itMISS LATENCY: 0 cycles
cpu0_L1I AVERAGE dtMISS LATENCY: 0 cycles
cpu0_L1I PAGE CROSSINGS (TLB HIT):         0 
cpu0_L1I PAGE CROSSINGS (TLB MISS):         0 
cpu0_L1I AVERAGE MISS LATENCY: 24.9471 cycles
cpu0_ITLB TOTAL       ACCESS:   33453248  HIT:   31439668  MISS:    2013580  iACCESS:   33453248  iHIT:   31439668  iMISS:    2013580  dACCESS:          0  dHIT:          0  dMISS:          0  itACCESS:          0  itHIT:          0  itMISS:          0  dtACCESS:          0  dtHIT:          0  dtMISS:          0
cpu0_ITLB LOAD         ACCESS:   33453248  HIT:   31439668  MISS:    2013580  iACCESS:   33453248  iHIT:   31439668  iMISS:    2013580  dACCESS:          0  dHIT:          0  dMISS:          0  itACCESS:          0  itHIT:          0  itMISS:          0  dtACCESS:          0  dtHIT:          0  dtMISS:          0
cpu0_ITLB RFO          ACCESS:          0  HIT:          0  MISS:          0  iACCESS:          0  iHIT:          0  iMISS:          0  dACCESS:          0  dHIT:          0  dMISS:          0  itACCESS:          0  itHIT:          0  itMISS:          0  dtACCESS:          0  dtHIT:          0  dtMISS:          0
cpu0_ITLB PREFETCH     ACCESS:          0  HIT:          0  MISS:          0  iACCESS:          0  iHIT:          0  iMISS:          0  dACCESS:          0  dHIT:          0  dMISS:          0  itACCESS:          0  itHIT:          0  itMISS:          0  dtACCESS:          0  dtHIT:          0  dtMISS:          0
cpu0_ITLB WRITE        ACCESS:          0  HIT:          0  MISS:          0  iACCESS:          0  iHIT:          0  iMISS:          0  dACCESS:          0  dHIT:          0  dMISS:          0  itACCESS:          0  itHIT:          0  itMISS:          0  dtACCESS:          0  dtHIT:          0  dtMISS:          0
cpu0_ITLB TRANSLATION  ACCESS:          0  HIT:          0  MISS:          0  iACCESS:          0  iHIT:          0  iMISS:          0  dACCESS:          0  dHIT:          0  dMISS:          0  itACCESS:          0  itHIT:          0  itMISS:          0  dtACCESS:          0  dtHIT:          0  dtMISS:          0
cpu0_ITLB PREFETCH  REQUESTED:          0  ISSUED:          0  CROSSED:          0  USEFUL:     355703  USELESS:      74244
cpu0_ITLB AVERAGE iMISS LATENCY: 6.99301 cycles
cpu0_ITLB AVERAGE dMISS LATENCY: 0 cycles
cpu0_ITLB AVERAGE itMISS LATENCY: 0 cycles
cpu0_ITLB AVERAGE dtMISS LATENCY: 0 cycles
cpu0_ITLB PAGE CROSSINGS (TLB HIT):         0 
cpu0_ITLB PAGE CROSSINGS (TLB MISS):         0 
cpu0_ITLB AVERAGE MISS LATENCY: 6.99301 cycles
cpu0_DTLB TOTAL       ACCESS:   31109955  HIT:   25034306  MISS:    6075649  iACCESS:          0  iHIT:          0  iMISS:          0  dACCESS:   31109955  dHIT:   25034306  dMISS:    6075649  itACCESS:          0  itHIT:          0  itMISS:          0  dtACCESS:          0  dtHIT:          0  dtMISS:          0
cpu0_DTLB LOAD         ACCESS:   31109955  HIT:   25034306  MISS:    6075649  iACCESS:          0  iHIT:          0  iMISS:          0  dACCESS:   31109955  dHIT:   25034306  dMISS:    6075649  itACCESS:          0  itHIT:          0  itMISS:          0  dtACCESS:          0  dtHIT:          0  dtMISS:          0
cpu0_DTLB RFO          ACCESS:          0  HIT:          0  MISS:          0  iACCESS:          0  iHIT:          0  iMISS:          0  dACCESS:          0  dHIT:          0  dMISS:          0  itACCESS:          0  itHIT:          0  itMISS:          0  dtACCESS:          0  dtHIT:          0  dtMISS:          0
cpu0_DTLB PREFETCH     ACCESS:          0  HIT:          0  MISS:          0  iACCESS:          0  iHIT:          0  iMISS:          0  dACCESS:          0  dHIT:          0  dMISS:          0  itACCESS:          0  itHIT:          0  itMISS:          0  dtACCESS:          0  dtHIT:          0  dtMISS:          0
cpu0_DTLB WRITE        ACCESS:          0  HIT:          0  MISS:          0  iACCESS:          0  iHIT:          0  iMISS:          0  dACCESS:          0  dHIT:          0  dMISS:          0  itACCESS:          0  itHIT:          0  itMISS:          0  dtACCESS:          0  dtHIT:          0  dtMISS:          0
cpu0_DTLB TRANSLATION  ACCESS:          0  HIT:          0  MISS:          0  iACCESS:          0  iHIT:          0  iMISS:          0  dACCESS:          0  dHIT:          0  dMISS:          0  itACCESS:          0  itHIT:          0  itMISS:          0  dtACCESS:          0  dtHIT:          0  dtMISS:          0
cpu0_DTLB PREFETCH  REQUESTED:          0  ISSUED:          0  CROSSED:          0  USEFUL:          0  USELESS:          0
cpu0_DTLB AVERAGE iMISS LATENCY: 0 cycles
cpu0_DTLB AVERAGE dMISS LATENCY: 15.8273 cycles
cpu0_DTLB AVERAGE itMISS LATENCY: 0 cycles
cpu0_DTLB AVERAGE dtMISS LATENCY: 0 cycles
cpu0_DTLB PAGE CROSSINGS (TLB HIT):         0 
cpu0_DTLB PAGE CROSSINGS (TLB MISS):         0 
cpu0_DTLB AVERAGE MISS LATENCY: 15.8273 cycles
cpu0_STLB TOTAL       ACCESS:    3659656  HIT:    3327503  MISS:     332153  iACCESS:     429953  iHIT:     373763  iMISS:      56190  dACCESS:    3229703  dHIT:    2953740  dMISS:     275963  itACCESS:          0  itHIT:          0  itMISS:          0  dtACCESS:          0  dtHIT:          0  dtMISS:          0
cpu0_STLB LOAD         ACCESS:    3659656  HIT:    3327503  MISS:     332153  iACCESS:     429953  iHIT:     373763  iMISS:      56190  dACCESS:    3229703  dHIT:    2953740  dMISS:     275963  itACCESS:          0  itHIT:          0  itMISS:          0  dtACCESS:          0  dtHIT:          0  dtMISS:          0
cpu0_STLB RFO          ACCESS:          0  HIT:          0  MISS:          0  iACCESS:          0  iHIT:          0  iMISS:          0  dACCESS:          0  dHIT:          0  dMISS:          0  itACCESS:          0  itHIT:          0  itMISS:          0  dtACCESS:          0  dtHIT:          0  dtMISS:          0
cpu0_STLB PREFETCH     ACCESS:          0  HIT:          0  MISS:          0  iACCESS:          0  iHIT:          0  iMISS:          0  dACCESS:          0  dHIT:          0  dMISS:          0  itACCESS:          0  itHIT:          0  itMISS:          0  dtACCESS:          0  dtHIT:          0  dtMISS:          0
cpu0_STLB WRITE        ACCESS:          0  HIT:          0  MISS:          0  iACCESS:          0  iHIT:          0  iMISS:          0  dACCESS:          0  dHIT:          0  dMISS:          0  itACCESS:          0  itHIT:          0  itMISS:          0  dtACCESS:          0  dtHIT:          0  dtMISS:          0
cpu0_STLB TRANSLATION  ACCESS:          0  HIT:          0  MISS:          0  iACCESS:          0  iHIT:          0  iMISS:          0  dACCESS:          0  dHIT:          0  dMISS:          0  itACCESS:          0  itHIT:          0  itMISS:          0  dtACCESS:          0  dtHIT:          0  dtMISS:          0
cpu0_STLB PREFETCH  REQUESTED:          0  ISSUED:          0  CROSSED:          0  USEFUL:          0  USELESS:          0
cpu0_STLB AVERAGE iMISS LATENCY: 32.2013 cycles
cpu0_STLB AVERAGE dMISS LATENCY: 210.713 cycles
cpu0_STLB AVERAGE itMISS LATENCY: 0 cycles
cpu0_STLB AVERAGE dtMISS LATENCY: 0 cycles
cpu0_STLB PAGE CROSSINGS (TLB HIT):         0 
cpu0_STLB PAGE CROSSINGS (TLB MISS):         0 
cpu0_STLB AVERAGE MISS LATENCY: 242.914 cycles
cpu0_L1D TOTAL       ACCESS:   48403400  HIT:   40077318  MISS:    8326082  iACCESS:          0  iHIT:          0  iMISS:          0  dACCESS:   47904798  dHIT:   40053119  dMISS:    7851679  itACCESS:      65845  itHIT:       4865  itMISS:      60980  dtACCESS:     432757  dtHIT:      19334  dtMISS:     413423
cpu0_L1D LOAD         ACCESS:   23064193  HIT:   18657119  MISS:    4407074  iACCESS:          0  iHIT:          0  iMISS:          0  dACCESS:   23064193  dHIT:   18657119  dMISS:    4407074  itACCESS:          0  itHIT:          0  itMISS:          0  dtACCESS:          0  dtHIT:          0  dtMISS:          0
cpu0_L1D RFO          ACCESS:          0  HIT:          0  MISS:          0  iACCESS:          0  iHIT:          0  iMISS:          0  dACCESS:          0  dHIT:          0  dMISS:          0  itACCESS:          0  itHIT:          0  itMISS:          0  dtACCESS:          0  dtHIT:          0  dtMISS:          0
cpu0_L1D PREFETCH     ACCESS:   15093818  HIT:   12236298  MISS:    2857520  iACCESS:          0  iHIT:          0  iMISS:          0  dACCESS:   15093818  dHIT:   12236298  dMISS:    2857520  itACCESS:          0  itHIT:          0  itMISS:          0  dtACCESS:          0  dtHIT:          0  dtMISS:          0
cpu0_L1D WRITE        ACCESS:    9746787  HIT:    9159702  MISS:     587085  iACCESS:          0  iHIT:          0  iMISS:          0  dACCESS:    9746787  dHIT:    9159702  dMISS:     587085  itACCESS:          0  itHIT:          0  itMISS:          0  dtACCESS:          0  dtHIT:          0  dtMISS:          0
cpu0_L1D TRANSLATION  ACCESS:     498602  HIT:      24199  MISS:     474403  iACCESS:          0  iHIT:          0  iMISS:          0  dACCESS:          0  dHIT:          0  dMISS:          0  itACCESS:      65845  itHIT:       4865  itMISS:      60980  dtACCESS:     432757  dtHIT:      19334  dtMISS:     413423
cpu0_L1D PREFETCH  REQUESTED:   23064193  ISSUED:   19276721  CROSSED:          0  USEFUL:     346252  USELESS:    1182835
cpu0_L1D AVERAGE iMISS LATENCY: 0 cycles
cpu0_L1D AVERAGE dMISS LATENCY: 34.6464 cycles
cpu0_L1D AVERAGE itMISS LATENCY: 1.21377 cycles
cpu0_L1D AVERAGE dtMISS LATENCY: 7.8431 cycles
cpu0_L1D PAGE CROSSINGS (TLB HIT):         0 
cpu0_L1D PAGE CROSSINGS (TLB MISS):         0 
cpu0_L1D AVERAGE MISS LATENCY: 43.7033 cycles
cpu0_L2C TOTAL       ACCESS:   10054062  HIT:    5697869  MISS:    4356193  iACCESS:    3397820  iHIT:    1920299  iMISS:    1477521  dACCESS:    6205688  dHIT:    3707630  dMISS:    2498058  itACCESS:      60914  itHIT:       8383  itMISS:      52531  dtACCESS:     389640  dtHIT:      61557  dtMISS:     328083
cpu0_L2C LOAD         ACCESS:    3699033  HIT:    2607215  MISS:    1091818  iACCESS:     754129  iHIT:     433664  iMISS:     320465  dACCESS:    2944904  dHIT:    2173551  dMISS:     771353  itACCESS:          0  itHIT:          0  itMISS:          0  dtACCESS:          0  dtHIT:          0  dtMISS:          0
cpu0_L2C RFO          ACCESS:     233678  HIT:     106492  MISS:     127186  iACCESS:          0  iHIT:          0  iMISS:          0  dACCESS:     233678  dHIT:     106492  dMISS:     127186  itACCESS:          0  itHIT:          0  itMISS:          0  dtACCESS:          0  dtHIT:          0  dtMISS:          0
cpu0_L2C PREFETCH     ACCESS:    5343168  HIT:    2619494  MISS:    2723674  iACCESS:    2643691  iHIT:    1486635  iMISS:    1157056  dACCESS:    2699477  dHIT:    1132859  dMISS:    1566618  itACCESS:          0  itHIT:          0  itMISS:          0  dtACCESS:          0  dtHIT:          0  dtMISS:          0
cpu0_L2C WRITE        ACCESS:     327629  HIT:     294728  MISS:      32901  iACCESS:          0  iHIT:          0  iMISS:          0  dACCESS:     327629  dHIT:     294728  dMISS:      32901  itACCESS:          0  itHIT:          0  itMISS:          0  dtACCESS:          0  dtHIT:          0  dtMISS:          0
cpu0_L2C TRANSLATION  ACCESS:     450554  HIT:      69940  MISS:     380614  iACCESS:          0  iHIT:          0  iMISS:          0  dACCESS:          0  dHIT:          0  dMISS:          0  itACCESS:      60914  itHIT:       8383  itMISS:      52531  dtACCESS:     389640  dtHIT:      61557  dtMISS:     328083
cpu0_L2C PREFETCH  REQUESTED:    1379487  ISSUED:    1379444  CROSSED:          0  USEFUL:     314171  USELESS:     304256
cpu0_L2C AVERAGE iMISS LATENCY: 38.0661 cycles
cpu0_L2C AVERAGE dMISS LATENCY: 73.694 cycles
cpu0_L2C AVERAGE itMISS LATENCY: 2.18154 cycles
cpu0_L2C AVERAGE dtMISS LATENCY: 14.1053 cycles
cpu0_L2C PAGE CROSSINGS (TLB HIT):         0 
cpu0_L2C PAGE CROSSINGS (TLB MISS):         0 
cpu0_L2C AVERAGE MISS LATENCY: 128.047 cycles
LLC TOTAL       ACCESS:    4330313  HIT:    1565037  MISS:    2765276  iACCESS:    1402179  iHIT:     535324  iMISS:     866855  dACCESS:    2547520  dHIT:     981360  dMISS:    1566160  itACCESS:      52531  itHIT:       5145  itMISS:      47386  dtACCESS:     328083  dtHIT:      43208  dtMISS:     284875
LLC LOAD         ACCESS:    1084371  HIT:     436364  MISS:     648007  iACCESS:     319408  iHIT:     135322  iMISS:     184086  dACCESS:     764963  dHIT:     301042  dMISS:     463921  itACCESS:          0  itHIT:          0  itMISS:          0  dtACCESS:          0  dtHIT:          0  dtMISS:          0
LLC RFO          ACCESS:     127176  HIT:      44302  MISS:      82874  iACCESS:          0  iHIT:          0  iMISS:          0  dACCESS:     127176  dHIT:      44302  dMISS:      82874  itACCESS:          0  itHIT:          0  itMISS:          0  dtACCESS:          0  dtHIT:          0  dtMISS:          0
LLC PREFETCH     ACCESS:    2544679  HIT:     850660  MISS:    1694019  iACCESS:    1082771  iHIT:     400002  iMISS:     682769  dACCESS:    1461908  dHIT:     450658  dMISS:    1011250  itACCESS:          0  itHIT:          0  itMISS:          0  dtACCESS:          0  dtHIT:          0  dtMISS:          0
LLC WRITE        ACCESS:     193473  HIT:     185358  MISS:       8115  iACCESS:          0  iHIT:          0  iMISS:          0  dACCESS:     193473  dHIT:     185358  dMISS:       8115  itACCESS:          0  itHIT:          0  itMISS:          0  dtACCESS:          0  dtHIT:          0  dtMISS:          0
LLC TRANSLATION  ACCESS:     380614  HIT:      48353  MISS:     332261  iACCESS:          0  iHIT:          0  iMISS:          0  dACCESS:          0  dHIT:          0  dMISS:          0  itACCESS:      52531  itHIT:       5145  itMISS:      47386  dtACCESS:     328083  dtHIT:      43208  dtMISS:     284875
LLC PREFETCH  REQUESTED:          0  ISSUED:          0  CROSSED:          0  USEFUL:          0  USELESS:          0
LLC AVERAGE iMISS LATENCY: 50.0091 cycles
LLC AVERAGE dMISS LATENCY: 100.251 cycles
LLC AVERAGE itMISS LATENCY: 3.06024 cycles
LLC AVERAGE dtMISS LATENCY: 19.8762 cycles
LLC PAGE CROSSINGS (TLB HIT):         0 
LLC PAGE CROSSINGS (TLB MISS):         0 
LLC AVERAGE MISS LATENCY: 173.196 cycles

PageTableWalker TOTAL       ACCESS:     188573  
PageTableWalker AVERAGE LATENCY: 6.61483 cycles
PageTableWalker TOTAL LATENCY: 1247378 cycles

DRAM Statistics
Channel 0
 RQ ROW_BUFFER_HIT:     590795
  ROW_BUFFER_MISS:    2149376
 AVG DBUS CONGESTED CYCLE:    3.65251
 WQ ROW_BUFFER_HIT:      58375
  ROW_BUFFER_MISS:      50793  FULL:          0

