last_page:0x200000000000000
VMEM_RES_CAP:0x100000
PAGE_SIZE:4096
LOG2_PAGE_SIZE:12
LOG2_PAGE_TABLE_SIZE:9
page_table_levels:5
WARNING: physical memory size is smaller than virtual memory size
FDiP enabled with aggresivity 16

*** ChampSim Multicore Out-of-Order Simulator ***

Warmup Instructions: 50000000
Simulation Instructions: 100000000
Number of CPUs: 1
Small page size: 4096
Large page size: 2097152

CPU 0 Bimodal branch predictor
Basic BTB sets: 1024 ways: 8 indirect buffer size: 4096 RAS size: 64
Instruction page size distrubution: 0
Loading instruction page size distribution from /home/bsc/bsc018186/scratch/itp_asplos25_AE/dump/smt_srv85_ap_srv346_ap_1024i.pdst
Data page size distrubution: 0
Loading data page size distribution from /home/bsc/bsc018186/scratch/itp_asplos25_AE/dump/smt_srv85_ap_srv346_ap_1024i.pdst
cpu0_L2C IP-based stride prefetcher
cpu0_L1D next line prefetcher
cpu0_STLB using iTP with max lru@8
cpu0_STLB using iTP with instr@0 and data@2
Init sat counter with 3 bits (max:50).
cpu0_L1I next line prefetcher
Off-chip DRAM Size: 4 GiB Channels: 1 Width: 64-bit Data Rate: 3200 MT/s
Heartbeat CPU 0 instructions: 10000000 cycles: 2500315 heartbeat IPC: 3.9995 cumulative IPC: 3.9995 (Simulation time: 0 hr 0 min 39 sec) 
Heartbeat CPU 0 instructions: 20000003 cycles: 5000396 heartbeat IPC: 3.99988 cumulative IPC: 3.99969 (Simulation time: 0 hr 1 min 20 sec) 
Heartbeat CPU 0 instructions: 30000003 cycles: 7500505 heartbeat IPC: 3.99983 cumulative IPC: 3.99974 (Simulation time: 0 hr 2 min 1 sec) 
Heartbeat CPU 0 instructions: 40000002 cycles: 10000699 heartbeat IPC: 3.99969 cumulative IPC: 3.99973 (Simulation time: 0 hr 2 min 43 sec) 
Heartbeat CPU 0 instructions: 50000003 cycles: 12500730 heartbeat IPC: 3.99996 cumulative IPC: 3.99977 (Simulation time: 0 hr 3 min 25 sec) 
Warmup finished CPU 0 instructions: 50000003 cycles: 12500731 cumulative IPC: 3.99977 (Simulation time: 0 hr 3 min 25 sec) 

Warmup complete CPU 0 instructions: 50000003 cycles: 12500731 (Simulation time: 0 hr 3 min 25 sec) 

Heartbeat CPU 0 instructions: 60000000 cycles: 41857355 heartbeat IPC: 0.340639 cumulative IPC: 0.340639 (Simulation time: 0 hr 4 min 50 sec) 
Heartbeat CPU 0 instructions: 70000003 cycles: 71044282 heartbeat IPC: 0.34262 cumulative IPC: 0.341627 (Simulation time: 0 hr 6 min 15 sec) 
Heartbeat CPU 0 instructions: 80000002 cycles: 100409725 heartbeat IPC: 0.340537 cumulative IPC: 0.341262 (Simulation time: 0 hr 7 min 40 sec) 
Heartbeat CPU 0 instructions: 90000002 cycles: 128658328 heartbeat IPC: 0.354 cumulative IPC: 0.34436 (Simulation time: 0 hr 9 min 3 sec) 
Heartbeat CPU 0 instructions: 100000000 cycles: 158156468 heartbeat IPC: 0.339005 cumulative IPC: 0.343276 (Simulation time: 0 hr 10 min 28 sec) 
Heartbeat CPU 0 instructions: 110000002 cycles: 187702217 heartbeat IPC: 0.338459 cumulative IPC: 0.342463 (Simulation time: 0 hr 11 min 53 sec) 
Heartbeat CPU 0 instructions: 120000000 cycles: 216617677 heartbeat IPC: 0.345836 cumulative IPC: 0.342941 (Simulation time: 0 hr 13 min 18 sec) 
Heartbeat CPU 0 instructions: 130000002 cycles: 245549381 heartbeat IPC: 0.345642 cumulative IPC: 0.343276 (Simulation time: 0 hr 14 min 40 sec) 
Heartbeat CPU 0 instructions: 140000004 cycles: 274971994 heartbeat IPC: 0.339875 cumulative IPC: 0.342895 (Simulation time: 0 hr 16 min 3 sec) 
Heartbeat CPU 0 instructions: 150000002 cycles: 304648519 heartbeat IPC: 0.336967 cumulative IPC: 0.342293 (Simulation time: 0 hr 17 min 26 sec) 
Simulation finished CPU 0 instructions: 100000004 cycles: 292147790 cumulative IPC: 0.342293 (Simulation time: 0 hr 17 min 26 sec) 

Simulation complete CPU 0 instructions: 100000004 cycles: 292147790 (Simulation time: 0 hr 17 min 26 sec) 


ChampSim completed all CPUs

Saving instructions large page distribution to /home/bsc/bsc018186/scratch/itp_asplos25_AE/dump/smt_srv85_ap_srv346_ap_1024i.pdst...
Saving data large page distribution to /home/bsc/bsc018186/scratch/itp_asplos25_AE/dump/smt_srv85_ap_srv346_ap_1024i.pdst...
=== Simulation ===
CPU 0 runs /gpfs/projects/bsc18/MN4/bsc18/romol/ChampSim/traces/qualcomm_srv/smt_srv85_ap_srv346_ap_1024i.champsimtrace.xz

Region of Interest Statistics

CPU 0 cumulative IPC: 0.342293 instructions: 100000004 cycles: 292147790
CPU 0 Branch Prediction Accuracy: 75.947% MPKI: 43.2219 Average ROB Occupancy at Mispredict: 11.6087
Branch type MPKI
BRANCH_DIRECT_JUMP: 1.29361
BRANCH_INDIRECT: 22.5598
BRANCH_CONDITIONAL: 12.5539
BRANCH_DIRECT_CALL: 2.47788
BRANCH_INDIRECT_CALL: 0.91463
BRANCH_RETURN: 3.42202

Instructions large pages: 0
Instructions small pages: 13169
Large page distribution for instructions: 0%

Data large pages: 0
Data small pages: 11885
Large page distribution for data: 0%

cpu0_L1I TOTAL       ACCESS:   38848086  HIT:   30171812  MISS:    8676274  iACCESS:   38848086  iHIT:   30171812  iMISS:    8676274  dACCESS:          0  dHIT:          0  dMISS:          0  itACCESS:          0  itHIT:          0  itMISS:          0  dtACCESS:          0  dtHIT:          0  dtMISS:          0
cpu0_L1I LOAD         ACCESS:   11647277  HIT:    9277282  MISS:    2369995  iACCESS:   11647277  iHIT:    9277282  iMISS:    2369995  dACCESS:          0  dHIT:          0  dMISS:          0  itACCESS:          0  itHIT:          0  itMISS:          0  dtACCESS:          0  dtHIT:          0  dtMISS:          0
cpu0_L1I RFO          ACCESS:          0  HIT:          0  MISS:          0  iACCESS:          0  iHIT:          0  iMISS:          0  dACCESS:          0  dHIT:          0  dMISS:          0  itACCESS:          0  itHIT:          0  itMISS:          0  dtACCESS:          0  dtHIT:          0  dtMISS:          0
cpu0_L1I PREFETCH     ACCESS:   27200809  HIT:   20894530  MISS:    6306279  iACCESS:   27200809  iHIT:   20894530  iMISS:    6306279  dACCESS:          0  dHIT:          0  dMISS:          0  itACCESS:          0  itHIT:          0  itMISS:          0  dtACCESS:          0  dtHIT:          0  dtMISS:          0
cpu0_L1I WRITE        ACCESS:          0  HIT:          0  MISS:          0  iACCESS:          0  iHIT:          0  iMISS:          0  dACCESS:          0  dHIT:          0  dMISS:          0  itACCESS:          0  itHIT:          0  itMISS:          0  dtACCESS:          0  dtHIT:          0  dtMISS:          0
cpu0_L1I TRANSLATION  ACCESS:          0  HIT:          0  MISS:          0  iACCESS:          0  iHIT:          0  iMISS:          0  dACCESS:          0  dHIT:          0  dMISS:          0  itACCESS:          0  itHIT:          0  itMISS:          0  dtACCESS:          0  dtHIT:          0  dtMISS:          0
cpu0_L1I PREFETCH  REQUESTED:   30025643  ISSUED:   30025587  CROSSED:          0  USEFUL:    2190926  USELESS:     753314
cpu0_L1I AVERAGE iMISS LATENCY: 23.6251 cycles
cpu0_L1I AVERAGE dMISS LATENCY: 0 cycles
cpu0_L1I AVERAGE itMISS LATENCY: 0 cycles
cpu0_L1I AVERAGE dtMISS LATENCY: 0 cycles
cpu0_L1I PAGE CROSSINGS (TLB HIT):         0 
cpu0_L1I PAGE CROSSINGS (TLB MISS):         0 
cpu0_L1I AVERAGE MISS LATENCY: 23.6251 cycles
cpu0_ITLB TOTAL       ACCESS:   32816224  HIT:   30612922  MISS:    2203302  iACCESS:   32816224  iHIT:   30612922  iMISS:    2203302  dACCESS:          0  dHIT:          0  dMISS:          0  itACCESS:          0  itHIT:          0  itMISS:          0  dtACCESS:          0  dtHIT:          0  dtMISS:          0
cpu0_ITLB LOAD         ACCESS:   32816224  HIT:   30612922  MISS:    2203302  iACCESS:   32816224  iHIT:   30612922  iMISS:    2203302  dACCESS:          0  dHIT:          0  dMISS:          0  itACCESS:          0  itHIT:          0  itMISS:          0  dtACCESS:          0  dtHIT:          0  dtMISS:          0
cpu0_ITLB RFO          ACCESS:          0  HIT:          0  MISS:          0  iACCESS:          0  iHIT:          0  iMISS:          0  dACCESS:          0  dHIT:          0  dMISS:          0  itACCESS:          0  itHIT:          0  itMISS:          0  dtACCESS:          0  dtHIT:          0  dtMISS:          0
cpu0_ITLB PREFETCH     ACCESS:          0  HIT:          0  MISS:          0  iACCESS:          0  iHIT:          0  iMISS:          0  dACCESS:          0  dHIT:          0  dMISS:          0  itACCESS:          0  itHIT:          0  itMISS:          0  dtACCESS:          0  dtHIT:          0  dtMISS:          0
cpu0_ITLB WRITE        ACCESS:          0  HIT:          0  MISS:          0  iACCESS:          0  iHIT:          0  iMISS:          0  dACCESS:          0  dHIT:          0  dMISS:          0  itACCESS:          0  itHIT:          0  itMISS:          0  dtACCESS:          0  dtHIT:          0  dtMISS:          0
cpu0_ITLB TRANSLATION  ACCESS:          0  HIT:          0  MISS:          0  iACCESS:          0  iHIT:          0  iMISS:          0  dACCESS:          0  dHIT:          0  dMISS:          0  itACCESS:          0  itHIT:          0  itMISS:          0  dtACCESS:          0  dtHIT:          0  dtMISS:          0
cpu0_ITLB PREFETCH  REQUESTED:          0  ISSUED:          0  CROSSED:          0  USEFUL:     383171  USELESS:      77591
cpu0_ITLB AVERAGE iMISS LATENCY: 6.2197 cycles
cpu0_ITLB AVERAGE dMISS LATENCY: 0 cycles
cpu0_ITLB AVERAGE itMISS LATENCY: 0 cycles
cpu0_ITLB AVERAGE dtMISS LATENCY: 0 cycles
cpu0_ITLB PAGE CROSSINGS (TLB HIT):         0 
cpu0_ITLB PAGE CROSSINGS (TLB MISS):         0 
cpu0_ITLB AVERAGE MISS LATENCY: 6.2197 cycles
cpu0_DTLB TOTAL       ACCESS:   28755177  HIT:   25063129  MISS:    3692048  iACCESS:          0  iHIT:          0  iMISS:          0  dACCESS:   28755177  dHIT:   25063129  dMISS:    3692048  itACCESS:          0  itHIT:          0  itMISS:          0  dtACCESS:          0  dtHIT:          0  dtMISS:          0
cpu0_DTLB LOAD         ACCESS:   28755177  HIT:   25063129  MISS:    3692048  iACCESS:          0  iHIT:          0  iMISS:          0  dACCESS:   28755177  dHIT:   25063129  dMISS:    3692048  itACCESS:          0  itHIT:          0  itMISS:          0  dtACCESS:          0  dtHIT:          0  dtMISS:          0
cpu0_DTLB RFO          ACCESS:          0  HIT:          0  MISS:          0  iACCESS:          0  iHIT:          0  iMISS:          0  dACCESS:          0  dHIT:          0  dMISS:          0  itACCESS:          0  itHIT:          0  itMISS:          0  dtACCESS:          0  dtHIT:          0  dtMISS:          0
cpu0_DTLB PREFETCH     ACCESS:          0  HIT:          0  MISS:          0  iACCESS:          0  iHIT:          0  iMISS:          0  dACCESS:          0  dHIT:          0  dMISS:          0  itACCESS:          0  itHIT:          0  itMISS:          0  dtACCESS:          0  dtHIT:          0  dtMISS:          0
cpu0_DTLB WRITE        ACCESS:          0  HIT:          0  MISS:          0  iACCESS:          0  iHIT:          0  iMISS:          0  dACCESS:          0  dHIT:          0  dMISS:          0  itACCESS:          0  itHIT:          0  itMISS:          0  dtACCESS:          0  dtHIT:          0  dtMISS:          0
cpu0_DTLB TRANSLATION  ACCESS:          0  HIT:          0  MISS:          0  iACCESS:          0  iHIT:          0  iMISS:          0  dACCESS:          0  dHIT:          0  dMISS:          0  itACCESS:          0  itHIT:          0  itMISS:          0  dtACCESS:          0  dtHIT:          0  dtMISS:          0
cpu0_DTLB PREFETCH  REQUESTED:          0  ISSUED:          0  CROSSED:          0  USEFUL:          0  USELESS:          0
cpu0_DTLB AVERAGE iMISS LATENCY: 0 cycles
cpu0_DTLB AVERAGE dMISS LATENCY: 27.5952 cycles
cpu0_DTLB AVERAGE itMISS LATENCY: 0 cycles
cpu0_DTLB AVERAGE dtMISS LATENCY: 0 cycles
cpu0_DTLB PAGE CROSSINGS (TLB HIT):         0 
cpu0_DTLB PAGE CROSSINGS (TLB MISS):         0 
cpu0_DTLB AVERAGE MISS LATENCY: 27.5952 cycles
cpu0_STLB TOTAL       ACCESS:    2596192  HIT:    2228939  MISS:     367253  iACCESS:     460772  iHIT:     409314  iMISS:      51458  dACCESS:    2135420  dHIT:    1819625  dMISS:     315795  itACCESS:          0  itHIT:          0  itMISS:          0  dtACCESS:          0  dtHIT:          0  dtMISS:          0
cpu0_STLB LOAD         ACCESS:    2596192  HIT:    2228939  MISS:     367253  iACCESS:     460772  iHIT:     409314  iMISS:      51458  dACCESS:    2135420  dHIT:    1819625  dMISS:     315795  itACCESS:          0  itHIT:          0  itMISS:          0  dtACCESS:          0  dtHIT:          0  dtMISS:          0
cpu0_STLB RFO          ACCESS:          0  HIT:          0  MISS:          0  iACCESS:          0  iHIT:          0  iMISS:          0  dACCESS:          0  dHIT:          0  dMISS:          0  itACCESS:          0  itHIT:          0  itMISS:          0  dtACCESS:          0  dtHIT:          0  dtMISS:          0
cpu0_STLB PREFETCH     ACCESS:          0  HIT:          0  MISS:          0  iACCESS:          0  iHIT:          0  iMISS:          0  dACCESS:          0  dHIT:          0  dMISS:          0  itACCESS:          0  itHIT:          0  itMISS:          0  dtACCESS:          0  dtHIT:          0  dtMISS:          0
cpu0_STLB WRITE        ACCESS:          0  HIT:          0  MISS:          0  iACCESS:          0  iHIT:          0  iMISS:          0  dACCESS:          0  dHIT:          0  dMISS:          0  itACCESS:          0  itHIT:          0  itMISS:          0  dtACCESS:          0  dtHIT:          0  dtMISS:          0
cpu0_STLB TRANSLATION  ACCESS:          0  HIT:          0  MISS:          0  iACCESS:          0  iHIT:          0  iMISS:          0  dACCESS:          0  dHIT:          0  dMISS:          0  itACCESS:          0  itHIT:          0  itMISS:          0  dtACCESS:          0  dtHIT:          0  dtMISS:          0
cpu0_STLB PREFETCH  REQUESTED:          0  ISSUED:          0  CROSSED:          0  USEFUL:          0  USELESS:          0
cpu0_STLB AVERAGE iMISS LATENCY: 27.4661 cycles
cpu0_STLB AVERAGE dMISS LATENCY: 230.476 cycles
cpu0_STLB AVERAGE itMISS LATENCY: 0 cycles
cpu0_STLB AVERAGE dtMISS LATENCY: 0 cycles
cpu0_STLB PAGE CROSSINGS (TLB HIT):         0 
cpu0_STLB PAGE CROSSINGS (TLB MISS):         0 
cpu0_STLB AVERAGE MISS LATENCY: 257.942 cycles
cpu0_L1D TOTAL       ACCESS:   44417718  HIT:   39037725  MISS:    5379993  iACCESS:          0  iHIT:          0  iMISS:          0  dACCESS:   43850758  dHIT:   39008193  dMISS:    4842565  itACCESS:      61988  itHIT:       5085  itMISS:      56903  dtACCESS:     504972  dtHIT:      24447  dtMISS:     480525
cpu0_L1D LOAD         ACCESS:   20004046  HIT:   17840635  MISS:    2163411  iACCESS:          0  iHIT:          0  iMISS:          0  dACCESS:   20004046  dHIT:   17840635  dMISS:    2163411  itACCESS:          0  itHIT:          0  itMISS:          0  dtACCESS:          0  dtHIT:          0  dtMISS:          0
cpu0_L1D RFO          ACCESS:          0  HIT:          0  MISS:          0  iACCESS:          0  iHIT:          0  iMISS:          0  dACCESS:          0  dHIT:          0  dMISS:          0  itACCESS:          0  itHIT:          0  itMISS:          0  dtACCESS:          0  dtHIT:          0  dtMISS:          0
cpu0_L1D PREFETCH     ACCESS:   13708900  HIT:   11588723  MISS:    2120177  iACCESS:          0  iHIT:          0  iMISS:          0  dACCESS:   13708900  dHIT:   11588723  dMISS:    2120177  itACCESS:          0  itHIT:          0  itMISS:          0  dtACCESS:          0  dtHIT:          0  dtMISS:          0
cpu0_L1D WRITE        ACCESS:   10137812  HIT:    9578835  MISS:     558977  iACCESS:          0  iHIT:          0  iMISS:          0  dACCESS:   10137812  dHIT:    9578835  dMISS:     558977  itACCESS:          0  itHIT:          0  itMISS:          0  dtACCESS:          0  dtHIT:          0  dtMISS:          0
cpu0_L1D TRANSLATION  ACCESS:     566960  HIT:      29532  MISS:     537428  iACCESS:          0  iHIT:          0  iMISS:          0  dACCESS:          0  dHIT:          0  dMISS:          0  itACCESS:      61988  itHIT:       5085  itMISS:      56903  dtACCESS:     504972  dtHIT:      24447  dtMISS:     480525
cpu0_L1D PREFETCH  REQUESTED:   20004046  ISSUED:   18330611  CROSSED:          0  USEFUL:     356872  USELESS:     936526
cpu0_L1D AVERAGE iMISS LATENCY: 0 cycles
cpu0_L1D AVERAGE dMISS LATENCY: 51.2501 cycles
cpu0_L1D AVERAGE itMISS LATENCY: 1.77323 cycles
cpu0_L1D AVERAGE dtMISS LATENCY: 14.6139 cycles
cpu0_L1D PAGE CROSSINGS (TLB HIT):         0 
cpu0_L1D PAGE CROSSINGS (TLB MISS):         0 
cpu0_L1D AVERAGE MISS LATENCY: 67.6371 cycles
cpu0_L2C TOTAL       ACCESS:    8578728  HIT:    4233686  MISS:    4345042  iACCESS:    3749459  iHIT:    2321098  iMISS:    1428361  dACCESS:    4319149  dHIT:    1846628  dMISS:    2472521  itACCESS:      56395  itHIT:       8092  itMISS:      48303  dtACCESS:     453725  dtHIT:      57868  dtMISS:     395857
cpu0_L2C LOAD         ACCESS:    2055417  HIT:    1028780  MISS:    1026637  iACCESS:     843585  iHIT:     548647  iMISS:     294938  dACCESS:    1211832  dHIT:     480133  dMISS:     731699  itACCESS:          0  itHIT:          0  itMISS:          0  dtACCESS:          0  dtHIT:          0  dtMISS:          0
cpu0_L2C RFO          ACCESS:     210666  HIT:      83834  MISS:     126832  iACCESS:          0  iHIT:          0  iMISS:          0  dACCESS:     210666  dHIT:      83834  dMISS:     126832  itACCESS:          0  itHIT:          0  itMISS:          0  dtACCESS:          0  dtHIT:          0  dtMISS:          0
cpu0_L2C PREFETCH     ACCESS:    5455716  HIT:    2711915  MISS:    2743801  iACCESS:    2905874  iHIT:    1772451  iMISS:    1133423  dACCESS:    2549842  dHIT:     939464  dMISS:    1610378  itACCESS:          0  itHIT:          0  itMISS:          0  dtACCESS:          0  dtHIT:          0  dtMISS:          0
cpu0_L2C WRITE        ACCESS:     346809  HIT:     343197  MISS:       3612  iACCESS:          0  iHIT:          0  iMISS:          0  dACCESS:     346809  dHIT:     343197  dMISS:       3612  itACCESS:          0  itHIT:          0  itMISS:          0  dtACCESS:          0  dtHIT:          0  dtMISS:          0
cpu0_L2C TRANSLATION  ACCESS:     510120  HIT:      65960  MISS:     444160  iACCESS:          0  iHIT:          0  iMISS:          0  dACCESS:          0  dHIT:          0  dMISS:          0  itACCESS:      56395  itHIT:       8092  itMISS:      48303  dtACCESS:     453725  dtHIT:      57868  dtMISS:     395857
cpu0_L2C PREFETCH  REQUESTED:    1500071  ISSUED:    1500070  CROSSED:          0  USEFUL:     352276  USELESS:     318700
cpu0_L2C AVERAGE iMISS LATENCY: 39.8884 cycles
cpu0_L2C AVERAGE dMISS LATENCY: 78.9556 cycles
cpu0_L2C AVERAGE itMISS LATENCY: 2.06731 cycles
cpu0_L2C AVERAGE dtMISS LATENCY: 17.0573 cycles
cpu0_L2C PAGE CROSSINGS (TLB HIT):         0 
cpu0_L2C PAGE CROSSINGS (TLB MISS):         0 
cpu0_L2C AVERAGE MISS LATENCY: 137.969 cycles
LLC TOTAL       ACCESS:    4344146  HIT:    1342434  MISS:    3001712  iACCESS:    1336304  iHIT:     416916  iMISS:     919388  dACCESS:    2563682  dHIT:     869593  dMISS:    1694089  itACCESS:      48303  itHIT:       3346  itMISS:      44957  dtACCESS:     395857  dtHIT:      52579  dtMISS:     343278
LLC LOAD         ACCESS:    1021324  HIT:     334777  MISS:     686547  iACCESS:     293682  iHIT:      99782  iMISS:     193900  dACCESS:     727642  dHIT:     234995  dMISS:     492647  itACCESS:          0  itHIT:          0  itMISS:          0  dtACCESS:          0  dtHIT:          0  dtMISS:          0
LLC RFO          ACCESS:     126828  HIT:      39693  MISS:      87135  iACCESS:          0  iHIT:          0  iMISS:          0  dACCESS:     126828  dHIT:      39693  dMISS:      87135  itACCESS:          0  itHIT:          0  itMISS:          0  dtACCESS:          0  dtHIT:          0  dtMISS:          0
LLC PREFETCH     ACCESS:    2537386  HIT:     708534  MISS:    1828852  iACCESS:    1042622  iHIT:     317134  iMISS:     725488  dACCESS:    1494764  dHIT:     391400  dMISS:    1103364  itACCESS:          0  itHIT:          0  itMISS:          0  dtACCESS:          0  dtHIT:          0  dtMISS:          0
LLC WRITE        ACCESS:     214448  HIT:     203505  MISS:      10943  iACCESS:          0  iHIT:          0  iMISS:          0  dACCESS:     214448  dHIT:     203505  dMISS:      10943  itACCESS:          0  itHIT:          0  itMISS:          0  dtACCESS:          0  dtHIT:          0  dtMISS:          0
LLC TRANSLATION  ACCESS:     444160  HIT:      55925  MISS:     388235  iACCESS:          0  iHIT:          0  iMISS:          0  dACCESS:          0  dHIT:          0  dMISS:          0  itACCESS:      48303  itHIT:       3346  itMISS:      44957  dtACCESS:     395857  dtHIT:      52579  dtMISS:     343278
LLC PREFETCH  REQUESTED:          0  ISSUED:          0  CROSSED:          0  USEFUL:          0  USELESS:          0
LLC AVERAGE iMISS LATENCY: 48.9679 cycles
LLC AVERAGE dMISS LATENCY: 99.5482 cycles
LLC AVERAGE itMISS LATENCY: 2.67337 cycles
LLC AVERAGE dtMISS LATENCY: 22.0853 cycles
LLC PAGE CROSSINGS (TLB HIT):         0 
LLC PAGE CROSSINGS (TLB MISS):         0 
LLC AVERAGE MISS LATENCY: 173.275 cycles

PageTableWalker TOTAL       ACCESS:     180274  
PageTableWalker AVERAGE LATENCY: 6.85557 cycles
PageTableWalker TOTAL LATENCY: 1235880 cycles

DRAM Statistics
Channel 0
 RQ ROW_BUFFER_HIT:     630627
  ROW_BUFFER_MISS:    2349662
 AVG DBUS CONGESTED CYCLE:    3.64913
 WQ ROW_BUFFER_HIT:      65441
  ROW_BUFFER_MISS:      56746  FULL:          0

