last_page:0x200000000000000
VMEM_RES_CAP:0x100000
PAGE_SIZE:4096
LOG2_PAGE_SIZE:12
LOG2_PAGE_TABLE_SIZE:9
page_table_levels:5
WARNING: physical memory size is smaller than virtual memory size
FDiP enabled with aggresivity 16

*** ChampSim Multicore Out-of-Order Simulator ***

Warmup Instructions: 50000000
Simulation Instructions: 100000000
Number of CPUs: 1
Small page size: 4096
Large page size: 2097152

CPU 0 Bimodal branch predictor
Basic BTB sets: 1024 ways: 8 indirect buffer size: 4096 RAS size: 64
Instruction page size distrubution: 0
Loading instruction page size distribution from /home/bsc/bsc018186/scratch/itp_asplos25_AE/dump/smt_srv85_ap_srv697_ap_1024i.pdst
Data page size distrubution: 0
Loading data page size distribution from /home/bsc/bsc018186/scratch/itp_asplos25_AE/dump/smt_srv85_ap_srv697_ap_1024i.pdst
cpu0_L2C IP-based stride prefetcher
cpu0_L1D next line prefetcher
CHiRPing...
cpu0_L1I next line prefetcher
Off-chip DRAM Size: 4 GiB Channels: 1 Width: 64-bit Data Rate: 3200 MT/s
Heartbeat CPU 0 instructions: 10000002 cycles: 2500324 heartbeat IPC: 3.99949 cumulative IPC: 3.99949 (Simulation time: 0 hr 0 min 41 sec) 
Heartbeat CPU 0 instructions: 20000002 cycles: 5000782 heartbeat IPC: 3.99927 cumulative IPC: 3.99938 (Simulation time: 0 hr 1 min 24 sec) 
Heartbeat CPU 0 instructions: 30000001 cycles: 7501152 heartbeat IPC: 3.99941 cumulative IPC: 3.99939 (Simulation time: 0 hr 2 min 8 sec) 
Heartbeat CPU 0 instructions: 40000003 cycles: 10001290 heartbeat IPC: 3.99979 cumulative IPC: 3.99949 (Simulation time: 0 hr 2 min 52 sec) 
Heartbeat CPU 0 instructions: 50000003 cycles: 12501601 heartbeat IPC: 3.99951 cumulative IPC: 3.99949 (Simulation time: 0 hr 3 min 36 sec) 
Warmup finished CPU 0 instructions: 50000003 cycles: 12501602 cumulative IPC: 3.99949 (Simulation time: 0 hr 3 min 36 sec) 

Warmup complete CPU 0 instructions: 50000003 cycles: 12501602 (Simulation time: 0 hr 3 min 36 sec) 

Heartbeat CPU 0 instructions: 60000003 cycles: 42174299 heartbeat IPC: 0.337011 cumulative IPC: 0.337011 (Simulation time: 0 hr 5 min 7 sec) 
Heartbeat CPU 0 instructions: 70000002 cycles: 70797239 heartbeat IPC: 0.349371 cumulative IPC: 0.343079 (Simulation time: 0 hr 6 min 36 sec) 
Heartbeat CPU 0 instructions: 80000002 cycles: 100100221 heartbeat IPC: 0.341263 cumulative IPC: 0.342472 (Simulation time: 0 hr 8 min 6 sec) 
Heartbeat CPU 0 instructions: 90000002 cycles: 130103172 heartbeat IPC: 0.333301 cumulative IPC: 0.340132 (Simulation time: 0 hr 9 min 36 sec) 
Heartbeat CPU 0 instructions: 100000000 cycles: 159452488 heartbeat IPC: 0.340724 cumulative IPC: 0.34025 (Simulation time: 0 hr 11 min 7 sec) 
Heartbeat CPU 0 instructions: 110000002 cycles: 188488616 heartbeat IPC: 0.344399 cumulative IPC: 0.340935 (Simulation time: 0 hr 12 min 41 sec) 
Heartbeat CPU 0 instructions: 120000001 cycles: 218001910 heartbeat IPC: 0.338831 cumulative IPC: 0.340633 (Simulation time: 0 hr 14 min 11 sec) 
Heartbeat CPU 0 instructions: 130000004 cycles: 247347947 heartbeat IPC: 0.340762 cumulative IPC: 0.340649 (Simulation time: 0 hr 15 min 40 sec) 
Heartbeat CPU 0 instructions: 140000004 cycles: 275813328 heartbeat IPC: 0.351304 cumulative IPC: 0.341801 (Simulation time: 0 hr 17 min 9 sec) 
Heartbeat CPU 0 instructions: 150000001 cycles: 305328737 heartbeat IPC: 0.338806 cumulative IPC: 0.341499 (Simulation time: 0 hr 18 min 39 sec) 
Simulation finished CPU 0 instructions: 100000003 cycles: 292827137 cumulative IPC: 0.341499 (Simulation time: 0 hr 18 min 39 sec) 

Simulation complete CPU 0 instructions: 100000003 cycles: 292827137 (Simulation time: 0 hr 18 min 39 sec) 


ChampSim completed all CPUs

Saving instructions large page distribution to /home/bsc/bsc018186/scratch/itp_asplos25_AE/dump/smt_srv85_ap_srv697_ap_1024i.pdst...
Saving data large page distribution to /home/bsc/bsc018186/scratch/itp_asplos25_AE/dump/smt_srv85_ap_srv697_ap_1024i.pdst...
=== Simulation ===
CPU 0 runs /gpfs/projects/bsc18/MN4/bsc18/romol/ChampSim/traces/qualcomm_srv/smt_srv85_ap_srv697_ap_1024i.champsimtrace.xz

Region of Interest Statistics

CPU 0 cumulative IPC: 0.341499 instructions: 100000003 cycles: 292827137
CPU 0 Branch Prediction Accuracy: 75.8097% MPKI: 43.476 Average ROB Occupancy at Mispredict: 11.4343
Branch type MPKI
BRANCH_DIRECT_JUMP: 1.31006
BRANCH_INDIRECT: 22.7115
BRANCH_CONDITIONAL: 12.6022
BRANCH_DIRECT_CALL: 2.48505
BRANCH_INDIRECT_CALL: 0.92767
BRANCH_RETURN: 3.43951

Instructions large pages: 0
Instructions small pages: 13219
Large page distribution for instructions: 0%

Data large pages: 0
Data small pages: 11961
Large page distribution for data: 0%

cpu0_L1I TOTAL       ACCESS:   39069909  HIT:   30382849  MISS:    8687060  iACCESS:   39069909  iHIT:   30382849  iMISS:    8687060  dACCESS:          0  dHIT:          0  dMISS:          0  itACCESS:          0  itHIT:          0  itMISS:          0  dtACCESS:          0  dtHIT:          0  dtMISS:          0
cpu0_L1I LOAD         ACCESS:   11748320  HIT:    9376628  MISS:    2371692  iACCESS:   11748320  iHIT:    9376628  iMISS:    2371692  dACCESS:          0  dHIT:          0  dMISS:          0  itACCESS:          0  itHIT:          0  itMISS:          0  dtACCESS:          0  dtHIT:          0  dtMISS:          0
cpu0_L1I RFO          ACCESS:          0  HIT:          0  MISS:          0  iACCESS:          0  iHIT:          0  iMISS:          0  dACCESS:          0  dHIT:          0  dMISS:          0  itACCESS:          0  itHIT:          0  itMISS:          0  dtACCESS:          0  dtHIT:          0  dtMISS:          0
cpu0_L1I PREFETCH     ACCESS:   27321589  HIT:   21006221  MISS:    6315368  iACCESS:   27321589  iHIT:   21006221  iMISS:    6315368  dACCESS:          0  dHIT:          0  dMISS:          0  itACCESS:          0  itHIT:          0  itMISS:          0  dtACCESS:          0  dtHIT:          0  dtMISS:          0
cpu0_L1I WRITE        ACCESS:          0  HIT:          0  MISS:          0  iACCESS:          0  iHIT:          0  iMISS:          0  dACCESS:          0  dHIT:          0  dMISS:          0  itACCESS:          0  itHIT:          0  itMISS:          0  dtACCESS:          0  dtHIT:          0  dtMISS:          0
cpu0_L1I TRANSLATION  ACCESS:          0  HIT:          0  MISS:          0  iACCESS:          0  iHIT:          0  iMISS:          0  dACCESS:          0  dHIT:          0  dMISS:          0  itACCESS:          0  itHIT:          0  itMISS:          0  dtACCESS:          0  dtHIT:          0  dtMISS:          0
cpu0_L1I PREFETCH  REQUESTED:   30190192  ISSUED:   30190168  CROSSED:          0  USEFUL:    2197934  USELESS:     754818
cpu0_L1I AVERAGE iMISS LATENCY: 23.4335 cycles
cpu0_L1I AVERAGE dMISS LATENCY: 0 cycles
cpu0_L1I AVERAGE itMISS LATENCY: 0 cycles
cpu0_L1I AVERAGE dtMISS LATENCY: 0 cycles
cpu0_L1I PAGE CROSSINGS (TLB HIT):         0 
cpu0_L1I PAGE CROSSINGS (TLB MISS):         0 
cpu0_L1I AVERAGE MISS LATENCY: 23.4335 cycles
cpu0_ITLB TOTAL       ACCESS:   32977293  HIT:   30774917  MISS:    2202376  iACCESS:   32977293  iHIT:   30774917  iMISS:    2202376  dACCESS:          0  dHIT:          0  dMISS:          0  itACCESS:          0  itHIT:          0  itMISS:          0  dtACCESS:          0  dtHIT:          0  dtMISS:          0
cpu0_ITLB LOAD         ACCESS:   32977293  HIT:   30774917  MISS:    2202376  iACCESS:   32977293  iHIT:   30774917  iMISS:    2202376  dACCESS:          0  dHIT:          0  dMISS:          0  itACCESS:          0  itHIT:          0  itMISS:          0  dtACCESS:          0  dtHIT:          0  dtMISS:          0
cpu0_ITLB RFO          ACCESS:          0  HIT:          0  MISS:          0  iACCESS:          0  iHIT:          0  iMISS:          0  dACCESS:          0  dHIT:          0  dMISS:          0  itACCESS:          0  itHIT:          0  itMISS:          0  dtACCESS:          0  dtHIT:          0  dtMISS:          0
cpu0_ITLB PREFETCH     ACCESS:          0  HIT:          0  MISS:          0  iACCESS:          0  iHIT:          0  iMISS:          0  dACCESS:          0  dHIT:          0  dMISS:          0  itACCESS:          0  itHIT:          0  itMISS:          0  dtACCESS:          0  dtHIT:          0  dtMISS:          0
cpu0_ITLB WRITE        ACCESS:          0  HIT:          0  MISS:          0  iACCESS:          0  iHIT:          0  iMISS:          0  dACCESS:          0  dHIT:          0  dMISS:          0  itACCESS:          0  itHIT:          0  itMISS:          0  dtACCESS:          0  dtHIT:          0  dtMISS:          0
cpu0_ITLB TRANSLATION  ACCESS:          0  HIT:          0  MISS:          0  iACCESS:          0  iHIT:          0  iMISS:          0  dACCESS:          0  dHIT:          0  dMISS:          0  itACCESS:          0  itHIT:          0  itMISS:          0  dtACCESS:          0  dtHIT:          0  dtMISS:          0
cpu0_ITLB PREFETCH  REQUESTED:          0  ISSUED:          0  CROSSED:          0  USEFUL:     383510  USELESS:      77752
cpu0_ITLB AVERAGE iMISS LATENCY: 9.94265 cycles
cpu0_ITLB AVERAGE dMISS LATENCY: 0 cycles
cpu0_ITLB AVERAGE itMISS LATENCY: 0 cycles
cpu0_ITLB AVERAGE dtMISS LATENCY: 0 cycles
cpu0_ITLB PAGE CROSSINGS (TLB HIT):         0 
cpu0_ITLB PAGE CROSSINGS (TLB MISS):         0 
cpu0_ITLB AVERAGE MISS LATENCY: 9.94265 cycles
cpu0_DTLB TOTAL       ACCESS:   28766605  HIT:   25040287  MISS:    3726318  iACCESS:          0  iHIT:          0  iMISS:          0  dACCESS:   28766605  dHIT:   25040287  dMISS:    3726318  itACCESS:          0  itHIT:          0  itMISS:          0  dtACCESS:          0  dtHIT:          0  dtMISS:          0
cpu0_DTLB LOAD         ACCESS:   28766605  HIT:   25040287  MISS:    3726318  iACCESS:          0  iHIT:          0  iMISS:          0  dACCESS:   28766605  dHIT:   25040287  dMISS:    3726318  itACCESS:          0  itHIT:          0  itMISS:          0  dtACCESS:          0  dtHIT:          0  dtMISS:          0
cpu0_DTLB RFO          ACCESS:          0  HIT:          0  MISS:          0  iACCESS:          0  iHIT:          0  iMISS:          0  dACCESS:          0  dHIT:          0  dMISS:          0  itACCESS:          0  itHIT:          0  itMISS:          0  dtACCESS:          0  dtHIT:          0  dtMISS:          0
cpu0_DTLB PREFETCH     ACCESS:          0  HIT:          0  MISS:          0  iACCESS:          0  iHIT:          0  iMISS:          0  dACCESS:          0  dHIT:          0  dMISS:          0  itACCESS:          0  itHIT:          0  itMISS:          0  dtACCESS:          0  dtHIT:          0  dtMISS:          0
cpu0_DTLB WRITE        ACCESS:          0  HIT:          0  MISS:          0  iACCESS:          0  iHIT:          0  iMISS:          0  dACCESS:          0  dHIT:          0  dMISS:          0  itACCESS:          0  itHIT:          0  itMISS:          0  dtACCESS:          0  dtHIT:          0  dtMISS:          0
cpu0_DTLB TRANSLATION  ACCESS:          0  HIT:          0  MISS:          0  iACCESS:          0  iHIT:          0  iMISS:          0  dACCESS:          0  dHIT:          0  dMISS:          0  itACCESS:          0  itHIT:          0  itMISS:          0  dtACCESS:          0  dtHIT:          0  dtMISS:          0
cpu0_DTLB PREFETCH  REQUESTED:          0  ISSUED:          0  CROSSED:          0  USEFUL:          0  USELESS:          0
cpu0_DTLB AVERAGE iMISS LATENCY: 0 cycles
cpu0_DTLB AVERAGE dMISS LATENCY: 24.3321 cycles
cpu0_DTLB AVERAGE itMISS LATENCY: 0 cycles
cpu0_DTLB AVERAGE dtMISS LATENCY: 0 cycles
cpu0_DTLB PAGE CROSSINGS (TLB HIT):         0 
cpu0_DTLB PAGE CROSSINGS (TLB MISS):         0 
cpu0_DTLB AVERAGE MISS LATENCY: 24.3321 cycles
cpu0_STLB TOTAL       ACCESS:    2619700  HIT:    2251909  MISS:     367791  iACCESS:     461263  iHIT:     353391  iMISS:     107872  dACCESS:    2158437  dHIT:    1898518  dMISS:     259919  itACCESS:          0  itHIT:          0  itMISS:          0  dtACCESS:          0  dtHIT:          0  dtMISS:          0
cpu0_STLB LOAD         ACCESS:    2619700  HIT:    2251909  MISS:     367791  iACCESS:     461263  iHIT:     353391  iMISS:     107872  dACCESS:    2158437  dHIT:    1898518  dMISS:     259919  itACCESS:          0  itHIT:          0  itMISS:          0  dtACCESS:          0  dtHIT:          0  dtMISS:          0
cpu0_STLB RFO          ACCESS:          0  HIT:          0  MISS:          0  iACCESS:          0  iHIT:          0  iMISS:          0  dACCESS:          0  dHIT:          0  dMISS:          0  itACCESS:          0  itHIT:          0  itMISS:          0  dtACCESS:          0  dtHIT:          0  dtMISS:          0
cpu0_STLB PREFETCH     ACCESS:          0  HIT:          0  MISS:          0  iACCESS:          0  iHIT:          0  iMISS:          0  dACCESS:          0  dHIT:          0  dMISS:          0  itACCESS:          0  itHIT:          0  itMISS:          0  dtACCESS:          0  dtHIT:          0  dtMISS:          0
cpu0_STLB WRITE        ACCESS:          0  HIT:          0  MISS:          0  iACCESS:          0  iHIT:          0  iMISS:          0  dACCESS:          0  dHIT:          0  dMISS:          0  itACCESS:          0  itHIT:          0  itMISS:          0  dtACCESS:          0  dtHIT:          0  dtMISS:          0
cpu0_STLB TRANSLATION  ACCESS:          0  HIT:          0  MISS:          0  iACCESS:          0  iHIT:          0  iMISS:          0  dACCESS:          0  dHIT:          0  dMISS:          0  itACCESS:          0  itHIT:          0  itMISS:          0  dtACCESS:          0  dtHIT:          0  dtMISS:          0
cpu0_STLB PREFETCH  REQUESTED:          0  ISSUED:          0  CROSSED:          0  USEFUL:          0  USELESS:          0
cpu0_STLB AVERAGE iMISS LATENCY: 49.5232 cycles
cpu0_STLB AVERAGE dMISS LATENCY: 199.306 cycles
cpu0_STLB AVERAGE itMISS LATENCY: 0 cycles
cpu0_STLB AVERAGE dtMISS LATENCY: 0 cycles
cpu0_STLB PAGE CROSSINGS (TLB HIT):         0 
cpu0_STLB PAGE CROSSINGS (TLB MISS):         0 
cpu0_STLB AVERAGE MISS LATENCY: 248.829 cycles
cpu0_L1D TOTAL       ACCESS:   44347490  HIT:   39087430  MISS:    5260060  iACCESS:          0  iHIT:          0  iMISS:          0  dACCESS:   43804172  dHIT:   39053344  dMISS:    4750828  itACCESS:     123234  itHIT:      14560  itMISS:     108674  dtACCESS:     420084  dtHIT:      19526  dtMISS:     400558
cpu0_L1D LOAD         ACCESS:   19967600  HIT:   17850732  MISS:    2116868  iACCESS:          0  iHIT:          0  iMISS:          0  dACCESS:   19967600  dHIT:   17850732  dMISS:    2116868  itACCESS:          0  itHIT:          0  itMISS:          0  dtACCESS:          0  dtHIT:          0  dtMISS:          0
cpu0_L1D RFO          ACCESS:          0  HIT:          0  MISS:          0  iACCESS:          0  iHIT:          0  iMISS:          0  dACCESS:          0  dHIT:          0  dMISS:          0  itACCESS:          0  itHIT:          0  itMISS:          0  dtACCESS:          0  dtHIT:          0  dtMISS:          0
cpu0_L1D PREFETCH     ACCESS:   13697114  HIT:   11620225  MISS:    2076889  iACCESS:          0  iHIT:          0  iMISS:          0  dACCESS:   13697114  dHIT:   11620225  dMISS:    2076889  itACCESS:          0  itHIT:          0  itMISS:          0  dtACCESS:          0  dtHIT:          0  dtMISS:          0
cpu0_L1D WRITE        ACCESS:   10139458  HIT:    9582387  MISS:     557071  iACCESS:          0  iHIT:          0  iMISS:          0  dACCESS:   10139458  dHIT:    9582387  dMISS:     557071  itACCESS:          0  itHIT:          0  itMISS:          0  dtACCESS:          0  dtHIT:          0  dtMISS:          0
cpu0_L1D TRANSLATION  ACCESS:     543318  HIT:      34086  MISS:     509232  iACCESS:          0  iHIT:          0  iMISS:          0  dACCESS:          0  dHIT:          0  dMISS:          0  itACCESS:     123234  itHIT:      14560  itMISS:     108674  dtACCESS:     420084  dtHIT:      19526  dtMISS:     400558
cpu0_L1D PREFETCH  REQUESTED:   19967600  ISSUED:   18344102  CROSSED:          0  USEFUL:     357122  USELESS:     931746
cpu0_L1D AVERAGE iMISS LATENCY: 0 cycles
cpu0_L1D AVERAGE dMISS LATENCY: 51.7271 cycles
cpu0_L1D AVERAGE itMISS LATENCY: 3.27262 cycles
cpu0_L1D AVERAGE dtMISS LATENCY: 12.91 cycles
cpu0_L1D PAGE CROSSINGS (TLB HIT):         0 
cpu0_L1D PAGE CROSSINGS (TLB MISS):         0 
cpu0_L1D AVERAGE MISS LATENCY: 67.9096 cycles
cpu0_L2C TOTAL       ACCESS:    8549136  HIT:    4184745  MISS:    4364391  iACCESS:    3757292  iHIT:    2297348  iMISS:    1459944  dACCESS:    4311954  dHIT:    1828423  dMISS:    2483531  itACCESS:     106328  itHIT:      19114  itMISS:      87214  dtACCESS:     373562  dtHIT:      39860  dtMISS:     333702
cpu0_L2C LOAD         ACCESS:    2049776  HIT:    1010867  MISS:    1038909  iACCESS:     843682  iHIT:     540619  iMISS:     303063  dACCESS:    1206094  dHIT:     470248  dMISS:     735846  itACCESS:          0  itHIT:          0  itMISS:          0  dtACCESS:          0  dtHIT:          0  dtMISS:          0
cpu0_L2C RFO          ACCESS:     209766  HIT:      82756  MISS:     127010  iACCESS:          0  iHIT:          0  iMISS:          0  dACCESS:     209766  dHIT:      82756  dMISS:     127010  itACCESS:          0  itHIT:          0  itMISS:          0  dtACCESS:          0  dtHIT:          0  dtMISS:          0
cpu0_L2C PREFETCH     ACCESS:    5463482  HIT:    2690140  MISS:    2773342  iACCESS:    2913610  iHIT:    1756729  iMISS:    1156881  dACCESS:    2549872  dHIT:     933411  dMISS:    1616461  itACCESS:          0  itHIT:          0  itMISS:          0  dtACCESS:          0  dtHIT:          0  dtMISS:          0
cpu0_L2C WRITE        ACCESS:     346222  HIT:     342008  MISS:       4214  iACCESS:          0  iHIT:          0  iMISS:          0  dACCESS:     346222  dHIT:     342008  dMISS:       4214  itACCESS:          0  itHIT:          0  itMISS:          0  dtACCESS:          0  dtHIT:          0  dtMISS:          0
cpu0_L2C TRANSLATION  ACCESS:     479890  HIT:      58974  MISS:     420916  iACCESS:          0  iHIT:          0  iMISS:          0  dACCESS:          0  dHIT:          0  dMISS:          0  itACCESS:     106328  itHIT:      19114  itMISS:      87214  dtACCESS:     373562  dtHIT:      39860  dtMISS:     333702
cpu0_L2C PREFETCH  REQUESTED:    1506404  ISSUED:    1506400  CROSSED:          0  USEFUL:     360351  USELESS:     317987
cpu0_L2C AVERAGE iMISS LATENCY: 39.3361 cycles
cpu0_L2C AVERAGE dMISS LATENCY: 77.4216 cycles
cpu0_L2C AVERAGE itMISS LATENCY: 3.7043 cycles
cpu0_L2C AVERAGE dtMISS LATENCY: 14.7075 cycles
cpu0_L2C PAGE CROSSINGS (TLB HIT):         0 
cpu0_L2C PAGE CROSSINGS (TLB MISS):         0 
cpu0_L2C AVERAGE MISS LATENCY: 135.17 cycles
LLC TOTAL       ACCESS:    4366355  HIT:    1396283  MISS:    2970072  iACCESS:    1369230  iHIT:     452236  iMISS:     916994  dACCESS:    2576209  dHIT:     902220  dMISS:    1673989  itACCESS:      87214  itHIT:       6539  itMISS:      80675  dtACCESS:     333702  dtHIT:      35288  dtMISS:     298414
LLC LOAD         ACCESS:    1033142  HIT:     349799  MISS:     683343  iACCESS:     301757  iHIT:     105739  iMISS:     196018  dACCESS:     731385  dHIT:     244060  dMISS:     487325  itACCESS:          0  itHIT:          0  itMISS:          0  dtACCESS:          0  dtHIT:          0  dtMISS:          0
LLC RFO          ACCESS:     127005  HIT:      40809  MISS:      86196  iACCESS:          0  iHIT:          0  iMISS:          0  dACCESS:     127005  dHIT:      40809  dMISS:      86196  itACCESS:          0  itHIT:          0  itMISS:          0  dtACCESS:          0  dtHIT:          0  dtMISS:          0
LLC PREFETCH     ACCESS:    2570187  HIT:     758989  MISS:    1811198  iACCESS:    1067473  iHIT:     346497  iMISS:     720976  dACCESS:    1502714  dHIT:     412492  dMISS:    1090222  itACCESS:          0  itHIT:          0  itMISS:          0  dtACCESS:          0  dtHIT:          0  dtMISS:          0
LLC WRITE        ACCESS:     215105  HIT:     204859  MISS:      10246  iACCESS:          0  iHIT:          0  iMISS:          0  dACCESS:     215105  dHIT:     204859  dMISS:      10246  itACCESS:          0  itHIT:          0  itMISS:          0  dtACCESS:          0  dtHIT:          0  dtMISS:          0
LLC TRANSLATION  ACCESS:     420916  HIT:      41827  MISS:     379089  iACCESS:          0  iHIT:          0  iMISS:          0  dACCESS:          0  dHIT:          0  dMISS:          0  itACCESS:      87214  itHIT:       6539  itMISS:      80675  dtACCESS:     333702  dtHIT:      35288  dtMISS:     298414
LLC PREFETCH  REQUESTED:          0  ISSUED:          0  CROSSED:          0  USEFUL:          0  USELESS:          0
LLC AVERAGE iMISS LATENCY: 48.7232 cycles
LLC AVERAGE dMISS LATENCY: 98.7975 cycles
LLC AVERAGE itMISS LATENCY: 4.86095 cycles
LLC AVERAGE dtMISS LATENCY: 19.3907 cycles
LLC PAGE CROSSINGS (TLB HIT):         0 
LLC PAGE CROSSINGS (TLB MISS):         0 
LLC AVERAGE MISS LATENCY: 171.773 cycles

PageTableWalker TOTAL       ACCESS:     185880  
PageTableWalker AVERAGE LATENCY: 6.57119 cycles
PageTableWalker TOTAL LATENCY: 1221451 cycles

DRAM Statistics
Channel 0
 RQ ROW_BUFFER_HIT:     633028
  ROW_BUFFER_MISS:    2317337
 AVG DBUS CONGESTED CYCLE:    3.64733
 WQ ROW_BUFFER_HIT:      64603
  ROW_BUFFER_MISS:      55251  FULL:          0

