last_page:0x200000000000000
VMEM_RES_CAP:0x100000
PAGE_SIZE:4096
LOG2_PAGE_SIZE:12
LOG2_PAGE_TABLE_SIZE:9
page_table_levels:5
WARNING: physical memory size is smaller than virtual memory size
FDiP enabled with aggresivity 16

*** ChampSim Multicore Out-of-Order Simulator ***

Warmup Instructions: 50000000
Simulation Instructions: 100000000
Number of CPUs: 1
Small page size: 4096
Large page size: 2097152

CPU 0 Bimodal branch predictor
Basic BTB sets: 1024 ways: 8 indirect buffer size: 4096 RAS size: 64
Instruction page size distrubution: 0
Loading instruction page size distribution from /home/bsc/bsc018186/scratch/itp_asplos25_AE/dump/smt_srv85_ap_srv194_ap_1024i.pdst
Data page size distrubution: 0
Loading data page size distribution from /home/bsc/bsc018186/scratch/itp_asplos25_AE/dump/smt_srv85_ap_srv194_ap_1024i.pdst
cpu0_L2C IP-based stride prefetcher
cpu0_L1D next line prefetcher
CHiRPing...
cpu0_L1I next line prefetcher
Off-chip DRAM Size: 4 GiB Channels: 1 Width: 64-bit Data Rate: 3200 MT/s
Heartbeat CPU 0 instructions: 10000001 cycles: 2500326 heartbeat IPC: 3.99948 cumulative IPC: 3.99948 (Simulation time: 0 hr 0 min 40 sec) 
Heartbeat CPU 0 instructions: 20000002 cycles: 5000849 heartbeat IPC: 3.99917 cumulative IPC: 3.99933 (Simulation time: 0 hr 1 min 22 sec) 
Heartbeat CPU 0 instructions: 30000001 cycles: 7501230 heartbeat IPC: 3.9994 cumulative IPC: 3.99935 (Simulation time: 0 hr 2 min 5 sec) 
Heartbeat CPU 0 instructions: 40000002 cycles: 10002019 heartbeat IPC: 3.99874 cumulative IPC: 3.9992 (Simulation time: 0 hr 2 min 47 sec) 
Heartbeat CPU 0 instructions: 50000003 cycles: 12579263 heartbeat IPC: 3.88012 cumulative IPC: 3.9748 (Simulation time: 0 hr 3 min 32 sec) 
Warmup finished CPU 0 instructions: 50000003 cycles: 12579264 cumulative IPC: 3.9748 (Simulation time: 0 hr 3 min 32 sec) 

Warmup complete CPU 0 instructions: 50000003 cycles: 12579264 (Simulation time: 0 hr 3 min 32 sec) 

Heartbeat CPU 0 instructions: 60000004 cycles: 28763765 heartbeat IPC: 0.617876 cumulative IPC: 0.617876 (Simulation time: 0 hr 4 min 45 sec) 
Heartbeat CPU 0 instructions: 70000002 cycles: 49751278 heartbeat IPC: 0.476474 cumulative IPC: 0.53804 (Simulation time: 0 hr 6 min 3 sec) 
Heartbeat CPU 0 instructions: 80000002 cycles: 79576877 heartbeat IPC: 0.335283 cumulative IPC: 0.447778 (Simulation time: 0 hr 7 min 30 sec) 
Heartbeat CPU 0 instructions: 90000002 cycles: 109037051 heartbeat IPC: 0.339442 cumulative IPC: 0.41469 (Simulation time: 0 hr 8 min 57 sec) 
Heartbeat CPU 0 instructions: 100000000 cycles: 138850668 heartbeat IPC: 0.335418 cumulative IPC: 0.395973 (Simulation time: 0 hr 10 min 24 sec) 
Heartbeat CPU 0 instructions: 110000000 cycles: 167955685 heartbeat IPC: 0.343584 cumulative IPC: 0.386159 (Simulation time: 0 hr 11 min 51 sec) 
Heartbeat CPU 0 instructions: 120000003 cycles: 198242184 heartbeat IPC: 0.330181 cumulative IPC: 0.377028 (Simulation time: 0 hr 13 min 19 sec) 
Heartbeat CPU 0 instructions: 130000001 cycles: 228581187 heartbeat IPC: 0.329609 cumulative IPC: 0.370368 (Simulation time: 0 hr 14 min 47 sec) 
Heartbeat CPU 0 instructions: 140000002 cycles: 258513044 heartbeat IPC: 0.334093 cumulative IPC: 0.365953 (Simulation time: 0 hr 16 min 15 sec) 
Heartbeat CPU 0 instructions: 150000000 cycles: 289276942 heartbeat IPC: 0.325057 cumulative IPC: 0.361406 (Simulation time: 0 hr 17 min 44 sec) 
Simulation finished CPU 0 instructions: 100000002 cycles: 276697680 cumulative IPC: 0.361406 (Simulation time: 0 hr 17 min 44 sec) 

Simulation complete CPU 0 instructions: 100000002 cycles: 276697680 (Simulation time: 0 hr 17 min 44 sec) 


ChampSim completed all CPUs

Saving instructions large page distribution to /home/bsc/bsc018186/scratch/itp_asplos25_AE/dump/smt_srv85_ap_srv194_ap_1024i.pdst...
Saving data large page distribution to /home/bsc/bsc018186/scratch/itp_asplos25_AE/dump/smt_srv85_ap_srv194_ap_1024i.pdst...
=== Simulation ===
CPU 0 runs /gpfs/projects/bsc18/MN4/bsc18/romol/ChampSim/traces/qualcomm_srv/smt_srv85_ap_srv194_ap_1024i.champsimtrace.xz

Region of Interest Statistics

CPU 0 cumulative IPC: 0.361406 instructions: 100000002 cycles: 276697680
CPU 0 Branch Prediction Accuracy: 76.7098% MPKI: 44.3237 Average ROB Occupancy at Mispredict: 10.5199
Branch type MPKI
BRANCH_DIRECT_JUMP: 1.39153
BRANCH_INDIRECT: 23.3942
BRANCH_CONDITIONAL: 12.3324
BRANCH_DIRECT_CALL: 2.62711
BRANCH_INDIRECT_CALL: 1.11229
BRANCH_RETURN: 3.46614

Instructions large pages: 0
Instructions small pages: 11317
Large page distribution for instructions: 0%

Data large pages: 0
Data small pages: 9525
Large page distribution for data: 0%

cpu0_L1I TOTAL       ACCESS:   40240738  HIT:   31435961  MISS:    8804777  iACCESS:   40240738  iHIT:   31435961  iMISS:    8804777  dACCESS:          0  dHIT:          0  dMISS:          0  itACCESS:          0  itHIT:          0  itMISS:          0  dtACCESS:          0  dtHIT:          0  dtMISS:          0
cpu0_L1I LOAD         ACCESS:   11573008  HIT:    9172048  MISS:    2400960  iACCESS:   11573008  iHIT:    9172048  iMISS:    2400960  dACCESS:          0  dHIT:          0  dMISS:          0  itACCESS:          0  itHIT:          0  itMISS:          0  dtACCESS:          0  dtHIT:          0  dtMISS:          0
cpu0_L1I RFO          ACCESS:          0  HIT:          0  MISS:          0  iACCESS:          0  iHIT:          0  iMISS:          0  dACCESS:          0  dHIT:          0  dMISS:          0  itACCESS:          0  itHIT:          0  itMISS:          0  dtACCESS:          0  dtHIT:          0  dtMISS:          0
cpu0_L1I PREFETCH     ACCESS:   28667730  HIT:   22263913  MISS:    6403817  iACCESS:   28667730  iHIT:   22263913  iMISS:    6403817  dACCESS:          0  dHIT:          0  dMISS:          0  itACCESS:          0  itHIT:          0  itMISS:          0  dtACCESS:          0  dtHIT:          0  dtMISS:          0
cpu0_L1I WRITE        ACCESS:          0  HIT:          0  MISS:          0  iACCESS:          0  iHIT:          0  iMISS:          0  dACCESS:          0  dHIT:          0  dMISS:          0  itACCESS:          0  itHIT:          0  itMISS:          0  dtACCESS:          0  dtHIT:          0  dtMISS:          0
cpu0_L1I TRANSLATION  ACCESS:          0  HIT:          0  MISS:          0  iACCESS:          0  iHIT:          0  iMISS:          0  dACCESS:          0  dHIT:          0  dMISS:          0  itACCESS:          0  itHIT:          0  itMISS:          0  dtACCESS:          0  dtHIT:          0  dtMISS:          0
cpu0_L1I PREFETCH  REQUESTED:   31120810  ISSUED:   31119368  CROSSED:          0  USEFUL:    2096169  USELESS:     749803
cpu0_L1I AVERAGE iMISS LATENCY: 24.7012 cycles
cpu0_L1I AVERAGE dMISS LATENCY: 0 cycles
cpu0_L1I AVERAGE itMISS LATENCY: 0 cycles
cpu0_L1I AVERAGE dtMISS LATENCY: 0 cycles
cpu0_L1I PAGE CROSSINGS (TLB HIT):         0 
cpu0_L1I PAGE CROSSINGS (TLB MISS):         0 
cpu0_L1I AVERAGE MISS LATENCY: 24.7012 cycles
cpu0_ITLB TOTAL       ACCESS:   33821682  HIT:   31654279  MISS:    2167403  iACCESS:   33821682  iHIT:   31654279  iMISS:    2167403  dACCESS:          0  dHIT:          0  dMISS:          0  itACCESS:          0  itHIT:          0  itMISS:          0  dtACCESS:          0  dtHIT:          0  dtMISS:          0
cpu0_ITLB LOAD         ACCESS:   33821682  HIT:   31654279  MISS:    2167403  iACCESS:   33821682  iHIT:   31654279  iMISS:    2167403  dACCESS:          0  dHIT:          0  dMISS:          0  itACCESS:          0  itHIT:          0  itMISS:          0  dtACCESS:          0  dtHIT:          0  dtMISS:          0
cpu0_ITLB RFO          ACCESS:          0  HIT:          0  MISS:          0  iACCESS:          0  iHIT:          0  iMISS:          0  dACCESS:          0  dHIT:          0  dMISS:          0  itACCESS:          0  itHIT:          0  itMISS:          0  dtACCESS:          0  dtHIT:          0  dtMISS:          0
cpu0_ITLB PREFETCH     ACCESS:          0  HIT:          0  MISS:          0  iACCESS:          0  iHIT:          0  iMISS:          0  dACCESS:          0  dHIT:          0  dMISS:          0  itACCESS:          0  itHIT:          0  itMISS:          0  dtACCESS:          0  dtHIT:          0  dtMISS:          0
cpu0_ITLB WRITE        ACCESS:          0  HIT:          0  MISS:          0  iACCESS:          0  iHIT:          0  iMISS:          0  dACCESS:          0  dHIT:          0  dMISS:          0  itACCESS:          0  itHIT:          0  itMISS:          0  dtACCESS:          0  dtHIT:          0  dtMISS:          0
cpu0_ITLB TRANSLATION  ACCESS:          0  HIT:          0  MISS:          0  iACCESS:          0  iHIT:          0  iMISS:          0  dACCESS:          0  dHIT:          0  dMISS:          0  itACCESS:          0  itHIT:          0  itMISS:          0  dtACCESS:          0  dtHIT:          0  dtMISS:          0
cpu0_ITLB PREFETCH  REQUESTED:          0  ISSUED:          0  CROSSED:          0  USEFUL:     380771  USELESS:      82414
cpu0_ITLB AVERAGE iMISS LATENCY: 8.29752 cycles
cpu0_ITLB AVERAGE dMISS LATENCY: 0 cycles
cpu0_ITLB AVERAGE itMISS LATENCY: 0 cycles
cpu0_ITLB AVERAGE dtMISS LATENCY: 0 cycles
cpu0_ITLB PAGE CROSSINGS (TLB HIT):         0 
cpu0_ITLB PAGE CROSSINGS (TLB MISS):         0 
cpu0_ITLB AVERAGE MISS LATENCY: 8.29752 cycles
cpu0_DTLB TOTAL       ACCESS:   30352610  HIT:   25146224  MISS:    5206386  iACCESS:          0  iHIT:          0  iMISS:          0  dACCESS:   30352610  dHIT:   25146224  dMISS:    5206386  itACCESS:          0  itHIT:          0  itMISS:          0  dtACCESS:          0  dtHIT:          0  dtMISS:          0
cpu0_DTLB LOAD         ACCESS:   30352610  HIT:   25146224  MISS:    5206386  iACCESS:          0  iHIT:          0  iMISS:          0  dACCESS:   30352610  dHIT:   25146224  dMISS:    5206386  itACCESS:          0  itHIT:          0  itMISS:          0  dtACCESS:          0  dtHIT:          0  dtMISS:          0
cpu0_DTLB RFO          ACCESS:          0  HIT:          0  MISS:          0  iACCESS:          0  iHIT:          0  iMISS:          0  dACCESS:          0  dHIT:          0  dMISS:          0  itACCESS:          0  itHIT:          0  itMISS:          0  dtACCESS:          0  dtHIT:          0  dtMISS:          0
cpu0_DTLB PREFETCH     ACCESS:          0  HIT:          0  MISS:          0  iACCESS:          0  iHIT:          0  iMISS:          0  dACCESS:          0  dHIT:          0  dMISS:          0  itACCESS:          0  itHIT:          0  itMISS:          0  dtACCESS:          0  dtHIT:          0  dtMISS:          0
cpu0_DTLB WRITE        ACCESS:          0  HIT:          0  MISS:          0  iACCESS:          0  iHIT:          0  iMISS:          0  dACCESS:          0  dHIT:          0  dMISS:          0  itACCESS:          0  itHIT:          0  itMISS:          0  dtACCESS:          0  dtHIT:          0  dtMISS:          0
cpu0_DTLB TRANSLATION  ACCESS:          0  HIT:          0  MISS:          0  iACCESS:          0  iHIT:          0  iMISS:          0  dACCESS:          0  dHIT:          0  dMISS:          0  itACCESS:          0  itHIT:          0  itMISS:          0  dtACCESS:          0  dtHIT:          0  dtMISS:          0
cpu0_DTLB PREFETCH  REQUESTED:          0  ISSUED:          0  CROSSED:          0  USEFUL:          0  USELESS:          0
cpu0_DTLB AVERAGE iMISS LATENCY: 0 cycles
cpu0_DTLB AVERAGE dMISS LATENCY: 12.952 cycles
cpu0_DTLB AVERAGE itMISS LATENCY: 0 cycles
cpu0_DTLB AVERAGE dtMISS LATENCY: 0 cycles
cpu0_DTLB PAGE CROSSINGS (TLB HIT):         0 
cpu0_DTLB PAGE CROSSINGS (TLB MISS):         0 
cpu0_DTLB AVERAGE MISS LATENCY: 12.952 cycles
cpu0_STLB TOTAL       ACCESS:    3333640  HIT:    2964789  MISS:     368851  iACCESS:     463190  iHIT:     347276  iMISS:     115914  dACCESS:    2870450  dHIT:    2617513  dMISS:     252937  itACCESS:          0  itHIT:          0  itMISS:          0  dtACCESS:          0  dtHIT:          0  dtMISS:          0
cpu0_STLB LOAD         ACCESS:    3333640  HIT:    2964789  MISS:     368851  iACCESS:     463190  iHIT:     347276  iMISS:     115914  dACCESS:    2870450  dHIT:    2617513  dMISS:     252937  itACCESS:          0  itHIT:          0  itMISS:          0  dtACCESS:          0  dtHIT:          0  dtMISS:          0
cpu0_STLB RFO          ACCESS:          0  HIT:          0  MISS:          0  iACCESS:          0  iHIT:          0  iMISS:          0  dACCESS:          0  dHIT:          0  dMISS:          0  itACCESS:          0  itHIT:          0  itMISS:          0  dtACCESS:          0  dtHIT:          0  dtMISS:          0
cpu0_STLB PREFETCH     ACCESS:          0  HIT:          0  MISS:          0  iACCESS:          0  iHIT:          0  iMISS:          0  dACCESS:          0  dHIT:          0  dMISS:          0  itACCESS:          0  itHIT:          0  itMISS:          0  dtACCESS:          0  dtHIT:          0  dtMISS:          0
cpu0_STLB WRITE        ACCESS:          0  HIT:          0  MISS:          0  iACCESS:          0  iHIT:          0  iMISS:          0  dACCESS:          0  dHIT:          0  dMISS:          0  itACCESS:          0  itHIT:          0  itMISS:          0  dtACCESS:          0  dtHIT:          0  dtMISS:          0
cpu0_STLB TRANSLATION  ACCESS:          0  HIT:          0  MISS:          0  iACCESS:          0  iHIT:          0  iMISS:          0  dACCESS:          0  dHIT:          0  dMISS:          0  itACCESS:          0  itHIT:          0  itMISS:          0  dtACCESS:          0  dtHIT:          0  dtMISS:          0
cpu0_STLB PREFETCH  REQUESTED:          0  ISSUED:          0  CROSSED:          0  USEFUL:          0  USELESS:          0
cpu0_STLB AVERAGE iMISS LATENCY: 38.7167 cycles
cpu0_STLB AVERAGE dMISS LATENCY: 119.929 cycles
cpu0_STLB AVERAGE itMISS LATENCY: 0 cycles
cpu0_STLB AVERAGE dtMISS LATENCY: 0 cycles
cpu0_STLB PAGE CROSSINGS (TLB HIT):         0 
cpu0_STLB PAGE CROSSINGS (TLB MISS):         0 
cpu0_STLB AVERAGE MISS LATENCY: 158.645 cycles
cpu0_L1D TOTAL       ACCESS:   48233266  HIT:   39800752  MISS:    8432514  iACCESS:          0  iHIT:          0  iMISS:          0  dACCESS:   47693882  dHIT:   39770252  dMISS:    7923630  itACCESS:     130344  itHIT:      13405  itMISS:     116939  dtACCESS:     409040  dtHIT:      17095  dtMISS:     391945
cpu0_L1D LOAD         ACCESS:   22490714  HIT:   18297350  MISS:    4193364  iACCESS:          0  iHIT:          0  iMISS:          0  dACCESS:   22490714  dHIT:   18297350  dMISS:    4193364  itACCESS:          0  itHIT:          0  itMISS:          0  dtACCESS:          0  dtHIT:          0  dtMISS:          0
cpu0_L1D RFO          ACCESS:          0  HIT:          0  MISS:          0  iACCESS:          0  iHIT:          0  iMISS:          0  dACCESS:          0  dHIT:          0  dMISS:          0  itACCESS:          0  itHIT:          0  itMISS:          0  dtACCESS:          0  dtHIT:          0  dtMISS:          0
cpu0_L1D PREFETCH     ACCESS:   15142996  HIT:   12040556  MISS:    3102440  iACCESS:          0  iHIT:          0  iMISS:          0  dACCESS:   15142996  dHIT:   12040556  dMISS:    3102440  itACCESS:          0  itHIT:          0  itMISS:          0  dtACCESS:          0  dtHIT:          0  dtMISS:          0
cpu0_L1D WRITE        ACCESS:   10060172  HIT:    9432346  MISS:     627826  iACCESS:          0  iHIT:          0  iMISS:          0  dACCESS:   10060172  dHIT:    9432346  dMISS:     627826  itACCESS:          0  itHIT:          0  itMISS:          0  dtACCESS:          0  dtHIT:          0  dtMISS:          0
cpu0_L1D TRANSLATION  ACCESS:     539384  HIT:      30500  MISS:     508884  iACCESS:          0  iHIT:          0  iMISS:          0  dACCESS:          0  dHIT:          0  dMISS:          0  itACCESS:     130344  itHIT:      13405  itMISS:     116939  dtACCESS:     409040  dtHIT:      17095  dtMISS:     391945
cpu0_L1D PREFETCH  REQUESTED:   22490714  ISSUED:   18889234  CROSSED:          0  USEFUL:     333340  USELESS:     999162
cpu0_L1D AVERAGE iMISS LATENCY: 0 cycles
cpu0_L1D AVERAGE dMISS LATENCY: 36.7056 cycles
cpu0_L1D AVERAGE itMISS LATENCY: 1.56403 cycles
cpu0_L1D AVERAGE dtMISS LATENCY: 4.73379 cycles
cpu0_L1D PAGE CROSSINGS (TLB HIT):         0 
cpu0_L1D PAGE CROSSINGS (TLB MISS):         0 
cpu0_L1D AVERAGE MISS LATENCY: 43.0035 cycles
cpu0_L2C TOTAL       ACCESS:    9530129  HIT:    1999776  MISS:    7530353  iACCESS:    3628455  iHIT:     729930  iMISS:    2898525  dACCESS:    5425959  dHIT:    1088473  dMISS:    4337486  itACCESS:     116357  itHIT:      39615  itMISS:      76742  dtACCESS:     359358  dtHIT:     141758  dtMISS:     217600
cpu0_L2C LOAD         ACCESS:    3134405  HIT:     714890  MISS:    2419515  iACCESS:     813361  iHIT:     101415  iMISS:     711946  dACCESS:    2321044  dHIT:     613475  dMISS:    1707569  itACCESS:          0  itHIT:          0  itMISS:          0  dtACCESS:          0  dtHIT:          0  dtMISS:          0
cpu0_L2C RFO          ACCESS:     239330  HIT:      44818  MISS:     194512  iACCESS:          0  iHIT:          0  iMISS:          0  dACCESS:     239330  dHIT:      44818  dMISS:     194512  itACCESS:          0  itHIT:          0  itMISS:          0  dtACCESS:          0  dtHIT:          0  dtMISS:          0
cpu0_L2C PREFETCH     ACCESS:    5345864  HIT:     957486  MISS:    4388378  iACCESS:    2815094  iHIT:     628515  iMISS:    2186579  dACCESS:    2530770  dHIT:     328971  dMISS:    2201799  itACCESS:          0  itHIT:          0  itMISS:          0  dtACCESS:          0  dtHIT:          0  dtMISS:          0
cpu0_L2C WRITE        ACCESS:     334815  HIT:     101209  MISS:     233606  iACCESS:          0  iHIT:          0  iMISS:          0  dACCESS:     334815  dHIT:     101209  dMISS:     233606  itACCESS:          0  itHIT:          0  itMISS:          0  dtACCESS:          0  dtHIT:          0  dtMISS:          0
cpu0_L2C TRANSLATION  ACCESS:     475715  HIT:     181373  MISS:     294342  iACCESS:          0  iHIT:          0  iMISS:          0  dACCESS:          0  dHIT:          0  dMISS:          0  itACCESS:     116357  itHIT:      39615  itMISS:      76742  dtACCESS:     359358  dtHIT:     141758  dtMISS:     217600
cpu0_L2C PREFETCH  REQUESTED:    1417322  ISSUED:    1417319  CROSSED:          0  USEFUL:     375649  USELESS:     460558
cpu0_L2C AVERAGE iMISS LATENCY: 24.8077 cycles
cpu0_L2C AVERAGE dMISS LATENCY: 47.5901 cycles
cpu0_L2C AVERAGE itMISS LATENCY: 1.60175 cycles
cpu0_L2C AVERAGE dtMISS LATENCY: 4.84041 cycles
cpu0_L2C PAGE CROSSINGS (TLB HIT):         0 
cpu0_L2C PAGE CROSSINGS (TLB MISS):         0 
cpu0_L2C AVERAGE MISS LATENCY: 78.8399 cycles
LLC TOTAL       ACCESS:    7357527  HIT:    4705788  MISS:    2651739  iACCESS:    2816366  iHIT:    1979770  iMISS:     836596  dACCESS:    4246819  dHIT:    2658082  dMISS:    1588737  itACCESS:      76742  itHIT:      17589  itMISS:      59153  dtACCESS:     217600  dtHIT:      50347  dtMISS:     167253
LLC LOAD         ACCESS:    2411398  HIT:    1764928  MISS:     646470  iACCESS:     710663  iHIT:     535143  iMISS:     175520  dACCESS:    1700735  dHIT:    1229785  dMISS:     470950  itACCESS:          0  itHIT:          0  itMISS:          0  dtACCESS:          0  dtHIT:          0  dtMISS:          0
LLC RFO          ACCESS:     194496  HIT:     102222  MISS:      92274  iACCESS:          0  iHIT:          0  iMISS:          0  dACCESS:     194496  dHIT:     102222  dMISS:      92274  itACCESS:          0  itHIT:          0  itMISS:          0  dtACCESS:          0  dtHIT:          0  dtMISS:          0
LLC PREFETCH     ACCESS:    4192403  HIT:    2511738  MISS:    1680665  iACCESS:    2105703  iHIT:    1444627  iMISS:     661076  dACCESS:    2086700  dHIT:    1067111  dMISS:    1019589  itACCESS:          0  itHIT:          0  itMISS:          0  dtACCESS:          0  dtHIT:          0  dtMISS:          0
LLC WRITE        ACCESS:     264888  HIT:     258964  MISS:       5924  iACCESS:          0  iHIT:          0  iMISS:          0  dACCESS:     264888  dHIT:     258964  dMISS:       5924  itACCESS:          0  itHIT:          0  itMISS:          0  dtACCESS:          0  dtHIT:          0  dtMISS:          0
LLC TRANSLATION  ACCESS:     294342  HIT:      67936  MISS:     226406  iACCESS:          0  iHIT:          0  iMISS:          0  dACCESS:          0  dHIT:          0  dMISS:          0  itACCESS:      76742  itHIT:      17589  itMISS:      59153  dtACCESS:     217600  dtHIT:      50347  dtMISS:     167253
LLC PREFETCH  REQUESTED:          0  ISSUED:          0  CROSSED:          0  USEFUL:          0  USELESS:          0
LLC AVERAGE iMISS LATENCY: 49.8187 cycles
LLC AVERAGE dMISS LATENCY: 106.943 cycles
LLC AVERAGE itMISS LATENCY: 3.97829 cycles
LLC AVERAGE dtMISS LATENCY: 12.1298 cycles
LLC PAGE CROSSINGS (TLB HIT):         0 
LLC PAGE CROSSINGS (TLB MISS):         0 
LLC AVERAGE MISS LATENCY: 172.869 cycles

PageTableWalker TOTAL       ACCESS:     182440  
PageTableWalker AVERAGE LATENCY: 5.98814 cycles
PageTableWalker TOTAL LATENCY: 1092476 cycles

DRAM Statistics
Channel 0
 RQ ROW_BUFFER_HIT:     572642
  ROW_BUFFER_MISS:    2054321
 AVG DBUS CONGESTED CYCLE:    3.65073
 WQ ROW_BUFFER_HIT:      65158
  ROW_BUFFER_MISS:      62787  FULL:          0

