last_page:0x200000000000000
VMEM_RES_CAP:0x100000
PAGE_SIZE:4096
LOG2_PAGE_SIZE:12
LOG2_PAGE_TABLE_SIZE:9
page_table_levels:5
WARNING: physical memory size is smaller than virtual memory size
FDiP enabled with aggresivity 16

*** ChampSim Multicore Out-of-Order Simulator ***

Warmup Instructions: 50000000
Simulation Instructions: 100000000
Number of CPUs: 1
Small page size: 4096
Large page size: 2097152

CPU 0 Bimodal branch predictor
Basic BTB sets: 1024 ways: 8 indirect buffer size: 4096 RAS size: 64
Instruction page size distrubution: 0
Loading instruction page size distribution from /home/bsc/bsc018186/scratch/itp_asplos25_AE/dump/smt_srv540_ap_srv495_ap_1024i.pdst
Data page size distrubution: 0
Loading data page size distribution from /home/bsc/bsc018186/scratch/itp_asplos25_AE/dump/smt_srv540_ap_srv495_ap_1024i.pdst
cpu0_L2C IP-based stride prefetcher
cpu0_L1D next line prefetcher
CHiRPing...
cpu0_L1I next line prefetcher
Off-chip DRAM Size: 4 GiB Channels: 1 Width: 64-bit Data Rate: 3200 MT/s
Heartbeat CPU 0 instructions: 10000000 cycles: 2500344 heartbeat IPC: 3.99945 cumulative IPC: 3.99945 (Simulation time: 0 hr 0 min 40 sec) 
Heartbeat CPU 0 instructions: 20000003 cycles: 5000588 heartbeat IPC: 3.99962 cumulative IPC: 3.99954 (Simulation time: 0 hr 1 min 22 sec) 
Heartbeat CPU 0 instructions: 30000003 cycles: 7500817 heartbeat IPC: 3.99964 cumulative IPC: 3.99957 (Simulation time: 0 hr 2 min 6 sec) 
Heartbeat CPU 0 instructions: 40000001 cycles: 10001134 heartbeat IPC: 3.9995 cumulative IPC: 3.99955 (Simulation time: 0 hr 2 min 49 sec) 
Heartbeat CPU 0 instructions: 50000001 cycles: 12501248 heartbeat IPC: 3.99982 cumulative IPC: 3.99961 (Simulation time: 0 hr 3 min 33 sec) 
Warmup finished CPU 0 instructions: 50000001 cycles: 12501249 cumulative IPC: 3.99961 (Simulation time: 0 hr 3 min 33 sec) 

Warmup complete CPU 0 instructions: 50000001 cycles: 12501249 (Simulation time: 0 hr 3 min 33 sec) 

Heartbeat CPU 0 instructions: 60000001 cycles: 40483013 heartbeat IPC: 0.357376 cumulative IPC: 0.357376 (Simulation time: 0 hr 4 min 58 sec) 
Heartbeat CPU 0 instructions: 70000003 cycles: 68415083 heartbeat IPC: 0.358012 cumulative IPC: 0.357694 (Simulation time: 0 hr 6 min 25 sec) 
Heartbeat CPU 0 instructions: 80000002 cycles: 96573584 heartbeat IPC: 0.355133 cumulative IPC: 0.356836 (Simulation time: 0 hr 7 min 51 sec) 
Heartbeat CPU 0 instructions: 90000000 cycles: 124775166 heartbeat IPC: 0.35459 cumulative IPC: 0.356272 (Simulation time: 0 hr 9 min 18 sec) 
Heartbeat CPU 0 instructions: 100000001 cycles: 152574849 heartbeat IPC: 0.359717 cumulative IPC: 0.356956 (Simulation time: 0 hr 10 min 44 sec) 
Heartbeat CPU 0 instructions: 110000000 cycles: 179867484 heartbeat IPC: 0.3664 cumulative IPC: 0.358496 (Simulation time: 0 hr 12 min 8 sec) 
Heartbeat CPU 0 instructions: 120000000 cycles: 207589012 heartbeat IPC: 0.360731 cumulative IPC: 0.358813 (Simulation time: 0 hr 13 min 34 sec) 
Heartbeat CPU 0 instructions: 130000001 cycles: 235095973 heartbeat IPC: 0.363545 cumulative IPC: 0.359398 (Simulation time: 0 hr 15 min 0 sec) 
Heartbeat CPU 0 instructions: 140000002 cycles: 262537768 heartbeat IPC: 0.364408 cumulative IPC: 0.359948 (Simulation time: 0 hr 16 min 25 sec) 
Heartbeat CPU 0 instructions: 150000001 cycles: 288688350 heartbeat IPC: 0.382401 cumulative IPC: 0.362074 (Simulation time: 0 hr 17 min 47 sec) 
Simulation finished CPU 0 instructions: 100000000 cycles: 276187102 cumulative IPC: 0.362074 (Simulation time: 0 hr 17 min 47 sec) 

Simulation complete CPU 0 instructions: 100000000 cycles: 276187102 (Simulation time: 0 hr 17 min 47 sec) 


ChampSim completed all CPUs

Saving instructions large page distribution to /home/bsc/bsc018186/scratch/itp_asplos25_AE/dump/smt_srv540_ap_srv495_ap_1024i.pdst...
Saving data large page distribution to /home/bsc/bsc018186/scratch/itp_asplos25_AE/dump/smt_srv540_ap_srv495_ap_1024i.pdst...
=== Simulation ===
CPU 0 runs /gpfs/projects/bsc18/MN4/bsc18/romol/ChampSim/traces/qualcomm_srv/smt_srv540_ap_srv495_ap_1024i.champsimtrace.xz

Region of Interest Statistics

CPU 0 cumulative IPC: 0.362074 instructions: 100000000 cycles: 276187102
CPU 0 Branch Prediction Accuracy: 75.5046% MPKI: 44.1654 Average ROB Occupancy at Mispredict: 10.6916
Branch type MPKI
BRANCH_DIRECT_JUMP: 1.3386
BRANCH_INDIRECT: 22.7715
BRANCH_CONDITIONAL: 12.9584
BRANCH_DIRECT_CALL: 2.62043
BRANCH_INDIRECT_CALL: 0.984761
BRANCH_RETURN: 3.49188

Instructions large pages: 0
Instructions small pages: 9586
Large page distribution for instructions: 0%

Data large pages: 0
Data small pages: 8248
Large page distribution for data: 0%

cpu0_L1I TOTAL       ACCESS:   39147134  HIT:   30032710  MISS:    9114424  iACCESS:   39147134  iHIT:   30032710  iMISS:    9114424  dACCESS:          0  dHIT:          0  dMISS:          0  itACCESS:          0  itHIT:          0  itMISS:          0  dtACCESS:          0  dtHIT:          0  dtMISS:          0
cpu0_L1I LOAD         ACCESS:   11620744  HIT:    9148450  MISS:    2472294  iACCESS:   11620744  iHIT:    9148450  iMISS:    2472294  dACCESS:          0  dHIT:          0  dMISS:          0  itACCESS:          0  itHIT:          0  itMISS:          0  dtACCESS:          0  dtHIT:          0  dtMISS:          0
cpu0_L1I RFO          ACCESS:          0  HIT:          0  MISS:          0  iACCESS:          0  iHIT:          0  iMISS:          0  dACCESS:          0  dHIT:          0  dMISS:          0  itACCESS:          0  itHIT:          0  itMISS:          0  dtACCESS:          0  dtHIT:          0  dtMISS:          0
cpu0_L1I PREFETCH     ACCESS:   27526390  HIT:   20884260  MISS:    6642130  iACCESS:   27526390  iHIT:   20884260  iMISS:    6642130  dACCESS:          0  dHIT:          0  dMISS:          0  itACCESS:          0  itHIT:          0  itMISS:          0  dtACCESS:          0  dtHIT:          0  dtMISS:          0
cpu0_L1I WRITE        ACCESS:          0  HIT:          0  MISS:          0  iACCESS:          0  iHIT:          0  iMISS:          0  dACCESS:          0  dHIT:          0  dMISS:          0  itACCESS:          0  itHIT:          0  itMISS:          0  dtACCESS:          0  dtHIT:          0  dtMISS:          0
cpu0_L1I TRANSLATION  ACCESS:          0  HIT:          0  MISS:          0  iACCESS:          0  iHIT:          0  iMISS:          0  dACCESS:          0  dHIT:          0  dMISS:          0  itACCESS:          0  itHIT:          0  itMISS:          0  dtACCESS:          0  dtHIT:          0  dtMISS:          0
cpu0_L1I PREFETCH  REQUESTED:   30049122  ISSUED:   30047453  CROSSED:          0  USEFUL:    2181910  USELESS:     750669
cpu0_L1I AVERAGE iMISS LATENCY: 24.435 cycles
cpu0_L1I AVERAGE dMISS LATENCY: 0 cycles
cpu0_L1I AVERAGE itMISS LATENCY: 0 cycles
cpu0_L1I AVERAGE dtMISS LATENCY: 0 cycles
cpu0_L1I PAGE CROSSINGS (TLB HIT):         0 
cpu0_L1I PAGE CROSSINGS (TLB MISS):         0 
cpu0_L1I AVERAGE MISS LATENCY: 24.435 cycles
cpu0_ITLB TOTAL       ACCESS:   32946923  HIT:   30744562  MISS:    2202361  iACCESS:   32946923  iHIT:   30744562  iMISS:    2202361  dACCESS:          0  dHIT:          0  dMISS:          0  itACCESS:          0  itHIT:          0  itMISS:          0  dtACCESS:          0  dtHIT:          0  dtMISS:          0
cpu0_ITLB LOAD         ACCESS:   32946923  HIT:   30744562  MISS:    2202361  iACCESS:   32946923  iHIT:   30744562  iMISS:    2202361  dACCESS:          0  dHIT:          0  dMISS:          0  itACCESS:          0  itHIT:          0  itMISS:          0  dtACCESS:          0  dtHIT:          0  dtMISS:          0
cpu0_ITLB RFO          ACCESS:          0  HIT:          0  MISS:          0  iACCESS:          0  iHIT:          0  iMISS:          0  dACCESS:          0  dHIT:          0  dMISS:          0  itACCESS:          0  itHIT:          0  itMISS:          0  dtACCESS:          0  dtHIT:          0  dtMISS:          0
cpu0_ITLB PREFETCH     ACCESS:          0  HIT:          0  MISS:          0  iACCESS:          0  iHIT:          0  iMISS:          0  dACCESS:          0  dHIT:          0  dMISS:          0  itACCESS:          0  itHIT:          0  itMISS:          0  dtACCESS:          0  dtHIT:          0  dtMISS:          0
cpu0_ITLB WRITE        ACCESS:          0  HIT:          0  MISS:          0  iACCESS:          0  iHIT:          0  iMISS:          0  dACCESS:          0  dHIT:          0  dMISS:          0  itACCESS:          0  itHIT:          0  itMISS:          0  dtACCESS:          0  dtHIT:          0  dtMISS:          0
cpu0_ITLB TRANSLATION  ACCESS:          0  HIT:          0  MISS:          0  iACCESS:          0  iHIT:          0  iMISS:          0  dACCESS:          0  dHIT:          0  dMISS:          0  itACCESS:          0  itHIT:          0  itMISS:          0  dtACCESS:          0  dtHIT:          0  dtMISS:          0
cpu0_ITLB PREFETCH  REQUESTED:          0  ISSUED:          0  CROSSED:          0  USEFUL:     383752  USELESS:      78058
cpu0_ITLB AVERAGE iMISS LATENCY: 7.93 cycles
cpu0_ITLB AVERAGE dMISS LATENCY: 0 cycles
cpu0_ITLB AVERAGE itMISS LATENCY: 0 cycles
cpu0_ITLB AVERAGE dtMISS LATENCY: 0 cycles
cpu0_ITLB PAGE CROSSINGS (TLB HIT):         0 
cpu0_ITLB PAGE CROSSINGS (TLB MISS):         0 
cpu0_ITLB AVERAGE MISS LATENCY: 7.93 cycles
cpu0_DTLB TOTAL       ACCESS:   28843239  HIT:   25184885  MISS:    3658354  iACCESS:          0  iHIT:          0  iMISS:          0  dACCESS:   28843239  dHIT:   25184885  dMISS:    3658354  itACCESS:          0  itHIT:          0  itMISS:          0  dtACCESS:          0  dtHIT:          0  dtMISS:          0
cpu0_DTLB LOAD         ACCESS:   28843239  HIT:   25184885  MISS:    3658354  iACCESS:          0  iHIT:          0  iMISS:          0  dACCESS:   28843239  dHIT:   25184885  dMISS:    3658354  itACCESS:          0  itHIT:          0  itMISS:          0  dtACCESS:          0  dtHIT:          0  dtMISS:          0
cpu0_DTLB RFO          ACCESS:          0  HIT:          0  MISS:          0  iACCESS:          0  iHIT:          0  iMISS:          0  dACCESS:          0  dHIT:          0  dMISS:          0  itACCESS:          0  itHIT:          0  itMISS:          0  dtACCESS:          0  dtHIT:          0  dtMISS:          0
cpu0_DTLB PREFETCH     ACCESS:          0  HIT:          0  MISS:          0  iACCESS:          0  iHIT:          0  iMISS:          0  dACCESS:          0  dHIT:          0  dMISS:          0  itACCESS:          0  itHIT:          0  itMISS:          0  dtACCESS:          0  dtHIT:          0  dtMISS:          0
cpu0_DTLB WRITE        ACCESS:          0  HIT:          0  MISS:          0  iACCESS:          0  iHIT:          0  iMISS:          0  dACCESS:          0  dHIT:          0  dMISS:          0  itACCESS:          0  itHIT:          0  itMISS:          0  dtACCESS:          0  dtHIT:          0  dtMISS:          0
cpu0_DTLB TRANSLATION  ACCESS:          0  HIT:          0  MISS:          0  iACCESS:          0  iHIT:          0  iMISS:          0  dACCESS:          0  dHIT:          0  dMISS:          0  itACCESS:          0  itHIT:          0  itMISS:          0  dtACCESS:          0  dtHIT:          0  dtMISS:          0
cpu0_DTLB PREFETCH  REQUESTED:          0  ISSUED:          0  CROSSED:          0  USEFUL:          0  USELESS:          0
cpu0_DTLB AVERAGE iMISS LATENCY: 0 cycles
cpu0_DTLB AVERAGE dMISS LATENCY: 16.8143 cycles
cpu0_DTLB AVERAGE itMISS LATENCY: 0 cycles
cpu0_DTLB AVERAGE dtMISS LATENCY: 0 cycles
cpu0_DTLB PAGE CROSSINGS (TLB HIT):         0 
cpu0_DTLB PAGE CROSSINGS (TLB MISS):         0 
cpu0_DTLB AVERAGE MISS LATENCY: 16.8143 cycles
cpu0_STLB TOTAL       ACCESS:    2592733  HIT:    2212991  MISS:     379742  iACCESS:     461822  iHIT:     345711  iMISS:     116111  dACCESS:    2130911  dHIT:    1867280  dMISS:     263631  itACCESS:          0  itHIT:          0  itMISS:          0  dtACCESS:          0  dtHIT:          0  dtMISS:          0
cpu0_STLB LOAD         ACCESS:    2592733  HIT:    2212991  MISS:     379742  iACCESS:     461822  iHIT:     345711  iMISS:     116111  dACCESS:    2130911  dHIT:    1867280  dMISS:     263631  itACCESS:          0  itHIT:          0  itMISS:          0  dtACCESS:          0  dtHIT:          0  dtMISS:          0
cpu0_STLB RFO          ACCESS:          0  HIT:          0  MISS:          0  iACCESS:          0  iHIT:          0  iMISS:          0  dACCESS:          0  dHIT:          0  dMISS:          0  itACCESS:          0  itHIT:          0  itMISS:          0  dtACCESS:          0  dtHIT:          0  dtMISS:          0
cpu0_STLB PREFETCH     ACCESS:          0  HIT:          0  MISS:          0  iACCESS:          0  iHIT:          0  iMISS:          0  dACCESS:          0  dHIT:          0  dMISS:          0  itACCESS:          0  itHIT:          0  itMISS:          0  dtACCESS:          0  dtHIT:          0  dtMISS:          0
cpu0_STLB WRITE        ACCESS:          0  HIT:          0  MISS:          0  iACCESS:          0  iHIT:          0  iMISS:          0  dACCESS:          0  dHIT:          0  dMISS:          0  itACCESS:          0  itHIT:          0  itMISS:          0  dtACCESS:          0  dtHIT:          0  dtMISS:          0
cpu0_STLB TRANSLATION  ACCESS:          0  HIT:          0  MISS:          0  iACCESS:          0  iHIT:          0  iMISS:          0  dACCESS:          0  dHIT:          0  dMISS:          0  itACCESS:          0  itHIT:          0  itMISS:          0  dtACCESS:          0  dtHIT:          0  dtMISS:          0
cpu0_STLB PREFETCH  REQUESTED:          0  ISSUED:          0  CROSSED:          0  USEFUL:          0  USELESS:          0
cpu0_STLB AVERAGE iMISS LATENCY: 36.2607 cycles
cpu0_STLB AVERAGE dMISS LATENCY: 116.879 cycles
cpu0_STLB AVERAGE itMISS LATENCY: 0 cycles
cpu0_STLB AVERAGE dtMISS LATENCY: 0 cycles
cpu0_STLB PAGE CROSSINGS (TLB HIT):         0 
cpu0_STLB PAGE CROSSINGS (TLB MISS):         0 
cpu0_STLB AVERAGE MISS LATENCY: 153.14 cycles
cpu0_L1D TOTAL       ACCESS:   44841585  HIT:   39033625  MISS:    5807960  iACCESS:          0  iHIT:          0  iMISS:          0  dACCESS:   44288015  dHIT:   38999965  dMISS:    5288050  itACCESS:     130121  itHIT:      14492  itMISS:     115629  dtACCESS:     423449  dtHIT:      19168  dtMISS:     404281
cpu0_L1D LOAD         ACCESS:   20235427  HIT:   17860647  MISS:    2374780  iACCESS:          0  iHIT:          0  iMISS:          0  dACCESS:   20235427  dHIT:   17860647  dMISS:    2374780  itACCESS:          0  itHIT:          0  itMISS:          0  dtACCESS:          0  dtHIT:          0  dtMISS:          0
cpu0_L1D RFO          ACCESS:          0  HIT:          0  MISS:          0  iACCESS:          0  iHIT:          0  iMISS:          0  dACCESS:          0  dHIT:          0  dMISS:          0  itACCESS:          0  itHIT:          0  itMISS:          0  dtACCESS:          0  dtHIT:          0  dtMISS:          0
cpu0_L1D PREFETCH     ACCESS:   13906492  HIT:   11567476  MISS:    2339016  iACCESS:          0  iHIT:          0  iMISS:          0  dACCESS:   13906492  dHIT:   11567476  dMISS:    2339016  itACCESS:          0  itHIT:          0  itMISS:          0  dtACCESS:          0  dtHIT:          0  dtMISS:          0
cpu0_L1D WRITE        ACCESS:   10146096  HIT:    9571842  MISS:     574254  iACCESS:          0  iHIT:          0  iMISS:          0  dACCESS:   10146096  dHIT:    9571842  dMISS:     574254  itACCESS:          0  itHIT:          0  itMISS:          0  dtACCESS:          0  dtHIT:          0  dtMISS:          0
cpu0_L1D TRANSLATION  ACCESS:     553570  HIT:      33660  MISS:     519910  iACCESS:          0  iHIT:          0  iMISS:          0  dACCESS:          0  dHIT:          0  dMISS:          0  itACCESS:     130121  itHIT:      14492  itMISS:     115629  dtACCESS:     423449  dtHIT:      19168  dtMISS:     404281
cpu0_L1D PREFETCH  REQUESTED:   20235427  ISSUED:   18407011  CROSSED:          0  USEFUL:     361654  USELESS:     929782
cpu0_L1D AVERAGE iMISS LATENCY: 0 cycles
cpu0_L1D AVERAGE dMISS LATENCY: 50.4007 cycles
cpu0_L1D AVERAGE itMISS LATENCY: 2.18682 cycles
cpu0_L1D AVERAGE dtMISS LATENCY: 6.87854 cycles
cpu0_L1D PAGE CROSSINGS (TLB HIT):         0 
cpu0_L1D PAGE CROSSINGS (TLB MISS):         0 
cpu0_L1D AVERAGE MISS LATENCY: 59.4661 cycles
cpu0_L2C TOTAL       ACCESS:    8564933  HIT:    1542860  MISS:    7022073  iACCESS:    3726705  iHIT:     806305  iMISS:    2920400  dACCESS:    4347761  dHIT:     538835  dMISS:    3808926  itACCESS:     114798  itHIT:      39283  itMISS:      75515  dtACCESS:     375669  dtHIT:     158437  dtMISS:     217232
cpu0_L2C LOAD         ACCESS:    2031213  HIT:     204434  MISS:    1826779  iACCESS:     830070  iHIT:     116906  iMISS:     713164  dACCESS:    1201143  dHIT:      87528  dMISS:    1113615  itACCESS:          0  itHIT:          0  itMISS:          0  dtACCESS:          0  dtHIT:          0  dtMISS:          0
cpu0_L2C RFO          ACCESS:     218972  HIT:      30615  MISS:     188357  iACCESS:          0  iHIT:          0  iMISS:          0  dACCESS:     218972  dHIT:      30615  dMISS:     188357  itACCESS:          0  itHIT:          0  itMISS:          0  dtACCESS:          0  dtHIT:          0  dtMISS:          0
cpu0_L2C PREFETCH     ACCESS:    5477672  HIT:    1011972  MISS:    4465700  iACCESS:    2896635  iHIT:     689399  iMISS:    2207236  dACCESS:    2581037  dHIT:     322573  dMISS:    2258464  itACCESS:          0  itHIT:          0  itMISS:          0  dtACCESS:          0  dtHIT:          0  dtMISS:          0
cpu0_L2C WRITE        ACCESS:     346609  HIT:      98119  MISS:     248490  iACCESS:          0  iHIT:          0  iMISS:          0  dACCESS:     346609  dHIT:      98119  dMISS:     248490  itACCESS:          0  itHIT:          0  itMISS:          0  dtACCESS:          0  dtHIT:          0  dtMISS:          0
cpu0_L2C TRANSLATION  ACCESS:     490467  HIT:     197720  MISS:     292747  iACCESS:          0  iHIT:          0  iMISS:          0  dACCESS:          0  dHIT:          0  dMISS:          0  itACCESS:     114798  itHIT:      39283  itMISS:      75515  dtACCESS:     375669  dtHIT:     158437  dtMISS:     217232
cpu0_L2C PREFETCH  REQUESTED:    1527939  ISSUED:    1527939  CROSSED:          0  USEFUL:     410785  USELESS:     483900
cpu0_L2C AVERAGE iMISS LATENCY: 27.176 cycles
cpu0_L2C AVERAGE dMISS LATENCY: 51.4367 cycles
cpu0_L2C AVERAGE itMISS LATENCY: 1.65041 cycles
cpu0_L2C AVERAGE dtMISS LATENCY: 5.17453 cycles
cpu0_L2C PAGE CROSSINGS (TLB HIT):         0 
cpu0_L2C PAGE CROSSINGS (TLB MISS):         0 
cpu0_L2C AVERAGE MISS LATENCY: 85.4376 cycles
LLC TOTAL       ACCESS:    6826281  HIT:    4068505  MISS:    2757776  iACCESS:    2828069  iHIT:    1963848  iMISS:     864221  dACCESS:    3705465  dHIT:    2035019  dMISS:    1670446  itACCESS:      75515  itHIT:      18864  itMISS:      56651  dtACCESS:     217232  dtHIT:      50774  dtMISS:     166458
LLC LOAD         ACCESS:    1819725  HIT:    1150907  MISS:     668818  iACCESS:     711739  iHIT:     528141  iMISS:     183598  dACCESS:    1107986  dHIT:     622766  dMISS:     485220  itACCESS:          0  itHIT:          0  itMISS:          0  dtACCESS:          0  dtHIT:          0  dtMISS:          0
LLC RFO          ACCESS:     188344  HIT:      95297  MISS:      93047  iACCESS:          0  iHIT:          0  iMISS:          0  dACCESS:     188344  dHIT:      95297  dMISS:      93047  itACCESS:          0  itHIT:          0  itMISS:          0  dtACCESS:          0  dtHIT:          0  dtMISS:          0
LLC PREFETCH     ACCESS:    4249086  HIT:    2482421  MISS:    1766665  iACCESS:    2116330  iHIT:    1435707  iMISS:     680623  dACCESS:    2132756  dHIT:    1046714  dMISS:    1086042  itACCESS:          0  itHIT:          0  itMISS:          0  dtACCESS:          0  dtHIT:          0  dtMISS:          0
LLC WRITE        ACCESS:     276379  HIT:     270242  MISS:       6137  iACCESS:          0  iHIT:          0  iMISS:          0  dACCESS:     276379  dHIT:     270242  dMISS:       6137  itACCESS:          0  itHIT:          0  itMISS:          0  dtACCESS:          0  dtHIT:          0  dtMISS:          0
LLC TRANSLATION  ACCESS:     292747  HIT:      69638  MISS:     223109  iACCESS:          0  iHIT:          0  iMISS:          0  dACCESS:          0  dHIT:          0  dMISS:          0  itACCESS:      75515  itHIT:      18864  itMISS:      56651  dtACCESS:     217232  dtHIT:      50774  dtMISS:     166458
LLC PREFETCH  REQUESTED:          0  ISSUED:          0  CROSSED:          0  USEFUL:          0  USELESS:          0
LLC AVERAGE iMISS LATENCY: 49.2683 cycles
LLC AVERAGE dMISS LATENCY: 107.799 cycles
LLC AVERAGE itMISS LATENCY: 3.66331 cycles
LLC AVERAGE dtMISS LATENCY: 11.6245 cycles
LLC PAGE CROSSINGS (TLB HIT):         0 
LLC PAGE CROSSINGS (TLB MISS):         0 
LLC AVERAGE MISS LATENCY: 172.355 cycles

PageTableWalker TOTAL       ACCESS:     195012  
PageTableWalker AVERAGE LATENCY: 5.74342 cycles
PageTableWalker TOTAL LATENCY: 1120035 cycles

DRAM Statistics
Channel 0
 RQ ROW_BUFFER_HIT:     612565
  ROW_BUFFER_MISS:    2118650
 AVG DBUS CONGESTED CYCLE:    3.65707
 WQ ROW_BUFFER_HIT:      67016
  ROW_BUFFER_MISS:      65063  FULL:          0

