last_page:0x200000000000000
VMEM_RES_CAP:0x100000
PAGE_SIZE:4096
LOG2_PAGE_SIZE:12
LOG2_PAGE_TABLE_SIZE:9
page_table_levels:5
WARNING: physical memory size is smaller than virtual memory size
FDiP enabled with aggresivity 16

*** ChampSim Multicore Out-of-Order Simulator ***

Warmup Instructions: 50000000
Simulation Instructions: 100000000
Number of CPUs: 1
Small page size: 4096
Large page size: 2097152

CPU 0 Bimodal branch predictor
Basic BTB sets: 1024 ways: 8 indirect buffer size: 4096 RAS size: 64
Instruction page size distrubution: 0
Loading instruction page size distribution from /home/bsc/bsc018186/scratch/itp_asplos25_AE/dump/smt_srv12_ap_srv551_ap_1024i.pdst
Data page size distrubution: 0
Loading data page size distribution from /home/bsc/bsc018186/scratch/itp_asplos25_AE/dump/smt_srv12_ap_srv551_ap_1024i.pdst
cpu0_L2C IP-based stride prefetcher
cpu0_L1D next line prefetcher
cpu0_STLB using iTP with max lru@8
cpu0_STLB using iTP with instr@0 and data@2
Init sat counter with 3 bits (max:50).
cpu0_L1I next line prefetcher
Off-chip DRAM Size: 4 GiB Channels: 1 Width: 64-bit Data Rate: 3200 MT/s
Heartbeat CPU 0 instructions: 10000002 cycles: 2500323 heartbeat IPC: 3.99949 cumulative IPC: 3.99949 (Simulation time: 0 hr 0 min 35 sec) 
Heartbeat CPU 0 instructions: 20000002 cycles: 5000604 heartbeat IPC: 3.99956 cumulative IPC: 3.99952 (Simulation time: 0 hr 1 min 13 sec) 
Heartbeat CPU 0 instructions: 30000002 cycles: 7501174 heartbeat IPC: 3.99909 cumulative IPC: 3.99938 (Simulation time: 0 hr 1 min 52 sec) 
Heartbeat CPU 0 instructions: 40000000 cycles: 10001452 heartbeat IPC: 3.99956 cumulative IPC: 3.99942 (Simulation time: 0 hr 2 min 31 sec) 
Heartbeat CPU 0 instructions: 50000001 cycles: 12501655 heartbeat IPC: 3.99968 cumulative IPC: 3.99948 (Simulation time: 0 hr 3 min 9 sec) 
Warmup finished CPU 0 instructions: 50000001 cycles: 12501656 cumulative IPC: 3.99948 (Simulation time: 0 hr 3 min 9 sec) 

Warmup complete CPU 0 instructions: 50000001 cycles: 12501656 (Simulation time: 0 hr 3 min 9 sec) 

Heartbeat CPU 0 instructions: 60000000 cycles: 41618268 heartbeat IPC: 0.343447 cumulative IPC: 0.343447 (Simulation time: 0 hr 4 min 30 sec) 
Heartbeat CPU 0 instructions: 70000000 cycles: 71535383 heartbeat IPC: 0.334257 cumulative IPC: 0.33879 (Simulation time: 0 hr 5 min 52 sec) 
Heartbeat CPU 0 instructions: 80000001 cycles: 100569280 heartbeat IPC: 0.344426 cumulative IPC: 0.340648 (Simulation time: 0 hr 7 min 12 sec) 
Heartbeat CPU 0 instructions: 90000002 cycles: 126753509 heartbeat IPC: 0.38191 cumulative IPC: 0.350104 (Simulation time: 0 hr 8 min 29 sec) 
Heartbeat CPU 0 instructions: 100000000 cycles: 155611752 heartbeat IPC: 0.346522 cumulative IPC: 0.349382 (Simulation time: 0 hr 9 min 49 sec) 
Heartbeat CPU 0 instructions: 110000000 cycles: 183980550 heartbeat IPC: 0.3525 cumulative IPC: 0.349898 (Simulation time: 0 hr 11 min 9 sec) 
Heartbeat CPU 0 instructions: 120000001 cycles: 208863623 heartbeat IPC: 0.40188 cumulative IPC: 0.356485 (Simulation time: 0 hr 12 min 26 sec) 
Heartbeat CPU 0 instructions: 130000001 cycles: 226783494 heartbeat IPC: 0.55804 cumulative IPC: 0.373341 (Simulation time: 0 hr 13 min 36 sec) 
Heartbeat CPU 0 instructions: 140000000 cycles: 245252555 heartbeat IPC: 0.541446 cumulative IPC: 0.38668 (Simulation time: 0 hr 14 min 45 sec) 
Heartbeat CPU 0 instructions: 150000002 cycles: 275014435 heartbeat IPC: 0.336001 cumulative IPC: 0.380934 (Simulation time: 0 hr 16 min 7 sec) 
Simulation finished CPU 0 instructions: 100000001 cycles: 262512780 cumulative IPC: 0.380934 (Simulation time: 0 hr 16 min 7 sec) 

Simulation complete CPU 0 instructions: 100000001 cycles: 262512780 (Simulation time: 0 hr 16 min 7 sec) 


ChampSim completed all CPUs

Saving instructions large page distribution to /home/bsc/bsc018186/scratch/itp_asplos25_AE/dump/smt_srv12_ap_srv551_ap_1024i.pdst...
Saving data large page distribution to /home/bsc/bsc018186/scratch/itp_asplos25_AE/dump/smt_srv12_ap_srv551_ap_1024i.pdst...
=== Simulation ===
CPU 0 runs /gpfs/projects/bsc18/MN4/bsc18/romol/ChampSim/traces/qualcomm_srv/smt_srv12_ap_srv551_ap_1024i.champsimtrace.xz

Region of Interest Statistics

CPU 0 cumulative IPC: 0.380934 instructions: 100000001 cycles: 262512780
CPU 0 Branch Prediction Accuracy: 77.4284% MPKI: 43.7503 Average ROB Occupancy at Mispredict: 11.1514
Branch type MPKI
BRANCH_DIRECT_JUMP: 1.31189
BRANCH_INDIRECT: 23.221
BRANCH_CONDITIONAL: 12.1681
BRANCH_DIRECT_CALL: 2.50058
BRANCH_INDIRECT_CALL: 1.1935
BRANCH_RETURN: 3.35538

Instructions large pages: 0
Instructions small pages: 11842
Large page distribution for instructions: 0%

Data large pages: 0
Data small pages: 9976
Large page distribution for data: 0%

cpu0_L1I TOTAL       ACCESS:   40237332  HIT:   32085621  MISS:    8151711  iACCESS:   40237332  iHIT:   32085621  iMISS:    8151711  dACCESS:          0  dHIT:          0  dMISS:          0  itACCESS:          0  itHIT:          0  itMISS:          0  dtACCESS:          0  dtHIT:          0  dtMISS:          0
cpu0_L1I LOAD         ACCESS:   11448835  HIT:    9242420  MISS:    2206415  iACCESS:   11448835  iHIT:    9242420  iMISS:    2206415  dACCESS:          0  dHIT:          0  dMISS:          0  itACCESS:          0  itHIT:          0  itMISS:          0  dtACCESS:          0  dtHIT:          0  dtMISS:          0
cpu0_L1I RFO          ACCESS:          0  HIT:          0  MISS:          0  iACCESS:          0  iHIT:          0  iMISS:          0  dACCESS:          0  dHIT:          0  dMISS:          0  itACCESS:          0  itHIT:          0  itMISS:          0  dtACCESS:          0  dtHIT:          0  dtMISS:          0
cpu0_L1I PREFETCH     ACCESS:   28788497  HIT:   22843201  MISS:    5945296  iACCESS:   28788497  iHIT:   22843201  iMISS:    5945296  dACCESS:          0  dHIT:          0  dMISS:          0  itACCESS:          0  itHIT:          0  itMISS:          0  dtACCESS:          0  dtHIT:          0  dtMISS:          0
cpu0_L1I WRITE        ACCESS:          0  HIT:          0  MISS:          0  iACCESS:          0  iHIT:          0  iMISS:          0  dACCESS:          0  dHIT:          0  dMISS:          0  itACCESS:          0  itHIT:          0  itMISS:          0  dtACCESS:          0  dtHIT:          0  dtMISS:          0
cpu0_L1I TRANSLATION  ACCESS:          0  HIT:          0  MISS:          0  iACCESS:          0  iHIT:          0  iMISS:          0  dACCESS:          0  dHIT:          0  dMISS:          0  itACCESS:          0  itHIT:          0  itMISS:          0  dtACCESS:          0  dtHIT:          0  dtMISS:          0
cpu0_L1I PREFETCH  REQUESTED:   31306684  ISSUED:   31305477  CROSSED:          0  USEFUL:    1985208  USELESS:     691474
cpu0_L1I AVERAGE iMISS LATENCY: 25.073 cycles
cpu0_L1I AVERAGE dMISS LATENCY: 0 cycles
cpu0_L1I AVERAGE itMISS LATENCY: 0 cycles
cpu0_L1I AVERAGE dtMISS LATENCY: 0 cycles
cpu0_L1I PAGE CROSSINGS (TLB HIT):         0 
cpu0_L1I PAGE CROSSINGS (TLB MISS):         0 
cpu0_L1I AVERAGE MISS LATENCY: 25.073 cycles
cpu0_ITLB TOTAL       ACCESS:   33740847  HIT:   31758991  MISS:    1981856  iACCESS:   33740847  iHIT:   31758991  iMISS:    1981856  dACCESS:          0  dHIT:          0  dMISS:          0  itACCESS:          0  itHIT:          0  itMISS:          0  dtACCESS:          0  dtHIT:          0  dtMISS:          0
cpu0_ITLB LOAD         ACCESS:   33740847  HIT:   31758991  MISS:    1981856  iACCESS:   33740847  iHIT:   31758991  iMISS:    1981856  dACCESS:          0  dHIT:          0  dMISS:          0  itACCESS:          0  itHIT:          0  itMISS:          0  dtACCESS:          0  dtHIT:          0  dtMISS:          0
cpu0_ITLB RFO          ACCESS:          0  HIT:          0  MISS:          0  iACCESS:          0  iHIT:          0  iMISS:          0  dACCESS:          0  dHIT:          0  dMISS:          0  itACCESS:          0  itHIT:          0  itMISS:          0  dtACCESS:          0  dtHIT:          0  dtMISS:          0
cpu0_ITLB PREFETCH     ACCESS:          0  HIT:          0  MISS:          0  iACCESS:          0  iHIT:          0  iMISS:          0  dACCESS:          0  dHIT:          0  dMISS:          0  itACCESS:          0  itHIT:          0  itMISS:          0  dtACCESS:          0  dtHIT:          0  dtMISS:          0
cpu0_ITLB WRITE        ACCESS:          0  HIT:          0  MISS:          0  iACCESS:          0  iHIT:          0  iMISS:          0  dACCESS:          0  dHIT:          0  dMISS:          0  itACCESS:          0  itHIT:          0  itMISS:          0  dtACCESS:          0  dtHIT:          0  dtMISS:          0
cpu0_ITLB TRANSLATION  ACCESS:          0  HIT:          0  MISS:          0  iACCESS:          0  iHIT:          0  iMISS:          0  dACCESS:          0  dHIT:          0  dMISS:          0  itACCESS:          0  itHIT:          0  itMISS:          0  dtACCESS:          0  dtHIT:          0  dtMISS:          0
cpu0_ITLB PREFETCH  REQUESTED:          0  ISSUED:          0  CROSSED:          0  USEFUL:     354004  USELESS:      71323
cpu0_ITLB AVERAGE iMISS LATENCY: 5.98331 cycles
cpu0_ITLB AVERAGE dMISS LATENCY: 0 cycles
cpu0_ITLB AVERAGE itMISS LATENCY: 0 cycles
cpu0_ITLB AVERAGE dtMISS LATENCY: 0 cycles
cpu0_ITLB PAGE CROSSINGS (TLB HIT):         0 
cpu0_ITLB PAGE CROSSINGS (TLB MISS):         0 
cpu0_ITLB AVERAGE MISS LATENCY: 5.98331 cycles
cpu0_DTLB TOTAL       ACCESS:   30900873  HIT:   24947066  MISS:    5953807  iACCESS:          0  iHIT:          0  iMISS:          0  dACCESS:   30900873  dHIT:   24947066  dMISS:    5953807  itACCESS:          0  itHIT:          0  itMISS:          0  dtACCESS:          0  dtHIT:          0  dtMISS:          0
cpu0_DTLB LOAD         ACCESS:   30900873  HIT:   24947066  MISS:    5953807  iACCESS:          0  iHIT:          0  iMISS:          0  dACCESS:   30900873  dHIT:   24947066  dMISS:    5953807  itACCESS:          0  itHIT:          0  itMISS:          0  dtACCESS:          0  dtHIT:          0  dtMISS:          0
cpu0_DTLB RFO          ACCESS:          0  HIT:          0  MISS:          0  iACCESS:          0  iHIT:          0  iMISS:          0  dACCESS:          0  dHIT:          0  dMISS:          0  itACCESS:          0  itHIT:          0  itMISS:          0  dtACCESS:          0  dtHIT:          0  dtMISS:          0
cpu0_DTLB PREFETCH     ACCESS:          0  HIT:          0  MISS:          0  iACCESS:          0  iHIT:          0  iMISS:          0  dACCESS:          0  dHIT:          0  dMISS:          0  itACCESS:          0  itHIT:          0  itMISS:          0  dtACCESS:          0  dtHIT:          0  dtMISS:          0
cpu0_DTLB WRITE        ACCESS:          0  HIT:          0  MISS:          0  iACCESS:          0  iHIT:          0  iMISS:          0  dACCESS:          0  dHIT:          0  dMISS:          0  itACCESS:          0  itHIT:          0  itMISS:          0  dtACCESS:          0  dtHIT:          0  dtMISS:          0
cpu0_DTLB TRANSLATION  ACCESS:          0  HIT:          0  MISS:          0  iACCESS:          0  iHIT:          0  iMISS:          0  dACCESS:          0  dHIT:          0  dMISS:          0  itACCESS:          0  itHIT:          0  itMISS:          0  dtACCESS:          0  dtHIT:          0  dtMISS:          0
cpu0_DTLB PREFETCH  REQUESTED:          0  ISSUED:          0  CROSSED:          0  USEFUL:          0  USELESS:          0
cpu0_DTLB AVERAGE iMISS LATENCY: 0 cycles
cpu0_DTLB AVERAGE dMISS LATENCY: 11.7574 cycles
cpu0_DTLB AVERAGE itMISS LATENCY: 0 cycles
cpu0_DTLB AVERAGE dtMISS LATENCY: 0 cycles
cpu0_DTLB PAGE CROSSINGS (TLB HIT):         0 
cpu0_DTLB PAGE CROSSINGS (TLB MISS):         0 
cpu0_DTLB AVERAGE MISS LATENCY: 11.7574 cycles
cpu0_STLB TOTAL       ACCESS:    3634492  HIT:    3313030  MISS:     321462  iACCESS:     425342  iHIT:     369149  iMISS:      56193  dACCESS:    3209150  dHIT:    2943881  dMISS:     265269  itACCESS:          0  itHIT:          0  itMISS:          0  dtACCESS:          0  dtHIT:          0  dtMISS:          0
cpu0_STLB LOAD         ACCESS:    3634492  HIT:    3313030  MISS:     321462  iACCESS:     425342  iHIT:     369149  iMISS:      56193  dACCESS:    3209150  dHIT:    2943881  dMISS:     265269  itACCESS:          0  itHIT:          0  itMISS:          0  dtACCESS:          0  dtHIT:          0  dtMISS:          0
cpu0_STLB RFO          ACCESS:          0  HIT:          0  MISS:          0  iACCESS:          0  iHIT:          0  iMISS:          0  dACCESS:          0  dHIT:          0  dMISS:          0  itACCESS:          0  itHIT:          0  itMISS:          0  dtACCESS:          0  dtHIT:          0  dtMISS:          0
cpu0_STLB PREFETCH     ACCESS:          0  HIT:          0  MISS:          0  iACCESS:          0  iHIT:          0  iMISS:          0  dACCESS:          0  dHIT:          0  dMISS:          0  itACCESS:          0  itHIT:          0  itMISS:          0  dtACCESS:          0  dtHIT:          0  dtMISS:          0
cpu0_STLB WRITE        ACCESS:          0  HIT:          0  MISS:          0  iACCESS:          0  iHIT:          0  iMISS:          0  dACCESS:          0  dHIT:          0  dMISS:          0  itACCESS:          0  itHIT:          0  itMISS:          0  dtACCESS:          0  dtHIT:          0  dtMISS:          0
cpu0_STLB TRANSLATION  ACCESS:          0  HIT:          0  MISS:          0  iACCESS:          0  iHIT:          0  iMISS:          0  dACCESS:          0  dHIT:          0  dMISS:          0  itACCESS:          0  itHIT:          0  itMISS:          0  dtACCESS:          0  dtHIT:          0  dtMISS:          0
cpu0_STLB PREFETCH  REQUESTED:          0  ISSUED:          0  CROSSED:          0  USEFUL:          0  USELESS:          0
cpu0_STLB AVERAGE iMISS LATENCY: 26.4756 cycles
cpu0_STLB AVERAGE dMISS LATENCY: 136.945 cycles
cpu0_STLB AVERAGE itMISS LATENCY: 0 cycles
cpu0_STLB AVERAGE dtMISS LATENCY: 0 cycles
cpu0_STLB PAGE CROSSINGS (TLB HIT):         0 
cpu0_STLB PAGE CROSSINGS (TLB MISS):         0 
cpu0_STLB AVERAGE MISS LATENCY: 163.421 cycles
cpu0_L1D TOTAL       ACCESS:   49671896  HIT:   39820611  MISS:    9851285  iACCESS:          0  iHIT:          0  iMISS:          0  dACCESS:   49183938  dHIT:   39796458  dMISS:    9387480  itACCESS:      65655  itHIT:       5275  itMISS:      60380  dtACCESS:     422303  dtHIT:      18878  dtMISS:     403425
cpu0_L1D LOAD         ACCESS:   23710360  HIT:   18521974  MISS:    5188386  iACCESS:          0  iHIT:          0  iMISS:          0  dACCESS:   23710360  dHIT:   18521974  dMISS:    5188386  itACCESS:          0  itHIT:          0  itMISS:          0  dtACCESS:          0  dtHIT:          0  dtMISS:          0
cpu0_L1D RFO          ACCESS:          0  HIT:          0  MISS:          0  iACCESS:          0  iHIT:          0  iMISS:          0  dACCESS:          0  dHIT:          0  dMISS:          0  itACCESS:          0  itHIT:          0  itMISS:          0  dtACCESS:          0  dtHIT:          0  dtMISS:          0
cpu0_L1D PREFETCH     ACCESS:   15671302  HIT:   12052378  MISS:    3618924  iACCESS:          0  iHIT:          0  iMISS:          0  dACCESS:   15671302  dHIT:   12052378  dMISS:    3618924  itACCESS:          0  itHIT:          0  itMISS:          0  dtACCESS:          0  dtHIT:          0  dtMISS:          0
cpu0_L1D WRITE        ACCESS:    9802276  HIT:    9222106  MISS:     580170  iACCESS:          0  iHIT:          0  iMISS:          0  dACCESS:    9802276  dHIT:    9222106  dMISS:     580170  itACCESS:          0  itHIT:          0  itMISS:          0  dtACCESS:          0  dtHIT:          0  dtMISS:          0
cpu0_L1D TRANSLATION  ACCESS:     487958  HIT:      24153  MISS:     463805  iACCESS:          0  iHIT:          0  iMISS:          0  dACCESS:          0  dHIT:          0  dMISS:          0  itACCESS:      65655  itHIT:       5275  itMISS:      60380  dtACCESS:     422303  dtHIT:      18878  dtMISS:     403425
cpu0_L1D PREFETCH  REQUESTED:   23710360  ISSUED:   19073665  CROSSED:          0  USEFUL:     332692  USELESS:    1053713
cpu0_L1D AVERAGE iMISS LATENCY: 0 cycles
cpu0_L1D AVERAGE dMISS LATENCY: 30.971 cycles
cpu0_L1D AVERAGE itMISS LATENCY: 0.795577 cycles
cpu0_L1D AVERAGE dtMISS LATENCY: 3.99007 cycles
cpu0_L1D PAGE CROSSINGS (TLB HIT):         0 
cpu0_L1D PAGE CROSSINGS (TLB MISS):         0 
cpu0_L1D AVERAGE MISS LATENCY: 35.7566 cycles
cpu0_L2C TOTAL       ACCESS:    9807696  HIT:    2064770  MISS:    7742926  iACCESS:    3387026  iHIT:     701535  iMISS:    2685491  dACCESS:    5982829  dHIT:    1193666  dMISS:    4789163  itACCESS:      60024  itHIT:      15670  itMISS:      44354  dtACCESS:     377817  dtHIT:     153899  dtMISS:     223918
cpu0_L2C LOAD         ACCESS:    3604730  HIT:     774358  MISS:    2830372  iACCESS:     741855  iHIT:      95714  iMISS:     646141  dACCESS:    2862875  dHIT:     678644  dMISS:    2184231  itACCESS:          0  itHIT:          0  itMISS:          0  dtACCESS:          0  dtHIT:          0  dtMISS:          0
cpu0_L2C RFO          ACCESS:     229330  HIT:      36781  MISS:     192549  iACCESS:          0  iHIT:          0  iMISS:          0  dACCESS:     229330  dHIT:      36781  dMISS:     192549  itACCESS:          0  itHIT:          0  itMISS:          0  dtACCESS:          0  dtHIT:          0  dtMISS:          0
cpu0_L2C PREFETCH     ACCESS:    5216976  HIT:     980314  MISS:    4236662  iACCESS:    2645171  iHIT:     605821  iMISS:    2039350  dACCESS:    2571805  dHIT:     374493  dMISS:    2197312  itACCESS:          0  itHIT:          0  itMISS:          0  dtACCESS:          0  dtHIT:          0  dtMISS:          0
cpu0_L2C WRITE        ACCESS:     318819  HIT:     103748  MISS:     215071  iACCESS:          0  iHIT:          0  iMISS:          0  dACCESS:     318819  dHIT:     103748  dMISS:     215071  itACCESS:          0  itHIT:          0  itMISS:          0  dtACCESS:          0  dtHIT:          0  dtMISS:          0
cpu0_L2C TRANSLATION  ACCESS:     437841  HIT:     169569  MISS:     268272  iACCESS:          0  iHIT:          0  iMISS:          0  dACCESS:          0  dHIT:          0  dMISS:          0  itACCESS:      60024  itHIT:      15670  itMISS:      44354  dtACCESS:     377817  dtHIT:     153899  dtMISS:     223918
cpu0_L2C PREFETCH  REQUESTED:    1393523  ISSUED:    1393517  CROSSED:          0  USEFUL:     368402  USELESS:     447127
cpu0_L2C AVERAGE iMISS LATENCY: 22.6834 cycles
cpu0_L2C AVERAGE dMISS LATENCY: 44.647 cycles
cpu0_L2C AVERAGE itMISS LATENCY: 0.936491 cycles
cpu0_L2C AVERAGE dtMISS LATENCY: 4.60635 cycles
cpu0_L2C PAGE CROSSINGS (TLB HIT):         0 
cpu0_L2C PAGE CROSSINGS (TLB MISS):         0 
cpu0_L2C AVERAGE MISS LATENCY: 72.8732 cycles
LLC TOTAL       ACCESS:    7562628  HIT:    5083463  MISS:    2479165  iACCESS:    2602937  iHIT:    1802636  iMISS:     800301  dACCESS:    4691419  dHIT:    3212500  dMISS:    1478919  itACCESS:      44354  itHIT:       8536  itMISS:      35818  dtACCESS:     223918  dtHIT:      59791  dtMISS:     164127
LLC LOAD         ACCESS:    2823762  HIT:    2232472  MISS:     591290  iACCESS:     645000  iHIT:     477575  iMISS:     167425  dACCESS:    2178762  dHIT:    1754897  dMISS:     423865  itACCESS:          0  itHIT:          0  itMISS:          0  dtACCESS:          0  dtHIT:          0  dtMISS:          0
LLC RFO          ACCESS:     192516  HIT:     109463  MISS:      83053  iACCESS:          0  iHIT:          0  iMISS:          0  dACCESS:     192516  dHIT:     109463  dMISS:      83053  itACCESS:          0  itHIT:          0  itMISS:          0  dtACCESS:          0  dtHIT:          0  dtMISS:          0
LLC PREFETCH     ACCESS:    4035818  HIT:    2437649  MISS:    1598169  iACCESS:    1957937  iHIT:    1325061  iMISS:     632876  dACCESS:    2077881  dHIT:    1112588  dMISS:     965293  itACCESS:          0  itHIT:          0  itMISS:          0  dtACCESS:          0  dtHIT:          0  dtMISS:          0
LLC WRITE        ACCESS:     242260  HIT:     235552  MISS:       6708  iACCESS:          0  iHIT:          0  iMISS:          0  dACCESS:     242260  dHIT:     235552  dMISS:       6708  itACCESS:          0  itHIT:          0  itMISS:          0  dtACCESS:          0  dtHIT:          0  dtMISS:          0
LLC TRANSLATION  ACCESS:     268272  HIT:      68327  MISS:     199945  iACCESS:          0  iHIT:          0  iMISS:          0  dACCESS:          0  dHIT:          0  dMISS:          0  itACCESS:      44354  itHIT:       8536  itMISS:      35818  dtACCESS:     223918  dtHIT:      59791  dtMISS:     164127
LLC PREFETCH  REQUESTED:          0  ISSUED:          0  CROSSED:          0  USEFUL:          0  USELESS:          0
LLC AVERAGE iMISS LATENCY: 50.459 cycles
LLC AVERAGE dMISS LATENCY: 105.364 cycles
LLC AVERAGE itMISS LATENCY: 2.57184 cycles
LLC AVERAGE dtMISS LATENCY: 12.6101 cycles
LLC PAGE CROSSINGS (TLB HIT):         0 
LLC PAGE CROSSINGS (TLB MISS):         0 
LLC AVERAGE MISS LATENCY: 171.005 cycles

PageTableWalker TOTAL       ACCESS:     180119  
PageTableWalker AVERAGE LATENCY: 6.17466 cycles
PageTableWalker TOTAL LATENCY: 1112173 cycles

DRAM Statistics
Channel 0
 RQ ROW_BUFFER_HIT:     574092
  ROW_BUFFER_MISS:    1881315
 AVG DBUS CONGESTED CYCLE:    3.65465
 WQ ROW_BUFFER_HIT:      58068
  ROW_BUFFER_MISS:      53721  FULL:          0

