last_page:0x200000000000000
VMEM_RES_CAP:0x100000
PAGE_SIZE:4096
LOG2_PAGE_SIZE:12
LOG2_PAGE_TABLE_SIZE:9
page_table_levels:5
WARNING: physical memory size is smaller than virtual memory size
FDiP enabled with aggresivity 16

*** ChampSim Multicore Out-of-Order Simulator ***

Warmup Instructions: 50000000
Simulation Instructions: 100000000
Number of CPUs: 1
Small page size: 4096
Large page size: 2097152

CPU 0 Bimodal branch predictor
Basic BTB sets: 1024 ways: 8 indirect buffer size: 4096 RAS size: 64
Instruction page size distrubution: 0
Loading instruction page size distribution from /home/bsc/bsc018186/scratch/itp_asplos25_AE/dump/smt_srv537_ap_srv582_ap_1024i.pdst
Data page size distrubution: 0
Loading data page size distribution from /home/bsc/bsc018186/scratch/itp_asplos25_AE/dump/smt_srv537_ap_srv582_ap_1024i.pdst
cpu0_L2C IP-based stride prefetcher
cpu0_L2C is using PTP replacement policy:
	TLB_STRESS_THRESHOLD:0
	PTE_EVICTION_RATIO:0
cpu0_L1D next line prefetcher
cpu0_L1I next line prefetcher
Off-chip DRAM Size: 4 GiB Channels: 1 Width: 64-bit Data Rate: 3200 MT/s
Heartbeat CPU 0 instructions: 10000001 cycles: 2500689 heartbeat IPC: 3.9989 cumulative IPC: 3.9989 (Simulation time: 0 hr 0 min 44 sec) 
Heartbeat CPU 0 instructions: 20000000 cycles: 5000909 heartbeat IPC: 3.99965 cumulative IPC: 3.99928 (Simulation time: 0 hr 1 min 25 sec) 
Heartbeat CPU 0 instructions: 30000003 cycles: 7501146 heartbeat IPC: 3.99963 cumulative IPC: 3.99939 (Simulation time: 0 hr 2 min 6 sec) 
Heartbeat CPU 0 instructions: 40000000 cycles: 10001373 heartbeat IPC: 3.99964 cumulative IPC: 3.99946 (Simulation time: 0 hr 2 min 48 sec) 
Heartbeat CPU 0 instructions: 50000002 cycles: 12501699 heartbeat IPC: 3.99948 cumulative IPC: 3.99946 (Simulation time: 0 hr 3 min 30 sec) 
Warmup finished CPU 0 instructions: 50000002 cycles: 12501700 cumulative IPC: 3.99946 (Simulation time: 0 hr 3 min 30 sec) 

Warmup complete CPU 0 instructions: 50000002 cycles: 12501700 (Simulation time: 0 hr 3 min 30 sec) 

Heartbeat CPU 0 instructions: 60000003 cycles: 42439082 heartbeat IPC: 0.334031 cumulative IPC: 0.334031 (Simulation time: 0 hr 4 min 57 sec) 
Heartbeat CPU 0 instructions: 70000000 cycles: 73143845 heartbeat IPC: 0.325683 cumulative IPC: 0.329804 (Simulation time: 0 hr 6 min 24 sec) 
Heartbeat CPU 0 instructions: 80000002 cycles: 102341420 heartbeat IPC: 0.342495 cumulative IPC: 0.333929 (Simulation time: 0 hr 7 min 51 sec) 
Heartbeat CPU 0 instructions: 90000000 cycles: 132053133 heartbeat IPC: 0.336568 cumulative IPC: 0.334585 (Simulation time: 0 hr 9 min 19 sec) 
Heartbeat CPU 0 instructions: 100000003 cycles: 162585452 heartbeat IPC: 0.327522 cumulative IPC: 0.333148 (Simulation time: 0 hr 11 min 0 sec) 
Heartbeat CPU 0 instructions: 110000000 cycles: 193474006 heartbeat IPC: 0.323745 cumulative IPC: 0.331543 (Simulation time: 0 hr 12 min 41 sec) 
Heartbeat CPU 0 instructions: 120000002 cycles: 223052654 heartbeat IPC: 0.338082 cumulative IPC: 0.332462 (Simulation time: 0 hr 14 min 18 sec) 
Heartbeat CPU 0 instructions: 130000003 cycles: 252335178 heartbeat IPC: 0.341501 cumulative IPC: 0.333565 (Simulation time: 0 hr 15 min 57 sec) 
Heartbeat CPU 0 instructions: 140000003 cycles: 282250796 heartbeat IPC: 0.334274 cumulative IPC: 0.333644 (Simulation time: 0 hr 17 min 36 sec) 
Heartbeat CPU 0 instructions: 150000002 cycles: 311492979 heartbeat IPC: 0.341972 cumulative IPC: 0.334458 (Simulation time: 0 hr 19 min 13 sec) 
Simulation finished CPU 0 instructions: 100000000 cycles: 298991280 cumulative IPC: 0.334458 (Simulation time: 0 hr 19 min 13 sec) 

Simulation complete CPU 0 instructions: 100000000 cycles: 298991280 (Simulation time: 0 hr 19 min 13 sec) 


ChampSim completed all CPUs

Saving instructions large page distribution to /home/bsc/bsc018186/scratch/itp_asplos25_AE/dump/smt_srv537_ap_srv582_ap_1024i.pdst...
Saving data large page distribution to /home/bsc/bsc018186/scratch/itp_asplos25_AE/dump/smt_srv537_ap_srv582_ap_1024i.pdst...
=== Simulation ===
CPU 0 runs /gpfs/projects/bsc18/MN4/bsc18/romol/ChampSim/traces/qualcomm_srv/smt_srv537_ap_srv582_ap_1024i.champsimtrace.xz

Region of Interest Statistics

CPU 0 cumulative IPC: 0.334458 instructions: 100000000 cycles: 298991280
CPU 0 Branch Prediction Accuracy: 75.196% MPKI: 44.8116 Average ROB Occupancy at Mispredict: 10.6776
Branch type MPKI
BRANCH_DIRECT_JUMP: 1.38828
BRANCH_INDIRECT: 23.1194
BRANCH_CONDITIONAL: 13.0578
BRANCH_DIRECT_CALL: 2.67902
BRANCH_INDIRECT_CALL: 1.03442
BRANCH_RETURN: 3.53271

Instructions large pages: 0
Instructions small pages: 10288
Large page distribution for instructions: 0%

Data large pages: 0
Data small pages: 8888
Large page distribution for data: 0%

cpu0_L1I TOTAL       ACCESS:   39372753  HIT:   30605256  MISS:    8767497  iACCESS:   39372753  iHIT:   30605256  iMISS:    8767497  dACCESS:          0  dHIT:          0  dMISS:          0  itACCESS:          0  itHIT:          0  itMISS:          0  dtACCESS:          0  dtHIT:          0  dtMISS:          0
cpu0_L1I LOAD         ACCESS:   11792348  HIT:    9405556  MISS:    2386792  iACCESS:   11792348  iHIT:    9405556  iMISS:    2386792  dACCESS:          0  dHIT:          0  dMISS:          0  itACCESS:          0  itHIT:          0  itMISS:          0  dtACCESS:          0  dtHIT:          0  dtMISS:          0
cpu0_L1I RFO          ACCESS:          0  HIT:          0  MISS:          0  iACCESS:          0  iHIT:          0  iMISS:          0  dACCESS:          0  dHIT:          0  dMISS:          0  itACCESS:          0  itHIT:          0  itMISS:          0  dtACCESS:          0  dtHIT:          0  dtMISS:          0
cpu0_L1I PREFETCH     ACCESS:   27580405  HIT:   21199700  MISS:    6380705  iACCESS:   27580405  iHIT:   21199700  iMISS:    6380705  dACCESS:          0  dHIT:          0  dMISS:          0  itACCESS:          0  itHIT:          0  itMISS:          0  dtACCESS:          0  dtHIT:          0  dtMISS:          0
cpu0_L1I WRITE        ACCESS:          0  HIT:          0  MISS:          0  iACCESS:          0  iHIT:          0  iMISS:          0  dACCESS:          0  dHIT:          0  dMISS:          0  itACCESS:          0  itHIT:          0  itMISS:          0  dtACCESS:          0  dtHIT:          0  dtMISS:          0
cpu0_L1I TRANSLATION  ACCESS:          0  HIT:          0  MISS:          0  iACCESS:          0  iHIT:          0  iMISS:          0  dACCESS:          0  dHIT:          0  dMISS:          0  itACCESS:          0  itHIT:          0  itMISS:          0  dtACCESS:          0  dtHIT:          0  dtMISS:          0
cpu0_L1I PREFETCH  REQUESTED:   30420053  ISSUED:   30420045  CROSSED:          0  USEFUL:    2224639  USELESS:     774640
cpu0_L1I AVERAGE iMISS LATENCY: 24.251 cycles
cpu0_L1I AVERAGE dMISS LATENCY: 0 cycles
cpu0_L1I AVERAGE itMISS LATENCY: 0 cycles
cpu0_L1I AVERAGE dtMISS LATENCY: 0 cycles
cpu0_L1I PAGE CROSSINGS (TLB HIT):         0 
cpu0_L1I PAGE CROSSINGS (TLB MISS):         0 
cpu0_L1I AVERAGE MISS LATENCY: 24.251 cycles
cpu0_ITLB TOTAL       ACCESS:   33331931  HIT:   31072887  MISS:    2259044  iACCESS:   33331931  iHIT:   31072887  iMISS:    2259044  dACCESS:          0  dHIT:          0  dMISS:          0  itACCESS:          0  itHIT:          0  itMISS:          0  dtACCESS:          0  dtHIT:          0  dtMISS:          0
cpu0_ITLB LOAD         ACCESS:   33331931  HIT:   31072887  MISS:    2259044  iACCESS:   33331931  iHIT:   31072887  iMISS:    2259044  dACCESS:          0  dHIT:          0  dMISS:          0  itACCESS:          0  itHIT:          0  itMISS:          0  dtACCESS:          0  dtHIT:          0  dtMISS:          0
cpu0_ITLB RFO          ACCESS:          0  HIT:          0  MISS:          0  iACCESS:          0  iHIT:          0  iMISS:          0  dACCESS:          0  dHIT:          0  dMISS:          0  itACCESS:          0  itHIT:          0  itMISS:          0  dtACCESS:          0  dtHIT:          0  dtMISS:          0
cpu0_ITLB PREFETCH     ACCESS:          0  HIT:          0  MISS:          0  iACCESS:          0  iHIT:          0  iMISS:          0  dACCESS:          0  dHIT:          0  dMISS:          0  itACCESS:          0  itHIT:          0  itMISS:          0  dtACCESS:          0  dtHIT:          0  dtMISS:          0
cpu0_ITLB WRITE        ACCESS:          0  HIT:          0  MISS:          0  iACCESS:          0  iHIT:          0  iMISS:          0  dACCESS:          0  dHIT:          0  dMISS:          0  itACCESS:          0  itHIT:          0  itMISS:          0  dtACCESS:          0  dtHIT:          0  dtMISS:          0
cpu0_ITLB TRANSLATION  ACCESS:          0  HIT:          0  MISS:          0  iACCESS:          0  iHIT:          0  iMISS:          0  dACCESS:          0  dHIT:          0  dMISS:          0  itACCESS:          0  itHIT:          0  itMISS:          0  dtACCESS:          0  dtHIT:          0  dtMISS:          0
cpu0_ITLB PREFETCH  REQUESTED:          0  ISSUED:          0  CROSSED:          0  USEFUL:     393687  USELESS:      80455
cpu0_ITLB AVERAGE iMISS LATENCY: 10.1104 cycles
cpu0_ITLB AVERAGE dMISS LATENCY: 0 cycles
cpu0_ITLB AVERAGE itMISS LATENCY: 0 cycles
cpu0_ITLB AVERAGE dtMISS LATENCY: 0 cycles
cpu0_ITLB PAGE CROSSINGS (TLB HIT):         0 
cpu0_ITLB PAGE CROSSINGS (TLB MISS):         0 
cpu0_ITLB AVERAGE MISS LATENCY: 10.1104 cycles
cpu0_DTLB TOTAL       ACCESS:   28846565  HIT:   25467007  MISS:    3379558  iACCESS:          0  iHIT:          0  iMISS:          0  dACCESS:   28846565  dHIT:   25467007  dMISS:    3379558  itACCESS:          0  itHIT:          0  itMISS:          0  dtACCESS:          0  dtHIT:          0  dtMISS:          0
cpu0_DTLB LOAD         ACCESS:   28846565  HIT:   25467007  MISS:    3379558  iACCESS:          0  iHIT:          0  iMISS:          0  dACCESS:   28846565  dHIT:   25467007  dMISS:    3379558  itACCESS:          0  itHIT:          0  itMISS:          0  dtACCESS:          0  dtHIT:          0  dtMISS:          0
cpu0_DTLB RFO          ACCESS:          0  HIT:          0  MISS:          0  iACCESS:          0  iHIT:          0  iMISS:          0  dACCESS:          0  dHIT:          0  dMISS:          0  itACCESS:          0  itHIT:          0  itMISS:          0  dtACCESS:          0  dtHIT:          0  dtMISS:          0
cpu0_DTLB PREFETCH     ACCESS:          0  HIT:          0  MISS:          0  iACCESS:          0  iHIT:          0  iMISS:          0  dACCESS:          0  dHIT:          0  dMISS:          0  itACCESS:          0  itHIT:          0  itMISS:          0  dtACCESS:          0  dtHIT:          0  dtMISS:          0
cpu0_DTLB WRITE        ACCESS:          0  HIT:          0  MISS:          0  iACCESS:          0  iHIT:          0  iMISS:          0  dACCESS:          0  dHIT:          0  dMISS:          0  itACCESS:          0  itHIT:          0  itMISS:          0  dtACCESS:          0  dtHIT:          0  dtMISS:          0
cpu0_DTLB TRANSLATION  ACCESS:          0  HIT:          0  MISS:          0  iACCESS:          0  iHIT:          0  iMISS:          0  dACCESS:          0  dHIT:          0  dMISS:          0  itACCESS:          0  itHIT:          0  itMISS:          0  dtACCESS:          0  dtHIT:          0  dtMISS:          0
cpu0_DTLB PREFETCH  REQUESTED:          0  ISSUED:          0  CROSSED:          0  USEFUL:          0  USELESS:          0
cpu0_DTLB AVERAGE iMISS LATENCY: 0 cycles
cpu0_DTLB AVERAGE dMISS LATENCY: 25.5577 cycles
cpu0_DTLB AVERAGE itMISS LATENCY: 0 cycles
cpu0_DTLB AVERAGE dtMISS LATENCY: 0 cycles
cpu0_DTLB PAGE CROSSINGS (TLB HIT):         0 
cpu0_DTLB PAGE CROSSINGS (TLB MISS):         0 
cpu0_DTLB AVERAGE MISS LATENCY: 25.5577 cycles
cpu0_STLB TOTAL       ACCESS:    2416827  HIT:    2048247  MISS:     368580  iACCESS:     474145  iHIT:     356664  iMISS:     117481  dACCESS:    1942682  dHIT:    1691583  dMISS:     251099  itACCESS:          0  itHIT:          0  itMISS:          0  dtACCESS:          0  dtHIT:          0  dtMISS:          0
cpu0_STLB LOAD         ACCESS:    2416827  HIT:    2048247  MISS:     368580  iACCESS:     474145  iHIT:     356664  iMISS:     117481  dACCESS:    1942682  dHIT:    1691583  dMISS:     251099  itACCESS:          0  itHIT:          0  itMISS:          0  dtACCESS:          0  dtHIT:          0  dtMISS:          0
cpu0_STLB RFO          ACCESS:          0  HIT:          0  MISS:          0  iACCESS:          0  iHIT:          0  iMISS:          0  dACCESS:          0  dHIT:          0  dMISS:          0  itACCESS:          0  itHIT:          0  itMISS:          0  dtACCESS:          0  dtHIT:          0  dtMISS:          0
cpu0_STLB PREFETCH     ACCESS:          0  HIT:          0  MISS:          0  iACCESS:          0  iHIT:          0  iMISS:          0  dACCESS:          0  dHIT:          0  dMISS:          0  itACCESS:          0  itHIT:          0  itMISS:          0  dtACCESS:          0  dtHIT:          0  dtMISS:          0
cpu0_STLB WRITE        ACCESS:          0  HIT:          0  MISS:          0  iACCESS:          0  iHIT:          0  iMISS:          0  dACCESS:          0  dHIT:          0  dMISS:          0  itACCESS:          0  itHIT:          0  itMISS:          0  dtACCESS:          0  dtHIT:          0  dtMISS:          0
cpu0_STLB TRANSLATION  ACCESS:          0  HIT:          0  MISS:          0  iACCESS:          0  iHIT:          0  iMISS:          0  dACCESS:          0  dHIT:          0  dMISS:          0  itACCESS:          0  itHIT:          0  itMISS:          0  dtACCESS:          0  dtHIT:          0  dtMISS:          0
cpu0_STLB PREFETCH  REQUESTED:          0  ISSUED:          0  CROSSED:          0  USEFUL:          0  USELESS:          0
cpu0_STLB AVERAGE iMISS LATENCY: 51.6668 cycles
cpu0_STLB AVERAGE dMISS LATENCY: 191.959 cycles
cpu0_STLB AVERAGE itMISS LATENCY: 0 cycles
cpu0_STLB AVERAGE dtMISS LATENCY: 0 cycles
cpu0_STLB PAGE CROSSINGS (TLB HIT):         0 
cpu0_STLB PAGE CROSSINGS (TLB MISS):         0 
cpu0_STLB AVERAGE MISS LATENCY: 243.626 cycles
cpu0_L1D TOTAL       ACCESS:   44887729  HIT:   39246476  MISS:    5641253  iACCESS:          0  iHIT:          0  iMISS:          0  dACCESS:   44348501  dHIT:   39213771  dMISS:    5134730  itACCESS:     130098  itHIT:      15807  itMISS:     114291  dtACCESS:     409130  dtHIT:      16898  dtMISS:     392232
cpu0_L1D LOAD         ACCESS:   20221368  HIT:   17913282  MISS:    2308086  iACCESS:          0  iHIT:          0  iMISS:          0  dACCESS:   20221368  dHIT:   17913282  dMISS:    2308086  itACCESS:          0  itHIT:          0  itMISS:          0  dtACCESS:          0  dtHIT:          0  dtMISS:          0
cpu0_L1D RFO          ACCESS:          0  HIT:          0  MISS:          0  iACCESS:          0  iHIT:          0  iMISS:          0  dACCESS:          0  dHIT:          0  dMISS:          0  itACCESS:          0  itHIT:          0  itMISS:          0  dtACCESS:          0  dtHIT:          0  dtMISS:          0
cpu0_L1D PREFETCH     ACCESS:   13946343  HIT:   11680117  MISS:    2266226  iACCESS:          0  iHIT:          0  iMISS:          0  dACCESS:   13946343  dHIT:   11680117  dMISS:    2266226  itACCESS:          0  itHIT:          0  itMISS:          0  dtACCESS:          0  dtHIT:          0  dtMISS:          0
cpu0_L1D WRITE        ACCESS:   10180790  HIT:    9620372  MISS:     560418  iACCESS:          0  iHIT:          0  iMISS:          0  dACCESS:   10180790  dHIT:    9620372  dMISS:     560418  itACCESS:          0  itHIT:          0  itMISS:          0  dtACCESS:          0  dtHIT:          0  dtMISS:          0
cpu0_L1D TRANSLATION  ACCESS:     539228  HIT:      32705  MISS:     506523  iACCESS:          0  iHIT:          0  iMISS:          0  dACCESS:          0  dHIT:          0  dMISS:          0  itACCESS:     130098  itHIT:      15807  itMISS:     114291  dtACCESS:     409130  dtHIT:      16898  dtMISS:     392232
cpu0_L1D PREFETCH  REQUESTED:   20221368  ISSUED:   18397432  CROSSED:          0  USEFUL:     371618  USELESS:     911305
cpu0_L1D AVERAGE iMISS LATENCY: 0 cycles
cpu0_L1D AVERAGE dMISS LATENCY: 49.8314 cycles
cpu0_L1D AVERAGE itMISS LATENCY: 3.17924 cycles
cpu0_L1D AVERAGE dtMISS LATENCY: 11.728 cycles
cpu0_L1D PAGE CROSSINGS (TLB HIT):         0 
cpu0_L1D PAGE CROSSINGS (TLB MISS):         0 
cpu0_L1D AVERAGE MISS LATENCY: 64.7386 cycles
cpu0_L2C TOTAL       ACCESS:    8634892  HIT:    4153913  MISS:    4480979  iACCESS:    3815919  iHIT:    2297781  iMISS:    1518138  dACCESS:    4346211  dHIT:    1796582  dMISS:    2549629  itACCESS:     114119  itHIT:      21075  itMISS:      93044  dtACCESS:     358643  dtHIT:      38475  dtMISS:     320168
cpu0_L2C LOAD         ACCESS:    2059280  HIT:     994804  MISS:    1064476  iACCESS:     855092  iHIT:     535315  iMISS:     319777  dACCESS:    1204188  dHIT:     459489  dMISS:     744699  itACCESS:          0  itHIT:          0  itMISS:          0  dtACCESS:          0  dtHIT:          0  dtMISS:          0
cpu0_L2C RFO          ACCESS:     214222  HIT:      77957  MISS:     136265  iACCESS:          0  iHIT:          0  iMISS:          0  dACCESS:     214222  dHIT:      77957  dMISS:     136265  itACCESS:          0  itHIT:          0  itMISS:          0  dtACCESS:          0  dtHIT:          0  dtMISS:          0
cpu0_L2C PREFETCH     ACCESS:    5543974  HIT:    2686934  MISS:    2857040  iACCESS:    2960827  iHIT:    1762466  iMISS:    1198361  dACCESS:    2583147  dHIT:     924468  dMISS:    1658679  itACCESS:          0  itHIT:          0  itMISS:          0  dtACCESS:          0  dtHIT:          0  dtMISS:          0
cpu0_L2C WRITE        ACCESS:     344654  HIT:     334668  MISS:       9986  iACCESS:          0  iHIT:          0  iMISS:          0  dACCESS:     344654  dHIT:     334668  dMISS:       9986  itACCESS:          0  itHIT:          0  itMISS:          0  dtACCESS:          0  dtHIT:          0  dtMISS:          0
cpu0_L2C TRANSLATION  ACCESS:     472762  HIT:      59550  MISS:     413212  iACCESS:          0  iHIT:          0  iMISS:          0  dACCESS:          0  dHIT:          0  dMISS:          0  itACCESS:     114119  itHIT:      21075  itMISS:      93044  dtACCESS:     358643  dtHIT:      38475  dtMISS:     320168
cpu0_L2C PREFETCH  REQUESTED:    1543099  ISSUED:    1543090  CROSSED:          0  USEFUL:     361339  USELESS:     330853
cpu0_L2C AVERAGE iMISS LATENCY: 40.3178 cycles
cpu0_L2C AVERAGE dMISS LATENCY: 78.3748 cycles
cpu0_L2C AVERAGE itMISS LATENCY: 3.75173 cycles
cpu0_L2C AVERAGE dtMISS LATENCY: 13.9685 cycles
cpu0_L2C PAGE CROSSINGS (TLB HIT):         0 
cpu0_L2C PAGE CROSSINGS (TLB MISS):         0 
cpu0_L2C AVERAGE MISS LATENCY: 136.413 cycles
LLC TOTAL       ACCESS:    4464413  HIT:    1368289  MISS:    3096124  iACCESS:    1426402  iHIT:     454873  iMISS:     971529  dACCESS:    2624799  dHIT:     874033  dMISS:    1750766  itACCESS:      93044  itHIT:       9189  itMISS:      83855  dtACCESS:     320168  dtHIT:      30194  dtMISS:     289974
LLC LOAD         ACCESS:    1057289  HIT:     344671  MISS:     712618  iACCESS:     318608  iHIT:     110559  iMISS:     208049  dACCESS:     738681  dHIT:     234112  dMISS:     504569  itACCESS:          0  itHIT:          0  itMISS:          0  dtACCESS:          0  dtHIT:          0  dtMISS:          0
LLC RFO          ACCESS:     136261  HIT:      41730  MISS:      94531  iACCESS:          0  iHIT:          0  iMISS:          0  dACCESS:     136261  dHIT:      41730  dMISS:      94531  itACCESS:          0  itHIT:          0  itMISS:          0  dtACCESS:          0  dtHIT:          0  dtMISS:          0
LLC PREFETCH     ACCESS:    2639983  HIT:     735393  MISS:    1904590  iACCESS:    1107794  iHIT:     344314  iMISS:     763480  dACCESS:    1532189  dHIT:     391079  dMISS:    1141110  itACCESS:          0  itHIT:          0  itMISS:          0  dtACCESS:          0  dtHIT:          0  dtMISS:          0
LLC WRITE        ACCESS:     217668  HIT:     207112  MISS:      10556  iACCESS:          0  iHIT:          0  iMISS:          0  dACCESS:     217668  dHIT:     207112  dMISS:      10556  itACCESS:          0  itHIT:          0  itMISS:          0  dtACCESS:          0  dtHIT:          0  dtMISS:          0
LLC TRANSLATION  ACCESS:     413212  HIT:      39383  MISS:     373829  iACCESS:          0  iHIT:          0  iMISS:          0  dACCESS:          0  dHIT:          0  dMISS:          0  itACCESS:      93044  itHIT:       9189  itMISS:      83855  dtACCESS:     320168  dtHIT:      30194  dtMISS:     289974
LLC PREFETCH  REQUESTED:          0  ISSUED:          0  CROSSED:          0  USEFUL:          0  USELESS:          0
LLC AVERAGE iMISS LATENCY: 49.2784 cycles
LLC AVERAGE dMISS LATENCY: 98.9315 cycles
LLC AVERAGE itMISS LATENCY: 4.83443 cycles
LLC AVERAGE dtMISS LATENCY: 18.1711 cycles
LLC PAGE CROSSINGS (TLB HIT):         0 
LLC PAGE CROSSINGS (TLB MISS):         0 
LLC AVERAGE MISS LATENCY: 171.216 cycles

PageTableWalker TOTAL       ACCESS:     186638  
PageTableWalker AVERAGE LATENCY: 6.33152 cycles
PageTableWalker TOTAL LATENCY: 1181702 cycles

DRAM Statistics
Channel 0
 RQ ROW_BUFFER_HIT:     663233
  ROW_BUFFER_MISS:    2403992
 AVG DBUS CONGESTED CYCLE:    3.64997
 WQ ROW_BUFFER_HIT:      67909
  ROW_BUFFER_MISS:      56872  FULL:          0

