last_page:0x200000000000000
VMEM_RES_CAP:0x100000
PAGE_SIZE:4096
LOG2_PAGE_SIZE:12
LOG2_PAGE_TABLE_SIZE:9
page_table_levels:5
WARNING: physical memory size is smaller than virtual memory size
FDiP enabled with aggresivity 16

*** ChampSim Multicore Out-of-Order Simulator ***

Warmup Instructions: 50000000
Simulation Instructions: 100000000
Number of CPUs: 1
Small page size: 4096
Large page size: 2097152

CPU 0 Bimodal branch predictor
Basic BTB sets: 1024 ways: 8 indirect buffer size: 4096 RAS size: 64
Instruction page size distrubution: 0
Loading instruction page size distribution from /home/bsc/bsc018186/scratch/itp_asplos25_AE/dump/smt_srv540_ap_srv259_ap_1024i.pdst
Data page size distrubution: 0
Loading data page size distribution from /home/bsc/bsc018186/scratch/itp_asplos25_AE/dump/smt_srv540_ap_srv259_ap_1024i.pdst
cpu0_L2C IP-based stride prefetcher
cpu0_L1D next line prefetcher
cpu0_L1I next line prefetcher
Off-chip DRAM Size: 4 GiB Channels: 1 Width: 64-bit Data Rate: 3200 MT/s
Heartbeat CPU 0 instructions: 10000000 cycles: 2500276 heartbeat IPC: 3.99956 cumulative IPC: 3.99956 (Simulation time: 0 hr 0 min 40 sec) 
Heartbeat CPU 0 instructions: 20000002 cycles: 5000429 heartbeat IPC: 3.99976 cumulative IPC: 3.99966 (Simulation time: 0 hr 1 min 22 sec) 
Heartbeat CPU 0 instructions: 30000000 cycles: 7500854 heartbeat IPC: 3.99932 cumulative IPC: 3.99955 (Simulation time: 0 hr 2 min 4 sec) 
Heartbeat CPU 0 instructions: 40000003 cycles: 10000986 heartbeat IPC: 3.9998 cumulative IPC: 3.99961 (Simulation time: 0 hr 2 min 46 sec) 
Heartbeat CPU 0 instructions: 50000001 cycles: 12501362 heartbeat IPC: 3.9994 cumulative IPC: 3.99957 (Simulation time: 0 hr 3 min 29 sec) 
Warmup finished CPU 0 instructions: 50000001 cycles: 12501363 cumulative IPC: 3.99957 (Simulation time: 0 hr 3 min 29 sec) 

Warmup complete CPU 0 instructions: 50000001 cycles: 12501363 (Simulation time: 0 hr 3 min 29 sec) 

Heartbeat CPU 0 instructions: 60000000 cycles: 38163796 heartbeat IPC: 0.389675 cumulative IPC: 0.389675 (Simulation time: 0 hr 5 min 3 sec) 
Heartbeat CPU 0 instructions: 70000002 cycles: 63928081 heartbeat IPC: 0.388135 cumulative IPC: 0.388903 (Simulation time: 0 hr 6 min 38 sec) 
Heartbeat CPU 0 instructions: 80000002 cycles: 90416292 heartbeat IPC: 0.377527 cumulative IPC: 0.385036 (Simulation time: 0 hr 8 min 13 sec) 
Heartbeat CPU 0 instructions: 90000000 cycles: 116115412 heartbeat IPC: 0.389119 cumulative IPC: 0.386049 (Simulation time: 0 hr 9 min 48 sec) 
Heartbeat CPU 0 instructions: 100000001 cycles: 143436576 heartbeat IPC: 0.366017 cumulative IPC: 0.381869 (Simulation time: 0 hr 11 min 26 sec) 
Heartbeat CPU 0 instructions: 110000002 cycles: 169446976 heartbeat IPC: 0.384462 cumulative IPC: 0.382299 (Simulation time: 0 hr 13 min 1 sec) 
Heartbeat CPU 0 instructions: 120000001 cycles: 196196790 heartbeat IPC: 0.373835 cumulative IPC: 0.381066 (Simulation time: 0 hr 14 min 38 sec) 
Heartbeat CPU 0 instructions: 130000003 cycles: 222829446 heartbeat IPC: 0.375479 cumulative IPC: 0.380359 (Simulation time: 0 hr 16 min 13 sec) 
Heartbeat CPU 0 instructions: 140000002 cycles: 248100956 heartbeat IPC: 0.395703 cumulative IPC: 0.382005 (Simulation time: 0 hr 17 min 47 sec) 
Heartbeat CPU 0 instructions: 150000001 cycles: 272990414 heartbeat IPC: 0.401777 cumulative IPC: 0.383894 (Simulation time: 0 hr 19 min 21 sec) 
Simulation finished CPU 0 instructions: 100000000 cycles: 260489052 cumulative IPC: 0.383894 (Simulation time: 0 hr 19 min 21 sec) 

Simulation complete CPU 0 instructions: 100000000 cycles: 260489052 (Simulation time: 0 hr 19 min 21 sec) 


ChampSim completed all CPUs

Saving instructions large page distribution to /home/bsc/bsc018186/scratch/itp_asplos25_AE/dump/smt_srv540_ap_srv259_ap_1024i.pdst...
Saving data large page distribution to /home/bsc/bsc018186/scratch/itp_asplos25_AE/dump/smt_srv540_ap_srv259_ap_1024i.pdst...
=== Simulation ===
CPU 0 runs /gpfs/projects/bsc18/MN4/bsc18/romol/ChampSim/traces/qualcomm_srv/smt_srv540_ap_srv259_ap_1024i.champsimtrace.xz

Region of Interest Statistics

CPU 0 cumulative IPC: 0.383894 instructions: 100000000 cycles: 260489052
CPU 0 Branch Prediction Accuracy: 76.8629% MPKI: 41.689 Average ROB Occupancy at Mispredict: 11.2676
Branch type MPKI
BRANCH_DIRECT_JUMP: 1.25099
BRANCH_INDIRECT: 22.2396
BRANCH_CONDITIONAL: 11.5272
BRANCH_DIRECT_CALL: 2.33414
BRANCH_INDIRECT_CALL: 0.979531
BRANCH_RETURN: 3.35764

Instructions large pages: 0
Instructions small pages: 9359
Large page distribution for instructions: 0%

Data large pages: 0
Data small pages: 8207
Large page distribution for data: 0%

cpu0_L1I TOTAL       ACCESS:   38922588  HIT:   29762526  MISS:    9160062  iACCESS:   38922588  iHIT:   29762526  iMISS:    9160062  dACCESS:          0  dHIT:          0  dMISS:          0  itACCESS:          0  itHIT:          0  itMISS:          0  dtACCESS:          0  dtHIT:          0  dtMISS:          0
cpu0_L1I LOAD         ACCESS:   11642553  HIT:    9126810  MISS:    2515743  iACCESS:   11642553  iHIT:    9126810  iMISS:    2515743  dACCESS:          0  dHIT:          0  dMISS:          0  itACCESS:          0  itHIT:          0  itMISS:          0  dtACCESS:          0  dtHIT:          0  dtMISS:          0
cpu0_L1I RFO          ACCESS:          0  HIT:          0  MISS:          0  iACCESS:          0  iHIT:          0  iMISS:          0  dACCESS:          0  dHIT:          0  dMISS:          0  itACCESS:          0  itHIT:          0  itMISS:          0  dtACCESS:          0  dtHIT:          0  dtMISS:          0
cpu0_L1I PREFETCH     ACCESS:   27280035  HIT:   20635716  MISS:    6644319  iACCESS:   27280035  iHIT:   20635716  iMISS:    6644319  dACCESS:          0  dHIT:          0  dMISS:          0  itACCESS:          0  itHIT:          0  itMISS:          0  dtACCESS:          0  dtHIT:          0  dtMISS:          0
cpu0_L1I WRITE        ACCESS:          0  HIT:          0  MISS:          0  iACCESS:          0  iHIT:          0  iMISS:          0  dACCESS:          0  dHIT:          0  dMISS:          0  itACCESS:          0  itHIT:          0  itMISS:          0  dtACCESS:          0  dtHIT:          0  dtMISS:          0
cpu0_L1I TRANSLATION  ACCESS:          0  HIT:          0  MISS:          0  iACCESS:          0  iHIT:          0  iMISS:          0  dACCESS:          0  dHIT:          0  dMISS:          0  itACCESS:          0  itHIT:          0  itMISS:          0  dtACCESS:          0  dtHIT:          0  dtMISS:          0
cpu0_L1I PREFETCH  REQUESTED:   29920103  ISSUED:   29918647  CROSSED:          0  USEFUL:    2174788  USELESS:     750494
cpu0_L1I AVERAGE iMISS LATENCY: 21.6747 cycles
cpu0_L1I AVERAGE dMISS LATENCY: 0 cycles
cpu0_L1I AVERAGE itMISS LATENCY: 0 cycles
cpu0_L1I AVERAGE dtMISS LATENCY: 0 cycles
cpu0_L1I PAGE CROSSINGS (TLB HIT):         0 
cpu0_L1I PAGE CROSSINGS (TLB MISS):         0 
cpu0_L1I AVERAGE MISS LATENCY: 21.6747 cycles
cpu0_ITLB TOTAL       ACCESS:   32616651  HIT:   30387910  MISS:    2228741  iACCESS:   32616651  iHIT:   30387910  iMISS:    2228741  dACCESS:          0  dHIT:          0  dMISS:          0  itACCESS:          0  itHIT:          0  itMISS:          0  dtACCESS:          0  dtHIT:          0  dtMISS:          0
cpu0_ITLB LOAD         ACCESS:   32616651  HIT:   30387910  MISS:    2228741  iACCESS:   32616651  iHIT:   30387910  iMISS:    2228741  dACCESS:          0  dHIT:          0  dMISS:          0  itACCESS:          0  itHIT:          0  itMISS:          0  dtACCESS:          0  dtHIT:          0  dtMISS:          0
cpu0_ITLB RFO          ACCESS:          0  HIT:          0  MISS:          0  iACCESS:          0  iHIT:          0  iMISS:          0  dACCESS:          0  dHIT:          0  dMISS:          0  itACCESS:          0  itHIT:          0  itMISS:          0  dtACCESS:          0  dtHIT:          0  dtMISS:          0
cpu0_ITLB PREFETCH     ACCESS:          0  HIT:          0  MISS:          0  iACCESS:          0  iHIT:          0  iMISS:          0  dACCESS:          0  dHIT:          0  dMISS:          0  itACCESS:          0  itHIT:          0  itMISS:          0  dtACCESS:          0  dtHIT:          0  dtMISS:          0
cpu0_ITLB WRITE        ACCESS:          0  HIT:          0  MISS:          0  iACCESS:          0  iHIT:          0  iMISS:          0  dACCESS:          0  dHIT:          0  dMISS:          0  itACCESS:          0  itHIT:          0  itMISS:          0  dtACCESS:          0  dtHIT:          0  dtMISS:          0
cpu0_ITLB TRANSLATION  ACCESS:          0  HIT:          0  MISS:          0  iACCESS:          0  iHIT:          0  iMISS:          0  dACCESS:          0  dHIT:          0  dMISS:          0  itACCESS:          0  itHIT:          0  itMISS:          0  dtACCESS:          0  dtHIT:          0  dtMISS:          0
cpu0_ITLB PREFETCH  REQUESTED:          0  ISSUED:          0  CROSSED:          0  USEFUL:     379779  USELESS:      79909
cpu0_ITLB AVERAGE iMISS LATENCY: 7.34785 cycles
cpu0_ITLB AVERAGE dMISS LATENCY: 0 cycles
cpu0_ITLB AVERAGE itMISS LATENCY: 0 cycles
cpu0_ITLB AVERAGE dtMISS LATENCY: 0 cycles
cpu0_ITLB PAGE CROSSINGS (TLB HIT):         0 
cpu0_ITLB PAGE CROSSINGS (TLB MISS):         0 
cpu0_ITLB AVERAGE MISS LATENCY: 7.34785 cycles
cpu0_DTLB TOTAL       ACCESS:   28771689  HIT:   25102642  MISS:    3669047  iACCESS:          0  iHIT:          0  iMISS:          0  dACCESS:   28771689  dHIT:   25102642  dMISS:    3669047  itACCESS:          0  itHIT:          0  itMISS:          0  dtACCESS:          0  dtHIT:          0  dtMISS:          0
cpu0_DTLB LOAD         ACCESS:   28771689  HIT:   25102642  MISS:    3669047  iACCESS:          0  iHIT:          0  iMISS:          0  dACCESS:   28771689  dHIT:   25102642  dMISS:    3669047  itACCESS:          0  itHIT:          0  itMISS:          0  dtACCESS:          0  dtHIT:          0  dtMISS:          0
cpu0_DTLB RFO          ACCESS:          0  HIT:          0  MISS:          0  iACCESS:          0  iHIT:          0  iMISS:          0  dACCESS:          0  dHIT:          0  dMISS:          0  itACCESS:          0  itHIT:          0  itMISS:          0  dtACCESS:          0  dtHIT:          0  dtMISS:          0
cpu0_DTLB PREFETCH     ACCESS:          0  HIT:          0  MISS:          0  iACCESS:          0  iHIT:          0  iMISS:          0  dACCESS:          0  dHIT:          0  dMISS:          0  itACCESS:          0  itHIT:          0  itMISS:          0  dtACCESS:          0  dtHIT:          0  dtMISS:          0
cpu0_DTLB WRITE        ACCESS:          0  HIT:          0  MISS:          0  iACCESS:          0  iHIT:          0  iMISS:          0  dACCESS:          0  dHIT:          0  dMISS:          0  itACCESS:          0  itHIT:          0  itMISS:          0  dtACCESS:          0  dtHIT:          0  dtMISS:          0
cpu0_DTLB TRANSLATION  ACCESS:          0  HIT:          0  MISS:          0  iACCESS:          0  iHIT:          0  iMISS:          0  dACCESS:          0  dHIT:          0  dMISS:          0  itACCESS:          0  itHIT:          0  itMISS:          0  dtACCESS:          0  dtHIT:          0  dtMISS:          0
cpu0_DTLB PREFETCH  REQUESTED:          0  ISSUED:          0  CROSSED:          0  USEFUL:          0  USELESS:          0
cpu0_DTLB AVERAGE iMISS LATENCY: 0 cycles
cpu0_DTLB AVERAGE dMISS LATENCY: 16.7542 cycles
cpu0_DTLB AVERAGE itMISS LATENCY: 0 cycles
cpu0_DTLB AVERAGE dtMISS LATENCY: 0 cycles
cpu0_DTLB PAGE CROSSINGS (TLB HIT):         0 
cpu0_DTLB PAGE CROSSINGS (TLB MISS):         0 
cpu0_DTLB AVERAGE MISS LATENCY: 16.7542 cycles
cpu0_STLB TOTAL       ACCESS:    2581241  HIT:    2213423  MISS:     367818  iACCESS:     459691  iHIT:     355054  iMISS:     104637  dACCESS:    2121550  dHIT:    1858369  dMISS:     263181  itACCESS:          0  itHIT:          0  itMISS:          0  dtACCESS:          0  dtHIT:          0  dtMISS:          0
cpu0_STLB LOAD         ACCESS:    2581241  HIT:    2213423  MISS:     367818  iACCESS:     459691  iHIT:     355054  iMISS:     104637  dACCESS:    2121550  dHIT:    1858369  dMISS:     263181  itACCESS:          0  itHIT:          0  itMISS:          0  dtACCESS:          0  dtHIT:          0  dtMISS:          0
cpu0_STLB RFO          ACCESS:          0  HIT:          0  MISS:          0  iACCESS:          0  iHIT:          0  iMISS:          0  dACCESS:          0  dHIT:          0  dMISS:          0  itACCESS:          0  itHIT:          0  itMISS:          0  dtACCESS:          0  dtHIT:          0  dtMISS:          0
cpu0_STLB PREFETCH     ACCESS:          0  HIT:          0  MISS:          0  iACCESS:          0  iHIT:          0  iMISS:          0  dACCESS:          0  dHIT:          0  dMISS:          0  itACCESS:          0  itHIT:          0  itMISS:          0  dtACCESS:          0  dtHIT:          0  dtMISS:          0
cpu0_STLB WRITE        ACCESS:          0  HIT:          0  MISS:          0  iACCESS:          0  iHIT:          0  iMISS:          0  dACCESS:          0  dHIT:          0  dMISS:          0  itACCESS:          0  itHIT:          0  itMISS:          0  dtACCESS:          0  dtHIT:          0  dtMISS:          0
cpu0_STLB TRANSLATION  ACCESS:          0  HIT:          0  MISS:          0  iACCESS:          0  iHIT:          0  iMISS:          0  dACCESS:          0  dHIT:          0  dMISS:          0  itACCESS:          0  itHIT:          0  itMISS:          0  dtACCESS:          0  dtHIT:          0  dtMISS:          0
cpu0_STLB PREFETCH  REQUESTED:          0  ISSUED:          0  CROSSED:          0  USEFUL:          0  USELESS:          0
cpu0_STLB AVERAGE iMISS LATENCY: 34.5603 cycles
cpu0_STLB AVERAGE dMISS LATENCY: 120.751 cycles
cpu0_STLB AVERAGE itMISS LATENCY: 0 cycles
cpu0_STLB AVERAGE dtMISS LATENCY: 0 cycles
cpu0_STLB PAGE CROSSINGS (TLB HIT):         0 
cpu0_STLB PAGE CROSSINGS (TLB MISS):         0 
cpu0_STLB AVERAGE MISS LATENCY: 155.311 cycles
cpu0_L1D TOTAL       ACCESS:   44632742  HIT:   38895584  MISS:    5737158  iACCESS:          0  iHIT:          0  iMISS:          0  dACCESS:   44096033  dHIT:   38864267  dMISS:    5231766  itACCESS:     117965  itHIT:      11871  itMISS:     106094  dtACCESS:     418744  dtHIT:      19446  dtMISS:     399298
cpu0_L1D LOAD         ACCESS:   20186745  HIT:   17835312  MISS:    2351433  iACCESS:          0  iHIT:          0  iMISS:          0  dACCESS:   20186745  dHIT:   17835312  dMISS:    2351433  itACCESS:          0  itHIT:          0  itMISS:          0  dtACCESS:          0  dtHIT:          0  dtMISS:          0
cpu0_L1D RFO          ACCESS:          0  HIT:          0  MISS:          0  iACCESS:          0  iHIT:          0  iMISS:          0  dACCESS:          0  dHIT:          0  dMISS:          0  itACCESS:          0  itHIT:          0  itMISS:          0  dtACCESS:          0  dtHIT:          0  dtMISS:          0
cpu0_L1D PREFETCH     ACCESS:   13791810  HIT:   11486764  MISS:    2305046  iACCESS:          0  iHIT:          0  iMISS:          0  dACCESS:   13791810  dHIT:   11486764  dMISS:    2305046  itACCESS:          0  itHIT:          0  itMISS:          0  dtACCESS:          0  dtHIT:          0  dtMISS:          0
cpu0_L1D WRITE        ACCESS:   10117478  HIT:    9542191  MISS:     575287  iACCESS:          0  iHIT:          0  iMISS:          0  dACCESS:   10117478  dHIT:    9542191  dMISS:     575287  itACCESS:          0  itHIT:          0  itMISS:          0  dtACCESS:          0  dtHIT:          0  dtMISS:          0
cpu0_L1D TRANSLATION  ACCESS:     536709  HIT:      31317  MISS:     505392  iACCESS:          0  iHIT:          0  iMISS:          0  dACCESS:          0  dHIT:          0  dMISS:          0  itACCESS:     117965  itHIT:      11871  itMISS:     106094  dtACCESS:     418744  dtHIT:      19446  dtMISS:     399298
cpu0_L1D PREFETCH  REQUESTED:   20186745  ISSUED:   18332542  CROSSED:          0  USEFUL:     355009  USELESS:     919160
cpu0_L1D AVERAGE iMISS LATENCY: 0 cycles
cpu0_L1D AVERAGE dMISS LATENCY: 50.0656 cycles
cpu0_L1D AVERAGE itMISS LATENCY: 2.04497 cycles
cpu0_L1D AVERAGE dtMISS LATENCY: 6.97181 cycles
cpu0_L1D PAGE CROSSINGS (TLB HIT):         0 
cpu0_L1D PAGE CROSSINGS (TLB MISS):         0 
cpu0_L1D AVERAGE MISS LATENCY: 59.0823 cycles
cpu0_L2C TOTAL       ACCESS:    8489651  HIT:    1549678  MISS:    6939973  iACCESS:    3732619  iHIT:     816298  iMISS:    2916321  dACCESS:    4276951  dHIT:     539973  dMISS:    3736978  itACCESS:     106010  itHIT:      38689  itMISS:      67321  dtACCESS:     374071  dtHIT:     154718  dtMISS:     219353
cpu0_L2C LOAD         ACCESS:    2034532  HIT:     210299  MISS:    1824233  iACCESS:     843660  iHIT:     115866  iMISS:     727794  dACCESS:    1190872  dHIT:      94433  dMISS:    1096439  itACCESS:          0  itHIT:          0  itMISS:          0  dtACCESS:          0  dtHIT:          0  dtMISS:          0
cpu0_L2C RFO          ACCESS:     218235  HIT:      28692  MISS:     189543  iACCESS:          0  iHIT:          0  iMISS:          0  dACCESS:     218235  dHIT:      28692  dMISS:     189543  itACCESS:          0  itHIT:          0  itMISS:          0  dtACCESS:          0  dtHIT:          0  dtMISS:          0
cpu0_L2C PREFETCH     ACCESS:    5415547  HIT:    1017350  MISS:    4398197  iACCESS:    2888959  iHIT:     700432  iMISS:    2188527  dACCESS:    2526588  dHIT:     316918  dMISS:    2209670  itACCESS:          0  itHIT:          0  itMISS:          0  dtACCESS:          0  dtHIT:          0  dtMISS:          0
cpu0_L2C WRITE        ACCESS:     341256  HIT:      99930  MISS:     241326  iACCESS:          0  iHIT:          0  iMISS:          0  dACCESS:     341256  dHIT:      99930  dMISS:     241326  itACCESS:          0  itHIT:          0  itMISS:          0  dtACCESS:          0  dtHIT:          0  dtMISS:          0
cpu0_L2C TRANSLATION  ACCESS:     480081  HIT:     193407  MISS:     286674  iACCESS:          0  iHIT:          0  iMISS:          0  dACCESS:          0  dHIT:          0  dMISS:          0  itACCESS:     106010  itHIT:      38689  itMISS:      67321  dtACCESS:     374071  dtHIT:     154718  dtMISS:     219353
cpu0_L2C PREFETCH  REQUESTED:    1514498  ISSUED:    1514496  CROSSED:          0  USEFUL:     416611  USELESS:     465037
cpu0_L2C AVERAGE iMISS LATENCY: 23.8267 cycles
cpu0_L2C AVERAGE dMISS LATENCY: 49.34 cycles
cpu0_L2C AVERAGE itMISS LATENCY: 1.54298 cycles
cpu0_L2C AVERAGE dtMISS LATENCY: 5.24427 cycles
cpu0_L2C PAGE CROSSINGS (TLB HIT):         0 
cpu0_L2C PAGE CROSSINGS (TLB MISS):         0 
cpu0_L2C AVERAGE MISS LATENCY: 79.9539 cycles
LLC TOTAL       ACCESS:    6776793  HIT:    4311603  MISS:    2465190  iACCESS:    2835293  iHIT:    2134305  iMISS:     700988  dACCESS:    3654826  dHIT:    2111021  dMISS:    1543805  itACCESS:      67321  itHIT:      14488  itMISS:      52833  dtACCESS:     219353  dtHIT:      51789  dtMISS:     167564
LLC LOAD         ACCESS:    1816453  HIT:    1199336  MISS:     617117  iACCESS:     726337  iHIT:     578824  iMISS:     147513  dACCESS:    1090116  dHIT:     620512  dMISS:     469604  itACCESS:          0  itHIT:          0  itMISS:          0  dtACCESS:          0  dtHIT:          0  dtMISS:          0
LLC RFO          ACCESS:     189503  HIT:      97769  MISS:      91734  iACCESS:          0  iHIT:          0  iMISS:          0  dACCESS:     189503  dHIT:      97769  dMISS:      91734  itACCESS:          0  itHIT:          0  itMISS:          0  dtACCESS:          0  dtHIT:          0  dtMISS:          0
LLC PREFETCH     ACCESS:    4212168  HIT:    2682521  MISS:    1529647  iACCESS:    2108956  iHIT:    1555481  iMISS:     553475  dACCESS:    2103212  dHIT:    1127040  dMISS:     976172  itACCESS:          0  itHIT:          0  itMISS:          0  dtACCESS:          0  dtHIT:          0  dtMISS:          0
LLC WRITE        ACCESS:     271995  HIT:     265700  MISS:       6295  iACCESS:          0  iHIT:          0  iMISS:          0  dACCESS:     271995  dHIT:     265700  dMISS:       6295  itACCESS:          0  itHIT:          0  itMISS:          0  dtACCESS:          0  dtHIT:          0  dtMISS:          0
LLC TRANSLATION  ACCESS:     286674  HIT:      66277  MISS:     220397  iACCESS:          0  iHIT:          0  iMISS:          0  dACCESS:          0  dHIT:          0  dMISS:          0  itACCESS:      67321  itHIT:      14488  itMISS:      52833  dtACCESS:     219353  dtHIT:      51789  dtMISS:     167564
LLC PREFETCH  REQUESTED:          0  ISSUED:          0  CROSSED:          0  USEFUL:          0  USELESS:          0
LLC AVERAGE iMISS LATENCY: 44.778 cycles
LLC AVERAGE dMISS LATENCY: 113.347 cycles
LLC AVERAGE itMISS LATENCY: 3.80517 cycles
LLC AVERAGE dtMISS LATENCY: 13.0111 cycles
LLC PAGE CROSSINGS (TLB HIT):         0 
LLC PAGE CROSSINGS (TLB MISS):         0 
LLC AVERAGE MISS LATENCY: 174.941 cycles

PageTableWalker TOTAL       ACCESS:     187266  
PageTableWalker AVERAGE LATENCY: 5.7368 cycles
PageTableWalker TOTAL LATENCY: 1074306 cycles

DRAM Statistics
Channel 0
 RQ ROW_BUFFER_HIT:     516168
  ROW_BUFFER_MISS:    1922630
 AVG DBUS CONGESTED CYCLE:    3.65464
 WQ ROW_BUFFER_HIT:      63574
  ROW_BUFFER_MISS:      61892  FULL:          0

