last_page:0x200000000000000
VMEM_RES_CAP:0x100000
PAGE_SIZE:4096
LOG2_PAGE_SIZE:12
LOG2_PAGE_TABLE_SIZE:9
page_table_levels:5
WARNING: physical memory size is smaller than virtual memory size
FDiP enabled with aggresivity 16

*** ChampSim Multicore Out-of-Order Simulator ***

Warmup Instructions: 50000000
Simulation Instructions: 100000000
Number of CPUs: 1
Small page size: 4096
Large page size: 2097152

CPU 0 Bimodal branch predictor
Basic BTB sets: 1024 ways: 8 indirect buffer size: 4096 RAS size: 64
Instruction page size distrubution: 0
Loading instruction page size distribution from /home/bsc/bsc018186/scratch/itp_asplos25_AE/dump/smt_srv207_ap_srv442_ap_1024i.pdst
Data page size distrubution: 0
Loading data page size distribution from /home/bsc/bsc018186/scratch/itp_asplos25_AE/dump/smt_srv207_ap_srv442_ap_1024i.pdst
cpu0_L2C IP-based stride prefetcher
cpu0_L2C is using PTP replacement policy:
	TLB_STRESS_THRESHOLD:0
	PTE_EVICTION_RATIO:0
cpu0_L1D next line prefetcher
cpu0_STLB using iTP with max lru@8
cpu0_STLB using iTP with instr@0 and data@2
Init sat counter with 3 bits (max:50).
cpu0_L1I next line prefetcher
Off-chip DRAM Size: 4 GiB Channels: 1 Width: 64-bit Data Rate: 3200 MT/s
Heartbeat CPU 0 instructions: 10000002 cycles: 2500439 heartbeat IPC: 3.9993 cumulative IPC: 3.9993 (Simulation time: 0 hr 0 min 37 sec) 
Heartbeat CPU 0 instructions: 20000001 cycles: 5000591 heartbeat IPC: 3.99976 cumulative IPC: 3.99953 (Simulation time: 0 hr 1 min 17 sec) 
Heartbeat CPU 0 instructions: 30000002 cycles: 7500652 heartbeat IPC: 3.99991 cumulative IPC: 3.99966 (Simulation time: 0 hr 1 min 57 sec) 
Heartbeat CPU 0 instructions: 40000001 cycles: 10000877 heartbeat IPC: 3.99964 cumulative IPC: 3.99965 (Simulation time: 0 hr 2 min 38 sec) 
Heartbeat CPU 0 instructions: 50000003 cycles: 12501043 heartbeat IPC: 3.99974 cumulative IPC: 3.99967 (Simulation time: 0 hr 3 min 19 sec) 
Warmup finished CPU 0 instructions: 50000003 cycles: 12501044 cumulative IPC: 3.99967 (Simulation time: 0 hr 3 min 19 sec) 

Warmup complete CPU 0 instructions: 50000003 cycles: 12501044 (Simulation time: 0 hr 3 min 19 sec) 

Heartbeat CPU 0 instructions: 60000000 cycles: 42672820 heartbeat IPC: 0.331436 cumulative IPC: 0.331436 (Simulation time: 0 hr 4 min 41 sec) 
Heartbeat CPU 0 instructions: 70000004 cycles: 71593566 heartbeat IPC: 0.345773 cumulative IPC: 0.338453 (Simulation time: 0 hr 6 min 1 sec) 
Heartbeat CPU 0 instructions: 80000000 cycles: 102008460 heartbeat IPC: 0.328787 cumulative IPC: 0.335168 (Simulation time: 0 hr 7 min 24 sec) 
Heartbeat CPU 0 instructions: 90000003 cycles: 132288493 heartbeat IPC: 0.330251 cumulative IPC: 0.333925 (Simulation time: 0 hr 8 min 46 sec) 
Heartbeat CPU 0 instructions: 100000000 cycles: 162275359 heartbeat IPC: 0.33348 cumulative IPC: 0.333836 (Simulation time: 0 hr 10 min 8 sec) 
Heartbeat CPU 0 instructions: 110000003 cycles: 192730230 heartbeat IPC: 0.328355 cumulative IPC: 0.33291 (Simulation time: 0 hr 11 min 30 sec) 
Heartbeat CPU 0 instructions: 120000002 cycles: 222222611 heartbeat IPC: 0.339071 cumulative IPC: 0.333776 (Simulation time: 0 hr 12 min 51 sec) 
Heartbeat CPU 0 instructions: 130000001 cycles: 251537492 heartbeat IPC: 0.341124 cumulative IPC: 0.334677 (Simulation time: 0 hr 14 min 12 sec) 
Heartbeat CPU 0 instructions: 140000002 cycles: 280927870 heartbeat IPC: 0.340248 cumulative IPC: 0.335287 (Simulation time: 0 hr 15 min 34 sec) 
Heartbeat CPU 0 instructions: 150000000 cycles: 310273984 heartbeat IPC: 0.340761 cumulative IPC: 0.335827 (Simulation time: 0 hr 16 min 55 sec) 
Simulation finished CPU 0 instructions: 100000002 cycles: 297772942 cumulative IPC: 0.335827 (Simulation time: 0 hr 16 min 55 sec) 

Simulation complete CPU 0 instructions: 100000002 cycles: 297772942 (Simulation time: 0 hr 16 min 55 sec) 


ChampSim completed all CPUs

Saving instructions large page distribution to /home/bsc/bsc018186/scratch/itp_asplos25_AE/dump/smt_srv207_ap_srv442_ap_1024i.pdst...
Saving data large page distribution to /home/bsc/bsc018186/scratch/itp_asplos25_AE/dump/smt_srv207_ap_srv442_ap_1024i.pdst...
=== Simulation ===
CPU 0 runs /gpfs/projects/bsc18/MN4/bsc18/romol/ChampSim/traces/qualcomm_srv/smt_srv207_ap_srv442_ap_1024i.champsimtrace.xz

Region of Interest Statistics

CPU 0 cumulative IPC: 0.335827 instructions: 100000002 cycles: 297772942
CPU 0 Branch Prediction Accuracy: 75.6611% MPKI: 43.8453 Average ROB Occupancy at Mispredict: 11.4346
Branch type MPKI
BRANCH_DIRECT_JUMP: 1.36284
BRANCH_INDIRECT: 23.7831
BRANCH_CONDITIONAL: 11.7096
BRANCH_DIRECT_CALL: 2.49862
BRANCH_INDIRECT_CALL: 1.01578
BRANCH_RETURN: 3.47536

Instructions large pages: 0
Instructions small pages: 11573
Large page distribution for instructions: 0%

Data large pages: 0
Data small pages: 10267
Large page distribution for data: 0%

cpu0_L1I TOTAL       ACCESS:   38818518  HIT:   29915992  MISS:    8902526  iACCESS:   38818518  iHIT:   29915992  iMISS:    8902526  dACCESS:          0  dHIT:          0  dMISS:          0  itACCESS:          0  itHIT:          0  itMISS:          0  dtACCESS:          0  dtHIT:          0  dtMISS:          0
cpu0_L1I LOAD         ACCESS:   11526584  HIT:    9072386  MISS:    2454198  iACCESS:   11526584  iHIT:    9072386  iMISS:    2454198  dACCESS:          0  dHIT:          0  dMISS:          0  itACCESS:          0  itHIT:          0  itMISS:          0  dtACCESS:          0  dtHIT:          0  dtMISS:          0
cpu0_L1I RFO          ACCESS:          0  HIT:          0  MISS:          0  iACCESS:          0  iHIT:          0  iMISS:          0  dACCESS:          0  dHIT:          0  dMISS:          0  itACCESS:          0  itHIT:          0  itMISS:          0  dtACCESS:          0  dtHIT:          0  dtMISS:          0
cpu0_L1I PREFETCH     ACCESS:   27291934  HIT:   20843606  MISS:    6448328  iACCESS:   27291934  iHIT:   20843606  iMISS:    6448328  dACCESS:          0  dHIT:          0  dMISS:          0  itACCESS:          0  itHIT:          0  itMISS:          0  dtACCESS:          0  dtHIT:          0  dtMISS:          0
cpu0_L1I WRITE        ACCESS:          0  HIT:          0  MISS:          0  iACCESS:          0  iHIT:          0  iMISS:          0  dACCESS:          0  dHIT:          0  dMISS:          0  itACCESS:          0  itHIT:          0  itMISS:          0  dtACCESS:          0  dtHIT:          0  dtMISS:          0
cpu0_L1I TRANSLATION  ACCESS:          0  HIT:          0  MISS:          0  iACCESS:          0  iHIT:          0  iMISS:          0  dACCESS:          0  dHIT:          0  dMISS:          0  itACCESS:          0  itHIT:          0  itMISS:          0  dtACCESS:          0  dtHIT:          0  dtMISS:          0
cpu0_L1I PREFETCH  REQUESTED:   30051550  ISSUED:   30051549  CROSSED:          0  USEFUL:    2225000  USELESS:     805255
cpu0_L1I AVERAGE iMISS LATENCY: 22.577 cycles
cpu0_L1I AVERAGE dMISS LATENCY: 0 cycles
cpu0_L1I AVERAGE itMISS LATENCY: 0 cycles
cpu0_L1I AVERAGE dtMISS LATENCY: 0 cycles
cpu0_L1I PAGE CROSSINGS (TLB HIT):         0 
cpu0_L1I PAGE CROSSINGS (TLB MISS):         0 
cpu0_L1I AVERAGE MISS LATENCY: 22.577 cycles
cpu0_ITLB TOTAL       ACCESS:   32896178  HIT:   30564736  MISS:    2331442  iACCESS:   32896178  iHIT:   30564736  iMISS:    2331442  dACCESS:          0  dHIT:          0  dMISS:          0  itACCESS:          0  itHIT:          0  itMISS:          0  dtACCESS:          0  dtHIT:          0  dtMISS:          0
cpu0_ITLB LOAD         ACCESS:   32896178  HIT:   30564736  MISS:    2331442  iACCESS:   32896178  iHIT:   30564736  iMISS:    2331442  dACCESS:          0  dHIT:          0  dMISS:          0  itACCESS:          0  itHIT:          0  itMISS:          0  dtACCESS:          0  dtHIT:          0  dtMISS:          0
cpu0_ITLB RFO          ACCESS:          0  HIT:          0  MISS:          0  iACCESS:          0  iHIT:          0  iMISS:          0  dACCESS:          0  dHIT:          0  dMISS:          0  itACCESS:          0  itHIT:          0  itMISS:          0  dtACCESS:          0  dtHIT:          0  dtMISS:          0
cpu0_ITLB PREFETCH     ACCESS:          0  HIT:          0  MISS:          0  iACCESS:          0  iHIT:          0  iMISS:          0  dACCESS:          0  dHIT:          0  dMISS:          0  itACCESS:          0  itHIT:          0  itMISS:          0  dtACCESS:          0  dtHIT:          0  dtMISS:          0
cpu0_ITLB WRITE        ACCESS:          0  HIT:          0  MISS:          0  iACCESS:          0  iHIT:          0  iMISS:          0  dACCESS:          0  dHIT:          0  dMISS:          0  itACCESS:          0  itHIT:          0  itMISS:          0  dtACCESS:          0  dtHIT:          0  dtMISS:          0
cpu0_ITLB TRANSLATION  ACCESS:          0  HIT:          0  MISS:          0  iACCESS:          0  iHIT:          0  iMISS:          0  dACCESS:          0  dHIT:          0  dMISS:          0  itACCESS:          0  itHIT:          0  itMISS:          0  dtACCESS:          0  dtHIT:          0  dtMISS:          0
cpu0_ITLB PREFETCH  REQUESTED:          0  ISSUED:          0  CROSSED:          0  USEFUL:     400507  USELESS:      86838
cpu0_ITLB AVERAGE iMISS LATENCY: 5.8608 cycles
cpu0_ITLB AVERAGE dMISS LATENCY: 0 cycles
cpu0_ITLB AVERAGE itMISS LATENCY: 0 cycles
cpu0_ITLB AVERAGE dtMISS LATENCY: 0 cycles
cpu0_ITLB PAGE CROSSINGS (TLB HIT):         0 
cpu0_ITLB PAGE CROSSINGS (TLB MISS):         0 
cpu0_ITLB AVERAGE MISS LATENCY: 5.8608 cycles
cpu0_DTLB TOTAL       ACCESS:   29178455  HIT:   25572764  MISS:    3605691  iACCESS:          0  iHIT:          0  iMISS:          0  dACCESS:   29178455  dHIT:   25572764  dMISS:    3605691  itACCESS:          0  itHIT:          0  itMISS:          0  dtACCESS:          0  dtHIT:          0  dtMISS:          0
cpu0_DTLB LOAD         ACCESS:   29178455  HIT:   25572764  MISS:    3605691  iACCESS:          0  iHIT:          0  iMISS:          0  dACCESS:   29178455  dHIT:   25572764  dMISS:    3605691  itACCESS:          0  itHIT:          0  itMISS:          0  dtACCESS:          0  dtHIT:          0  dtMISS:          0
cpu0_DTLB RFO          ACCESS:          0  HIT:          0  MISS:          0  iACCESS:          0  iHIT:          0  iMISS:          0  dACCESS:          0  dHIT:          0  dMISS:          0  itACCESS:          0  itHIT:          0  itMISS:          0  dtACCESS:          0  dtHIT:          0  dtMISS:          0
cpu0_DTLB PREFETCH     ACCESS:          0  HIT:          0  MISS:          0  iACCESS:          0  iHIT:          0  iMISS:          0  dACCESS:          0  dHIT:          0  dMISS:          0  itACCESS:          0  itHIT:          0  itMISS:          0  dtACCESS:          0  dtHIT:          0  dtMISS:          0
cpu0_DTLB WRITE        ACCESS:          0  HIT:          0  MISS:          0  iACCESS:          0  iHIT:          0  iMISS:          0  dACCESS:          0  dHIT:          0  dMISS:          0  itACCESS:          0  itHIT:          0  itMISS:          0  dtACCESS:          0  dtHIT:          0  dtMISS:          0
cpu0_DTLB TRANSLATION  ACCESS:          0  HIT:          0  MISS:          0  iACCESS:          0  iHIT:          0  iMISS:          0  dACCESS:          0  dHIT:          0  dMISS:          0  itACCESS:          0  itHIT:          0  itMISS:          0  dtACCESS:          0  dtHIT:          0  dtMISS:          0
cpu0_DTLB PREFETCH  REQUESTED:          0  ISSUED:          0  CROSSED:          0  USEFUL:          0  USELESS:          0
cpu0_DTLB AVERAGE iMISS LATENCY: 0 cycles
cpu0_DTLB AVERAGE dMISS LATENCY: 28.8306 cycles
cpu0_DTLB AVERAGE itMISS LATENCY: 0 cycles
cpu0_DTLB AVERAGE dtMISS LATENCY: 0 cycles
cpu0_DTLB PAGE CROSSINGS (TLB HIT):         0 
cpu0_DTLB PAGE CROSSINGS (TLB MISS):         0 
cpu0_DTLB AVERAGE MISS LATENCY: 28.8306 cycles
cpu0_STLB TOTAL       ACCESS:    2589330  HIT:    2214696  MISS:     374634  iACCESS:     487342  iHIT:     438019  iMISS:      49323  dACCESS:    2101988  dHIT:    1776677  dMISS:     325311  itACCESS:          0  itHIT:          0  itMISS:          0  dtACCESS:          0  dtHIT:          0  dtMISS:          0
cpu0_STLB LOAD         ACCESS:    2589330  HIT:    2214696  MISS:     374634  iACCESS:     487342  iHIT:     438019  iMISS:      49323  dACCESS:    2101988  dHIT:    1776677  dMISS:     325311  itACCESS:          0  itHIT:          0  itMISS:          0  dtACCESS:          0  dtHIT:          0  dtMISS:          0
cpu0_STLB RFO          ACCESS:          0  HIT:          0  MISS:          0  iACCESS:          0  iHIT:          0  iMISS:          0  dACCESS:          0  dHIT:          0  dMISS:          0  itACCESS:          0  itHIT:          0  itMISS:          0  dtACCESS:          0  dtHIT:          0  dtMISS:          0
cpu0_STLB PREFETCH     ACCESS:          0  HIT:          0  MISS:          0  iACCESS:          0  iHIT:          0  iMISS:          0  dACCESS:          0  dHIT:          0  dMISS:          0  itACCESS:          0  itHIT:          0  itMISS:          0  dtACCESS:          0  dtHIT:          0  dtMISS:          0
cpu0_STLB WRITE        ACCESS:          0  HIT:          0  MISS:          0  iACCESS:          0  iHIT:          0  iMISS:          0  dACCESS:          0  dHIT:          0  dMISS:          0  itACCESS:          0  itHIT:          0  itMISS:          0  dtACCESS:          0  dtHIT:          0  dtMISS:          0
cpu0_STLB TRANSLATION  ACCESS:          0  HIT:          0  MISS:          0  iACCESS:          0  iHIT:          0  iMISS:          0  dACCESS:          0  dHIT:          0  dMISS:          0  itACCESS:          0  itHIT:          0  itMISS:          0  dtACCESS:          0  dtHIT:          0  dtMISS:          0
cpu0_STLB PREFETCH  REQUESTED:          0  ISSUED:          0  CROSSED:          0  USEFUL:          0  USELESS:          0
cpu0_STLB AVERAGE iMISS LATENCY: 26.2741 cycles
cpu0_STLB AVERAGE dMISS LATENCY: 232.169 cycles
cpu0_STLB AVERAGE itMISS LATENCY: 0 cycles
cpu0_STLB AVERAGE dtMISS LATENCY: 0 cycles
cpu0_STLB PAGE CROSSINGS (TLB HIT):         0 
cpu0_STLB PAGE CROSSINGS (TLB MISS):         0 
cpu0_STLB AVERAGE MISS LATENCY: 258.443 cycles
cpu0_L1D TOTAL       ACCESS:   45957761  HIT:   39523924  MISS:    6433837  iACCESS:          0  iHIT:          0  iMISS:          0  dACCESS:   45366499  dHIT:   39496035  dMISS:    5870464  itACCESS:      59887  itHIT:       3919  itMISS:      55968  dtACCESS:     531375  dtHIT:      23970  dtMISS:     507405
cpu0_L1D LOAD         ACCESS:   20786405  HIT:   18125220  MISS:    2661185  iACCESS:          0  iHIT:          0  iMISS:          0  dACCESS:   20786405  dHIT:   18125220  dMISS:    2661185  itACCESS:          0  itHIT:          0  itMISS:          0  dtACCESS:          0  dtHIT:          0  dtMISS:          0
cpu0_L1D RFO          ACCESS:          0  HIT:          0  MISS:          0  iACCESS:          0  iHIT:          0  iMISS:          0  dACCESS:          0  dHIT:          0  dMISS:          0  itACCESS:          0  itHIT:          0  itMISS:          0  dtACCESS:          0  dtHIT:          0  dtMISS:          0
cpu0_L1D PREFETCH     ACCESS:   14459243  HIT:   11855522  MISS:    2603721  iACCESS:          0  iHIT:          0  iMISS:          0  dACCESS:   14459243  dHIT:   11855522  dMISS:    2603721  itACCESS:          0  itHIT:          0  itMISS:          0  dtACCESS:          0  dtHIT:          0  dtMISS:          0
cpu0_L1D WRITE        ACCESS:   10120851  HIT:    9515293  MISS:     605558  iACCESS:          0  iHIT:          0  iMISS:          0  dACCESS:   10120851  dHIT:    9515293  dMISS:     605558  itACCESS:          0  itHIT:          0  itMISS:          0  dtACCESS:          0  dtHIT:          0  dtMISS:          0
cpu0_L1D TRANSLATION  ACCESS:     591262  HIT:      27889  MISS:     563373  iACCESS:          0  iHIT:          0  iMISS:          0  dACCESS:          0  dHIT:          0  dMISS:          0  itACCESS:      59887  itHIT:       3919  itMISS:      55968  dtACCESS:     531375  dtHIT:      23970  dtMISS:     507405
cpu0_L1D PREFETCH  REQUESTED:   20786405  ISSUED:   18870693  CROSSED:          0  USEFUL:     378627  USELESS:     969414
cpu0_L1D AVERAGE iMISS LATENCY: 0 cycles
cpu0_L1D AVERAGE dMISS LATENCY: 47.6445 cycles
cpu0_L1D AVERAGE itMISS LATENCY: 1.44642 cycles
cpu0_L1D AVERAGE dtMISS LATENCY: 12.6897 cycles
cpu0_L1D PAGE CROSSINGS (TLB HIT):         0 
cpu0_L1D PAGE CROSSINGS (TLB MISS):         0 
cpu0_L1D AVERAGE MISS LATENCY: 61.7805 cycles
cpu0_L2C TOTAL       ACCESS:    8860038  HIT:    4351587  MISS:    4508451  iACCESS:    3880260  iHIT:    2396825  iMISS:    1483435  dACCESS:    4461400  dHIT:    1889051  dMISS:    2572349  itACCESS:      55812  itHIT:       8248  itMISS:      47564  dtACCESS:     462566  dtHIT:      57463  dtMISS:     405103
cpu0_L2C LOAD         ACCESS:    2156514  HIT:    1058084  MISS:    1098430  iACCESS:     885218  iHIT:     571905  iMISS:     313313  dACCESS:    1271296  dHIT:     486179  dMISS:     785117  itACCESS:          0  itHIT:          0  itMISS:          0  dtACCESS:          0  dtHIT:          0  dtMISS:          0
cpu0_L2C RFO          ACCESS:     227926  HIT:      90814  MISS:     137112  iACCESS:          0  iHIT:          0  iMISS:          0  dACCESS:     227926  dHIT:      90814  dMISS:     137112  itACCESS:          0  itHIT:          0  itMISS:          0  dtACCESS:          0  dtHIT:          0  dtMISS:          0
cpu0_L2C PREFETCH     ACCESS:    5604218  HIT:    2787925  MISS:    2816293  iACCESS:    2995042  iHIT:    1824920  iMISS:    1170122  dACCESS:    2609176  dHIT:     963005  dMISS:    1646171  itACCESS:          0  itHIT:          0  itMISS:          0  dtACCESS:          0  dtHIT:          0  dtMISS:          0
cpu0_L2C WRITE        ACCESS:     353002  HIT:     349053  MISS:       3949  iACCESS:          0  iHIT:          0  iMISS:          0  dACCESS:     353002  dHIT:     349053  dMISS:       3949  itACCESS:          0  itHIT:          0  itMISS:          0  dtACCESS:          0  dtHIT:          0  dtMISS:          0
cpu0_L2C TRANSLATION  ACCESS:     518378  HIT:      65711  MISS:     452667  iACCESS:          0  iHIT:          0  iMISS:          0  dACCESS:          0  dHIT:          0  dMISS:          0  itACCESS:      55812  itHIT:       8248  itMISS:      47564  dtACCESS:     462566  dtHIT:      57463  dtMISS:     405103
cpu0_L2C PREFETCH  REQUESTED:    1517502  ISSUED:    1517499  CROSSED:          0  USEFUL:     349059  USELESS:     311459
cpu0_L2C AVERAGE iMISS LATENCY: 37.2812 cycles
cpu0_L2C AVERAGE dMISS LATENCY: 81.1859 cycles
cpu0_L2C AVERAGE itMISS LATENCY: 1.94171 cycles
cpu0_L2C AVERAGE dtMISS LATENCY: 17.0894 cycles
cpu0_L2C PAGE CROSSINGS (TLB HIT):         0 
cpu0_L2C PAGE CROSSINGS (TLB MISS):         0 
cpu0_L2C AVERAGE MISS LATENCY: 137.499 cycles
LLC TOTAL       ACCESS:    4528681  HIT:    1481221  MISS:    3047460  iACCESS:    1404327  iHIT:     522125  iMISS:     882202  dACCESS:    2671687  dHIT:     904603  dMISS:    1767084  itACCESS:      47564  itHIT:       3872  itMISS:      43692  dtACCESS:     405103  dtHIT:      50621  dtMISS:     354482
LLC LOAD         ACCESS:    1089642  HIT:     355416  MISS:     734226  iACCESS:     312020  iHIT:     123003  iMISS:     189017  dACCESS:     777622  dHIT:     232413  dMISS:     545209  itACCESS:          0  itHIT:          0  itMISS:          0  dtACCESS:          0  dtHIT:          0  dtMISS:          0
LLC RFO          ACCESS:     137103  HIT:      41622  MISS:      95481  iACCESS:          0  iHIT:          0  iMISS:          0  dACCESS:     137103  dHIT:      41622  dMISS:      95481  itACCESS:          0  itHIT:          0  itMISS:          0  dtACCESS:          0  dtHIT:          0  dtMISS:          0
LLC PREFETCH     ACCESS:    2634779  HIT:     825227  MISS:    1809552  iACCESS:    1092307  iHIT:     399122  iMISS:     693185  dACCESS:    1542472  dHIT:     426105  dMISS:    1116367  itACCESS:          0  itHIT:          0  itMISS:          0  dtACCESS:          0  dtHIT:          0  dtMISS:          0
LLC WRITE        ACCESS:     214490  HIT:     204463  MISS:      10027  iACCESS:          0  iHIT:          0  iMISS:          0  dACCESS:     214490  dHIT:     204463  dMISS:      10027  itACCESS:          0  itHIT:          0  itMISS:          0  dtACCESS:          0  dtHIT:          0  dtMISS:          0
LLC TRANSLATION  ACCESS:     452667  HIT:      54493  MISS:     398174  iACCESS:          0  iHIT:          0  iMISS:          0  dACCESS:          0  dHIT:          0  dMISS:          0  itACCESS:      47564  itHIT:       3872  itMISS:      43692  dtACCESS:     405103  dtHIT:      50621  dtMISS:     354482
LLC PREFETCH  REQUESTED:          0  ISSUED:          0  CROSSED:          0  USEFUL:          0  USELESS:          0
LLC AVERAGE iMISS LATENCY: 46.099 cycles
LLC AVERAGE dMISS LATENCY: 105.419 cycles
LLC AVERAGE itMISS LATENCY: 2.56319 cycles
LLC AVERAGE dtMISS LATENCY: 22.6552 cycles
LLC PAGE CROSSINGS (TLB HIT):         0 
LLC PAGE CROSSINGS (TLB MISS):         0 
LLC AVERAGE MISS LATENCY: 176.737 cycles

PageTableWalker TOTAL       ACCESS:     180551  
PageTableWalker AVERAGE LATENCY: 6.78439 cycles
PageTableWalker TOTAL LATENCY: 1224927 cycles

DRAM Statistics
Channel 0
 RQ ROW_BUFFER_HIT:     630317
  ROW_BUFFER_MISS:    2385573
 AVG DBUS CONGESTED CYCLE:    3.64925
 WQ ROW_BUFFER_HIT:      68386
  ROW_BUFFER_MISS:      56838  FULL:          0

