last_page:0x200000000000000
VMEM_RES_CAP:0x100000
PAGE_SIZE:4096
LOG2_PAGE_SIZE:12
LOG2_PAGE_TABLE_SIZE:9
page_table_levels:5
WARNING: physical memory size is smaller than virtual memory size
FDiP enabled with aggresivity 16

*** ChampSim Multicore Out-of-Order Simulator ***

Warmup Instructions: 50000000
Simulation Instructions: 100000000
Number of CPUs: 1
Small page size: 4096
Large page size: 2097152

CPU 0 Bimodal branch predictor
Basic BTB sets: 1024 ways: 8 indirect buffer size: 4096 RAS size: 64
Instruction page size distrubution: 0
Loading instruction page size distribution from /home/bsc/bsc018186/scratch/itp_asplos25_AE/dump/smt_srv12_ap_srv128_ap_1024i.pdst
Data page size distrubution: 0
Loading data page size distribution from /home/bsc/bsc018186/scratch/itp_asplos25_AE/dump/smt_srv12_ap_srv128_ap_1024i.pdst
cpu0_L2C IP-based stride prefetcher
cpu0_L1D next line prefetcher
cpu0_L1I next line prefetcher
Off-chip DRAM Size: 4 GiB Channels: 1 Width: 64-bit Data Rate: 3200 MT/s
Heartbeat CPU 0 instructions: 10000001 cycles: 2500723 heartbeat IPC: 3.99885 cumulative IPC: 3.99885 (Simulation time: 0 hr 0 min 46 sec) 
Heartbeat CPU 0 instructions: 20000002 cycles: 5080656 heartbeat IPC: 3.87608 cumulative IPC: 3.9365 (Simulation time: 0 hr 1 min 35 sec) 
Heartbeat CPU 0 instructions: 30000001 cycles: 7665833 heartbeat IPC: 3.86821 cumulative IPC: 3.91347 (Simulation time: 0 hr 2 min 22 sec) 
Heartbeat CPU 0 instructions: 40000003 cycles: 10209100 heartbeat IPC: 3.93196 cumulative IPC: 3.91808 (Simulation time: 0 hr 3 min 12 sec) 
Heartbeat CPU 0 instructions: 50000001 cycles: 12709426 heartbeat IPC: 3.99948 cumulative IPC: 3.93409 (Simulation time: 0 hr 4 min 1 sec) 
Warmup finished CPU 0 instructions: 50000001 cycles: 12709427 cumulative IPC: 3.93409 (Simulation time: 0 hr 4 min 1 sec) 

Warmup complete CPU 0 instructions: 50000001 cycles: 12709427 (Simulation time: 0 hr 4 min 1 sec) 

Heartbeat CPU 0 instructions: 60000000 cycles: 44182428 heartbeat IPC: 0.317733 cumulative IPC: 0.317733 (Simulation time: 0 hr 5 min 44 sec) 
Heartbeat CPU 0 instructions: 70000000 cycles: 75112800 heartbeat IPC: 0.323307 cumulative IPC: 0.320496 (Simulation time: 0 hr 7 min 23 sec) 
Heartbeat CPU 0 instructions: 80000001 cycles: 107271136 heartbeat IPC: 0.310962 cumulative IPC: 0.317254 (Simulation time: 0 hr 9 min 7 sec) 
Heartbeat CPU 0 instructions: 90000000 cycles: 133845817 heartbeat IPC: 0.376298 cumulative IPC: 0.330207 (Simulation time: 0 hr 10 min 40 sec) 
Heartbeat CPU 0 instructions: 100000001 cycles: 165240912 heartbeat IPC: 0.318522 cumulative IPC: 0.327802 (Simulation time: 0 hr 12 min 21 sec) 
Heartbeat CPU 0 instructions: 110000000 cycles: 196216409 heartbeat IPC: 0.322836 cumulative IPC: 0.326964 (Simulation time: 0 hr 14 min 1 sec) 
Heartbeat CPU 0 instructions: 120000000 cycles: 227089288 heartbeat IPC: 0.323909 cumulative IPC: 0.326524 (Simulation time: 0 hr 15 min 34 sec) 
Heartbeat CPU 0 instructions: 130000000 cycles: 258133547 heartbeat IPC: 0.322121 cumulative IPC: 0.325967 (Simulation time: 0 hr 17 min 11 sec) 
Heartbeat CPU 0 instructions: 140000000 cycles: 289035991 heartbeat IPC: 0.3236 cumulative IPC: 0.325702 (Simulation time: 0 hr 18 min 45 sec) 
Heartbeat CPU 0 instructions: 150000002 cycles: 320963661 heartbeat IPC: 0.313209 cumulative IPC: 0.324408 (Simulation time: 0 hr 20 min 18 sec) 
Simulation finished CPU 0 instructions: 100000001 cycles: 308254235 cumulative IPC: 0.324408 (Simulation time: 0 hr 20 min 18 sec) 

Simulation complete CPU 0 instructions: 100000001 cycles: 308254235 (Simulation time: 0 hr 20 min 18 sec) 


ChampSim completed all CPUs

Saving instructions large page distribution to /home/bsc/bsc018186/scratch/itp_asplos25_AE/dump/smt_srv12_ap_srv128_ap_1024i.pdst...
Saving data large page distribution to /home/bsc/bsc018186/scratch/itp_asplos25_AE/dump/smt_srv12_ap_srv128_ap_1024i.pdst...
=== Simulation ===
CPU 0 runs /gpfs/projects/bsc18/MN4/bsc18/romol/ChampSim/traces/qualcomm_srv/smt_srv12_ap_srv128_ap_1024i.champsimtrace.xz

Region of Interest Statistics

CPU 0 cumulative IPC: 0.324408 instructions: 100000001 cycles: 308254235
CPU 0 Branch Prediction Accuracy: 74.5693% MPKI: 46.1111 Average ROB Occupancy at Mispredict: 10.4568
Branch type MPKI
BRANCH_DIRECT_JUMP: 1.47274
BRANCH_INDIRECT: 23.5034
BRANCH_CONDITIONAL: 13.5821
BRANCH_DIRECT_CALL: 2.82673
BRANCH_INDIRECT_CALL: 1.14497
BRANCH_RETURN: 3.5812

Instructions large pages: 0
Instructions small pages: 11454
Large page distribution for instructions: 0%

Data large pages: 0
Data small pages: 9589
Large page distribution for data: 0%

cpu0_L1I TOTAL       ACCESS:   39310026  HIT:   30622804  MISS:    8687222  iACCESS:   39310026  iHIT:   30622804  iMISS:    8687222  dACCESS:          0  dHIT:          0  dMISS:          0  itACCESS:          0  itHIT:          0  itMISS:          0  dtACCESS:          0  dtHIT:          0  dtMISS:          0
cpu0_L1I LOAD         ACCESS:   11688242  HIT:    9333734  MISS:    2354508  iACCESS:   11688242  iHIT:    9333734  iMISS:    2354508  dACCESS:          0  dHIT:          0  dMISS:          0  itACCESS:          0  itHIT:          0  itMISS:          0  dtACCESS:          0  dtHIT:          0  dtMISS:          0
cpu0_L1I RFO          ACCESS:          0  HIT:          0  MISS:          0  iACCESS:          0  iHIT:          0  iMISS:          0  dACCESS:          0  dHIT:          0  dMISS:          0  itACCESS:          0  itHIT:          0  itMISS:          0  dtACCESS:          0  dtHIT:          0  dtMISS:          0
cpu0_L1I PREFETCH     ACCESS:   27621784  HIT:   21289070  MISS:    6332714  iACCESS:   27621784  iHIT:   21289070  iMISS:    6332714  dACCESS:          0  dHIT:          0  dMISS:          0  itACCESS:          0  itHIT:          0  itMISS:          0  dtACCESS:          0  dtHIT:          0  dtMISS:          0
cpu0_L1I WRITE        ACCESS:          0  HIT:          0  MISS:          0  iACCESS:          0  iHIT:          0  iMISS:          0  dACCESS:          0  dHIT:          0  dMISS:          0  itACCESS:          0  itHIT:          0  itMISS:          0  dtACCESS:          0  dtHIT:          0  dtMISS:          0
cpu0_L1I TRANSLATION  ACCESS:          0  HIT:          0  MISS:          0  iACCESS:          0  iHIT:          0  iMISS:          0  dACCESS:          0  dHIT:          0  dMISS:          0  itACCESS:          0  itHIT:          0  itMISS:          0  dtACCESS:          0  dtHIT:          0  dtMISS:          0
cpu0_L1I PREFETCH  REQUESTED:   30383872  ISSUED:   30383854  CROSSED:          0  USEFUL:    2219553  USELESS:     776242
cpu0_L1I AVERAGE iMISS LATENCY: 25.2123 cycles
cpu0_L1I AVERAGE dMISS LATENCY: 0 cycles
cpu0_L1I AVERAGE itMISS LATENCY: 0 cycles
cpu0_L1I AVERAGE dtMISS LATENCY: 0 cycles
cpu0_L1I PAGE CROSSINGS (TLB HIT):         0 
cpu0_L1I PAGE CROSSINGS (TLB MISS):         0 
cpu0_L1I AVERAGE MISS LATENCY: 25.2123 cycles
cpu0_ITLB TOTAL       ACCESS:   33376609  HIT:   31132325  MISS:    2244284  iACCESS:   33376609  iHIT:   31132325  iMISS:    2244284  dACCESS:          0  dHIT:          0  dMISS:          0  itACCESS:          0  itHIT:          0  itMISS:          0  dtACCESS:          0  dtHIT:          0  dtMISS:          0
cpu0_ITLB LOAD         ACCESS:   33376609  HIT:   31132325  MISS:    2244284  iACCESS:   33376609  iHIT:   31132325  iMISS:    2244284  dACCESS:          0  dHIT:          0  dMISS:          0  itACCESS:          0  itHIT:          0  itMISS:          0  dtACCESS:          0  dtHIT:          0  dtMISS:          0
cpu0_ITLB RFO          ACCESS:          0  HIT:          0  MISS:          0  iACCESS:          0  iHIT:          0  iMISS:          0  dACCESS:          0  dHIT:          0  dMISS:          0  itACCESS:          0  itHIT:          0  itMISS:          0  dtACCESS:          0  dtHIT:          0  dtMISS:          0
cpu0_ITLB PREFETCH     ACCESS:          0  HIT:          0  MISS:          0  iACCESS:          0  iHIT:          0  iMISS:          0  dACCESS:          0  dHIT:          0  dMISS:          0  itACCESS:          0  itHIT:          0  itMISS:          0  dtACCESS:          0  dtHIT:          0  dtMISS:          0
cpu0_ITLB WRITE        ACCESS:          0  HIT:          0  MISS:          0  iACCESS:          0  iHIT:          0  iMISS:          0  dACCESS:          0  dHIT:          0  dMISS:          0  itACCESS:          0  itHIT:          0  itMISS:          0  dtACCESS:          0  dtHIT:          0  dtMISS:          0
cpu0_ITLB TRANSLATION  ACCESS:          0  HIT:          0  MISS:          0  iACCESS:          0  iHIT:          0  iMISS:          0  dACCESS:          0  dHIT:          0  dMISS:          0  itACCESS:          0  itHIT:          0  itMISS:          0  dtACCESS:          0  dtHIT:          0  dtMISS:          0
cpu0_ITLB PREFETCH  REQUESTED:          0  ISSUED:          0  CROSSED:          0  USEFUL:     396641  USELESS:      80589
cpu0_ITLB AVERAGE iMISS LATENCY: 10.9451 cycles
cpu0_ITLB AVERAGE dMISS LATENCY: 0 cycles
cpu0_ITLB AVERAGE itMISS LATENCY: 0 cycles
cpu0_ITLB AVERAGE dtMISS LATENCY: 0 cycles
cpu0_ITLB PAGE CROSSINGS (TLB HIT):         0 
cpu0_ITLB PAGE CROSSINGS (TLB MISS):         0 
cpu0_ITLB AVERAGE MISS LATENCY: 10.9451 cycles
cpu0_DTLB TOTAL       ACCESS:   28982142  HIT:   25515206  MISS:    3466936  iACCESS:          0  iHIT:          0  iMISS:          0  dACCESS:   28982142  dHIT:   25515206  dMISS:    3466936  itACCESS:          0  itHIT:          0  itMISS:          0  dtACCESS:          0  dtHIT:          0  dtMISS:          0
cpu0_DTLB LOAD         ACCESS:   28982142  HIT:   25515206  MISS:    3466936  iACCESS:          0  iHIT:          0  iMISS:          0  dACCESS:   28982142  dHIT:   25515206  dMISS:    3466936  itACCESS:          0  itHIT:          0  itMISS:          0  dtACCESS:          0  dtHIT:          0  dtMISS:          0
cpu0_DTLB RFO          ACCESS:          0  HIT:          0  MISS:          0  iACCESS:          0  iHIT:          0  iMISS:          0  dACCESS:          0  dHIT:          0  dMISS:          0  itACCESS:          0  itHIT:          0  itMISS:          0  dtACCESS:          0  dtHIT:          0  dtMISS:          0
cpu0_DTLB PREFETCH     ACCESS:          0  HIT:          0  MISS:          0  iACCESS:          0  iHIT:          0  iMISS:          0  dACCESS:          0  dHIT:          0  dMISS:          0  itACCESS:          0  itHIT:          0  itMISS:          0  dtACCESS:          0  dtHIT:          0  dtMISS:          0
cpu0_DTLB WRITE        ACCESS:          0  HIT:          0  MISS:          0  iACCESS:          0  iHIT:          0  iMISS:          0  dACCESS:          0  dHIT:          0  dMISS:          0  itACCESS:          0  itHIT:          0  itMISS:          0  dtACCESS:          0  dtHIT:          0  dtMISS:          0
cpu0_DTLB TRANSLATION  ACCESS:          0  HIT:          0  MISS:          0  iACCESS:          0  iHIT:          0  iMISS:          0  dACCESS:          0  dHIT:          0  dMISS:          0  itACCESS:          0  itHIT:          0  itMISS:          0  dtACCESS:          0  dtHIT:          0  dtMISS:          0
cpu0_DTLB PREFETCH  REQUESTED:          0  ISSUED:          0  CROSSED:          0  USEFUL:          0  USELESS:          0
cpu0_DTLB AVERAGE iMISS LATENCY: 0 cycles
cpu0_DTLB AVERAGE dMISS LATENCY: 26.0453 cycles
cpu0_DTLB AVERAGE itMISS LATENCY: 0 cycles
cpu0_DTLB AVERAGE dtMISS LATENCY: 0 cycles
cpu0_DTLB PAGE CROSSINGS (TLB HIT):         0 
cpu0_DTLB PAGE CROSSINGS (TLB MISS):         0 
cpu0_DTLB AVERAGE MISS LATENCY: 26.0453 cycles
cpu0_STLB TOTAL       ACCESS:    2527644  HIT:    2147137  MISS:     380507  iACCESS:     477236  iHIT:     356180  iMISS:     121056  dACCESS:    2050408  dHIT:    1790957  dMISS:     259451  itACCESS:          0  itHIT:          0  itMISS:          0  dtACCESS:          0  dtHIT:          0  dtMISS:          0
cpu0_STLB LOAD         ACCESS:    2527644  HIT:    2147137  MISS:     380507  iACCESS:     477236  iHIT:     356180  iMISS:     121056  dACCESS:    2050408  dHIT:    1790957  dMISS:     259451  itACCESS:          0  itHIT:          0  itMISS:          0  dtACCESS:          0  dtHIT:          0  dtMISS:          0
cpu0_STLB RFO          ACCESS:          0  HIT:          0  MISS:          0  iACCESS:          0  iHIT:          0  iMISS:          0  dACCESS:          0  dHIT:          0  dMISS:          0  itACCESS:          0  itHIT:          0  itMISS:          0  dtACCESS:          0  dtHIT:          0  dtMISS:          0
cpu0_STLB PREFETCH     ACCESS:          0  HIT:          0  MISS:          0  iACCESS:          0  iHIT:          0  iMISS:          0  dACCESS:          0  dHIT:          0  dMISS:          0  itACCESS:          0  itHIT:          0  itMISS:          0  dtACCESS:          0  dtHIT:          0  dtMISS:          0
cpu0_STLB WRITE        ACCESS:          0  HIT:          0  MISS:          0  iACCESS:          0  iHIT:          0  iMISS:          0  dACCESS:          0  dHIT:          0  dMISS:          0  itACCESS:          0  itHIT:          0  itMISS:          0  dtACCESS:          0  dtHIT:          0  dtMISS:          0
cpu0_STLB TRANSLATION  ACCESS:          0  HIT:          0  MISS:          0  iACCESS:          0  iHIT:          0  iMISS:          0  dACCESS:          0  dHIT:          0  dMISS:          0  itACCESS:          0  itHIT:          0  itMISS:          0  dtACCESS:          0  dtHIT:          0  dtMISS:          0
cpu0_STLB PREFETCH  REQUESTED:          0  ISSUED:          0  CROSSED:          0  USEFUL:          0  USELESS:          0
cpu0_STLB AVERAGE iMISS LATENCY: 54.5066 cycles
cpu0_STLB AVERAGE dMISS LATENCY: 193.929 cycles
cpu0_STLB AVERAGE itMISS LATENCY: 0 cycles
cpu0_STLB AVERAGE dtMISS LATENCY: 0 cycles
cpu0_STLB PAGE CROSSINGS (TLB HIT):         0 
cpu0_STLB PAGE CROSSINGS (TLB MISS):         0 
cpu0_STLB AVERAGE MISS LATENCY: 248.436 cycles
cpu0_L1D TOTAL       ACCESS:   45075755  HIT:   39373101  MISS:    5702654  iACCESS:          0  iHIT:          0  iMISS:          0  dACCESS:   44511986  dHIT:   39339790  dMISS:    5172196  itACCESS:     136679  itHIT:      15174  itMISS:     121505  dtACCESS:     427090  dtHIT:      18137  dtMISS:     408953
cpu0_L1D LOAD         ACCESS:   20339729  HIT:   18033257  MISS:    2306472  iACCESS:          0  iHIT:          0  iMISS:          0  dACCESS:   20339729  dHIT:   18033257  dMISS:    2306472  itACCESS:          0  itHIT:          0  itMISS:          0  dtACCESS:          0  dtHIT:          0  dtMISS:          0
cpu0_L1D RFO          ACCESS:          0  HIT:          0  MISS:          0  iACCESS:          0  iHIT:          0  iMISS:          0  dACCESS:          0  dHIT:          0  dMISS:          0  itACCESS:          0  itHIT:          0  itMISS:          0  dtACCESS:          0  dtHIT:          0  dtMISS:          0
cpu0_L1D PREFETCH     ACCESS:   13983979  HIT:   11700263  MISS:    2283716  iACCESS:          0  iHIT:          0  iMISS:          0  dACCESS:   13983979  dHIT:   11700263  dMISS:    2283716  itACCESS:          0  itHIT:          0  itMISS:          0  dtACCESS:          0  dtHIT:          0  dtMISS:          0
cpu0_L1D WRITE        ACCESS:   10188278  HIT:    9606270  MISS:     582008  iACCESS:          0  iHIT:          0  iMISS:          0  dACCESS:   10188278  dHIT:    9606270  dMISS:     582008  itACCESS:          0  itHIT:          0  itMISS:          0  dtACCESS:          0  dtHIT:          0  dtMISS:          0
cpu0_L1D TRANSLATION  ACCESS:     563769  HIT:      33311  MISS:     530458  iACCESS:          0  iHIT:          0  iMISS:          0  dACCESS:          0  dHIT:          0  dMISS:          0  itACCESS:     136679  itHIT:      15174  itMISS:     121505  dtACCESS:     427090  dtHIT:      18137  dtMISS:     408953
cpu0_L1D PREFETCH  REQUESTED:   20339729  ISSUED:   18560956  CROSSED:          0  USEFUL:     361694  USELESS:     929973
cpu0_L1D AVERAGE iMISS LATENCY: 0 cycles
cpu0_L1D AVERAGE dMISS LATENCY: 50.4327 cycles
cpu0_L1D AVERAGE itMISS LATENCY: 3.42103 cycles
cpu0_L1D AVERAGE dtMISS LATENCY: 12.1129 cycles
cpu0_L1D PAGE CROSSINGS (TLB HIT):         0 
cpu0_L1D PAGE CROSSINGS (TLB MISS):         0 
cpu0_L1D AVERAGE MISS LATENCY: 65.9666 cycles
cpu0_L2C TOTAL       ACCESS:    8654186  HIT:    4144880  MISS:    4509306  iACCESS:    3804657  iHIT:    2271904  iMISS:    1532753  dACCESS:    4358956  dHIT:    1814027  dMISS:    2544929  itACCESS:     119733  itHIT:      21080  itMISS:      98653  dtACCESS:     370840  dtHIT:      37869  dtMISS:     332971
cpu0_L2C LOAD         ACCESS:    2048213  HIT:     993790  MISS:    1054423  iACCESS:     846085  iHIT:     529736  iMISS:     316349  dACCESS:    1202128  dHIT:     464054  dMISS:     738074  itACCESS:          0  itHIT:          0  itMISS:          0  dtACCESS:          0  dtHIT:          0  dtMISS:          0
cpu0_L2C RFO          ACCESS:     215363  HIT:      80498  MISS:     134865  iACCESS:          0  iHIT:          0  iMISS:          0  dACCESS:     215363  dHIT:      80498  dMISS:     134865  itACCESS:          0  itHIT:          0  itMISS:          0  dtACCESS:          0  dtHIT:          0  dtMISS:          0
cpu0_L2C PREFETCH     ACCESS:    5559838  HIT:    2675065  MISS:    2884773  iACCESS:    2958572  iHIT:    1742168  iMISS:    1216404  dACCESS:    2601266  dHIT:     932897  dMISS:    1668369  itACCESS:          0  itHIT:          0  itMISS:          0  dtACCESS:          0  dtHIT:          0  dtMISS:          0
cpu0_L2C WRITE        ACCESS:     340199  HIT:     336578  MISS:       3621  iACCESS:          0  iHIT:          0  iMISS:          0  dACCESS:     340199  dHIT:     336578  dMISS:       3621  itACCESS:          0  itHIT:          0  itMISS:          0  dtACCESS:          0  dtHIT:          0  dtMISS:          0
cpu0_L2C TRANSLATION  ACCESS:     490573  HIT:      58949  MISS:     431624  iACCESS:          0  iHIT:          0  iMISS:          0  dACCESS:          0  dHIT:          0  dMISS:          0  itACCESS:     119733  itHIT:      21080  itMISS:      98653  dtACCESS:     370840  dtHIT:      37869  dtMISS:     332971
cpu0_L2C PREFETCH  REQUESTED:    1545122  ISSUED:    1545122  CROSSED:          0  USEFUL:     366951  USELESS:     334059
cpu0_L2C AVERAGE iMISS LATENCY: 41.5223 cycles
cpu0_L2C AVERAGE dMISS LATENCY: 79.9442 cycles
cpu0_L2C AVERAGE itMISS LATENCY: 4.06479 cycles
cpu0_L2C AVERAGE dtMISS LATENCY: 14.4999 cycles
cpu0_L2C PAGE CROSSINGS (TLB HIT):         0 
cpu0_L2C PAGE CROSSINGS (TLB MISS):         0 
cpu0_L2C AVERAGE MISS LATENCY: 140.031 cycles
LLC TOTAL       ACCESS:    4493879  HIT:    1292822  MISS:    3201057  iACCESS:    1440472  iHIT:     427854  iMISS:    1012618  dACCESS:    2621783  dHIT:     826992  dMISS:    1794791  itACCESS:      98653  itHIT:       6852  itMISS:      91801  dtACCESS:     332971  dtHIT:      31124  dtMISS:     301847
LLC LOAD         ACCESS:    1048107  HIT:     317347  MISS:     730760  iACCESS:     315195  iHIT:     100422  iMISS:     214773  dACCESS:     732912  dHIT:     216925  dMISS:     515987  itACCESS:          0  itHIT:          0  itMISS:          0  dtACCESS:          0  dtHIT:          0  dtMISS:          0
LLC RFO          ACCESS:     134850  HIT:      39205  MISS:      95645  iACCESS:          0  iHIT:          0  iMISS:          0  dACCESS:     134850  dHIT:      39205  dMISS:      95645  itACCESS:          0  itHIT:          0  itMISS:          0  dtACCESS:          0  dtHIT:          0  dtMISS:          0
LLC PREFETCH     ACCESS:    2668532  HIT:     697703  MISS:    1970829  iACCESS:    1125277  iHIT:     327432  iMISS:     797845  dACCESS:    1543255  dHIT:     370271  dMISS:    1172984  itACCESS:          0  itHIT:          0  itMISS:          0  dtACCESS:          0  dtHIT:          0  dtMISS:          0
LLC WRITE        ACCESS:     210766  HIT:     200591  MISS:      10175  iACCESS:          0  iHIT:          0  iMISS:          0  dACCESS:     210766  dHIT:     200591  dMISS:      10175  itACCESS:          0  itHIT:          0  itMISS:          0  dtACCESS:          0  dtHIT:          0  dtMISS:          0
LLC TRANSLATION  ACCESS:     431624  HIT:      37976  MISS:     393648  iACCESS:          0  iHIT:          0  iMISS:          0  dACCESS:          0  dHIT:          0  dMISS:          0  itACCESS:      98653  itHIT:       6852  itMISS:      91801  dtACCESS:     332971  dtHIT:      31124  dtMISS:     301847
LLC PREFETCH  REQUESTED:          0  ISSUED:          0  CROSSED:          0  USEFUL:          0  USELESS:          0
LLC AVERAGE iMISS LATENCY: 49.6243 cycles
LLC AVERAGE dMISS LATENCY: 98.5961 cycles
LLC AVERAGE itMISS LATENCY: 5.11463 cycles
LLC AVERAGE dtMISS LATENCY: 18.3686 cycles
LLC PAGE CROSSINGS (TLB HIT):         0 
LLC PAGE CROSSINGS (TLB MISS):         0 
LLC AVERAGE MISS LATENCY: 171.704 cycles

PageTableWalker TOTAL       ACCESS:     139665  
PageTableWalker AVERAGE LATENCY: 6.49046 cycles
PageTableWalker TOTAL LATENCY: 906490 cycles

DRAM Statistics
Channel 0
 RQ ROW_BUFFER_HIT:     691256
  ROW_BUFFER_MISS:    2481840
 AVG DBUS CONGESTED CYCLE:     3.6481
 WQ ROW_BUFFER_HIT:      68045
  ROW_BUFFER_MISS:      54855  FULL:          0

