last_page:0x200000000000000
VMEM_RES_CAP:0x100000
PAGE_SIZE:4096
LOG2_PAGE_SIZE:12
LOG2_PAGE_TABLE_SIZE:9
page_table_levels:5
WARNING: physical memory size is smaller than virtual memory size
FDiP enabled with aggresivity 16

*** ChampSim Multicore Out-of-Order Simulator ***

Warmup Instructions: 50000000
Simulation Instructions: 100000000
Number of CPUs: 1
Small page size: 4096
Large page size: 2097152

CPU 0 Bimodal branch predictor
Basic BTB sets: 1024 ways: 8 indirect buffer size: 4096 RAS size: 64
Instruction page size distrubution: 0
Loading instruction page size distribution from /home/bsc/bsc018186/scratch/itp_asplos25_AE/dump/smt_srv207_ap_srv180_ap_1024i.pdst
Data page size distrubution: 0
Loading data page size distribution from /home/bsc/bsc018186/scratch/itp_asplos25_AE/dump/smt_srv207_ap_srv180_ap_1024i.pdst
cpu0_L2C IP-based stride prefetcher
cpu0_L1D next line prefetcher
cpu0_L1I next line prefetcher
Off-chip DRAM Size: 4 GiB Channels: 1 Width: 64-bit Data Rate: 3200 MT/s
Heartbeat CPU 0 instructions: 10000003 cycles: 2500633 heartbeat IPC: 3.99899 cumulative IPC: 3.99899 (Simulation time: 0 hr 0 min 43 sec) 
Heartbeat CPU 0 instructions: 20000000 cycles: 5001027 heartbeat IPC: 3.99937 cumulative IPC: 3.99918 (Simulation time: 0 hr 1 min 27 sec) 
Heartbeat CPU 0 instructions: 30000003 cycles: 7501288 heartbeat IPC: 3.99959 cumulative IPC: 3.99932 (Simulation time: 0 hr 2 min 13 sec) 
Heartbeat CPU 0 instructions: 40000000 cycles: 10001701 heartbeat IPC: 3.99934 cumulative IPC: 3.99932 (Simulation time: 0 hr 2 min 57 sec) 
Heartbeat CPU 0 instructions: 50000000 cycles: 12502116 heartbeat IPC: 3.99934 cumulative IPC: 3.99933 (Simulation time: 0 hr 3 min 40 sec) 
Warmup finished CPU 0 instructions: 50000000 cycles: 12502117 cumulative IPC: 3.99933 (Simulation time: 0 hr 3 min 40 sec) 

Warmup complete CPU 0 instructions: 50000000 cycles: 12502117 (Simulation time: 0 hr 3 min 40 sec) 

Heartbeat CPU 0 instructions: 60000001 cycles: 42343327 heartbeat IPC: 0.335108 cumulative IPC: 0.335108 (Simulation time: 0 hr 5 min 10 sec) 
Heartbeat CPU 0 instructions: 70000001 cycles: 71086564 heartbeat IPC: 0.347908 cumulative IPC: 0.341388 (Simulation time: 0 hr 6 min 38 sec) 
Heartbeat CPU 0 instructions: 80000000 cycles: 102199836 heartbeat IPC: 0.321407 cumulative IPC: 0.334457 (Simulation time: 0 hr 8 min 6 sec) 
Heartbeat CPU 0 instructions: 90000000 cycles: 132878036 heartbeat IPC: 0.325965 cumulative IPC: 0.332293 (Simulation time: 0 hr 9 min 37 sec) 
Heartbeat CPU 0 instructions: 100000003 cycles: 162696171 heartbeat IPC: 0.335367 cumulative IPC: 0.332903 (Simulation time: 0 hr 11 min 6 sec) 
Heartbeat CPU 0 instructions: 110000000 cycles: 191939416 heartbeat IPC: 0.34196 cumulative IPC: 0.334379 (Simulation time: 0 hr 12 min 34 sec) 
Heartbeat CPU 0 instructions: 120000001 cycles: 221667415 heartbeat IPC: 0.336384 cumulative IPC: 0.334664 (Simulation time: 0 hr 14 min 3 sec) 
Heartbeat CPU 0 instructions: 130000000 cycles: 249805856 heartbeat IPC: 0.355386 cumulative IPC: 0.337121 (Simulation time: 0 hr 15 min 28 sec) 
Heartbeat CPU 0 instructions: 140000002 cycles: 281060890 heartbeat IPC: 0.319949 cumulative IPC: 0.335123 (Simulation time: 0 hr 17 min 0 sec) 
Heartbeat CPU 0 instructions: 150000000 cycles: 310261931 heartbeat IPC: 0.342454 cumulative IPC: 0.335842 (Simulation time: 0 hr 18 min 30 sec) 
Simulation finished CPU 0 instructions: 100000000 cycles: 297759815 cumulative IPC: 0.335842 (Simulation time: 0 hr 18 min 30 sec) 

Simulation complete CPU 0 instructions: 100000000 cycles: 297759815 (Simulation time: 0 hr 18 min 30 sec) 


ChampSim completed all CPUs

Saving instructions large page distribution to /home/bsc/bsc018186/scratch/itp_asplos25_AE/dump/smt_srv207_ap_srv180_ap_1024i.pdst...
Saving data large page distribution to /home/bsc/bsc018186/scratch/itp_asplos25_AE/dump/smt_srv207_ap_srv180_ap_1024i.pdst...
=== Simulation ===
CPU 0 runs /gpfs/projects/bsc18/MN4/bsc18/romol/ChampSim/traces/qualcomm_srv/smt_srv207_ap_srv180_ap_1024i.champsimtrace.xz

Region of Interest Statistics

CPU 0 cumulative IPC: 0.335842 instructions: 100000000 cycles: 297759815
CPU 0 Branch Prediction Accuracy: 75.4138% MPKI: 44.1444 Average ROB Occupancy at Mispredict: 11.4624
Branch type MPKI
BRANCH_DIRECT_JUMP: 1.3486
BRANCH_INDIRECT: 23.3502
BRANCH_CONDITIONAL: 12.479
BRANCH_DIRECT_CALL: 2.53399
BRANCH_INDIRECT_CALL: 0.939861
BRANCH_RETURN: 3.49286

Instructions large pages: 0
Instructions small pages: 14868
Large page distribution for instructions: 0%

Data large pages: 0
Data small pages: 13491
Large page distribution for data: 0%

cpu0_L1I TOTAL       ACCESS:   38921842  HIT:   30225744  MISS:    8696098  iACCESS:   38921842  iHIT:   30225744  iMISS:    8696098  dACCESS:          0  dHIT:          0  dMISS:          0  itACCESS:          0  itHIT:          0  itMISS:          0  dtACCESS:          0  dtHIT:          0  dtMISS:          0
cpu0_L1I LOAD         ACCESS:   11593402  HIT:    9214358  MISS:    2379044  iACCESS:   11593402  iHIT:    9214358  iMISS:    2379044  dACCESS:          0  dHIT:          0  dMISS:          0  itACCESS:          0  itHIT:          0  itMISS:          0  dtACCESS:          0  dtHIT:          0  dtMISS:          0
cpu0_L1I RFO          ACCESS:          0  HIT:          0  MISS:          0  iACCESS:          0  iHIT:          0  iMISS:          0  dACCESS:          0  dHIT:          0  dMISS:          0  itACCESS:          0  itHIT:          0  itMISS:          0  dtACCESS:          0  dtHIT:          0  dtMISS:          0
cpu0_L1I PREFETCH     ACCESS:   27328440  HIT:   21011386  MISS:    6317054  iACCESS:   27328440  iHIT:   21011386  iMISS:    6317054  dACCESS:          0  dHIT:          0  dMISS:          0  itACCESS:          0  itHIT:          0  itMISS:          0  dtACCESS:          0  dtHIT:          0  dtMISS:          0
cpu0_L1I WRITE        ACCESS:          0  HIT:          0  MISS:          0  iACCESS:          0  iHIT:          0  iMISS:          0  dACCESS:          0  dHIT:          0  dMISS:          0  itACCESS:          0  itHIT:          0  itMISS:          0  dtACCESS:          0  dtHIT:          0  dtMISS:          0
cpu0_L1I TRANSLATION  ACCESS:          0  HIT:          0  MISS:          0  iACCESS:          0  iHIT:          0  iMISS:          0  dACCESS:          0  dHIT:          0  dMISS:          0  itACCESS:          0  itHIT:          0  itMISS:          0  dtACCESS:          0  dtHIT:          0  dtMISS:          0
cpu0_L1I PREFETCH  REQUESTED:   30115995  ISSUED:   30115663  CROSSED:          0  USEFUL:    2188494  USELESS:     776744
cpu0_L1I AVERAGE iMISS LATENCY: 23.7972 cycles
cpu0_L1I AVERAGE dMISS LATENCY: 0 cycles
cpu0_L1I AVERAGE itMISS LATENCY: 0 cycles
cpu0_L1I AVERAGE dtMISS LATENCY: 0 cycles
cpu0_L1I PAGE CROSSINGS (TLB HIT):         0 
cpu0_L1I PAGE CROSSINGS (TLB MISS):         0 
cpu0_L1I AVERAGE MISS LATENCY: 23.7972 cycles
cpu0_ITLB TOTAL       ACCESS:   32928204  HIT:   30699654  MISS:    2228550  iACCESS:   32928204  iHIT:   30699654  iMISS:    2228550  dACCESS:          0  dHIT:          0  dMISS:          0  itACCESS:          0  itHIT:          0  itMISS:          0  dtACCESS:          0  dtHIT:          0  dtMISS:          0
cpu0_ITLB LOAD         ACCESS:   32928204  HIT:   30699654  MISS:    2228550  iACCESS:   32928204  iHIT:   30699654  iMISS:    2228550  dACCESS:          0  dHIT:          0  dMISS:          0  itACCESS:          0  itHIT:          0  itMISS:          0  dtACCESS:          0  dtHIT:          0  dtMISS:          0
cpu0_ITLB RFO          ACCESS:          0  HIT:          0  MISS:          0  iACCESS:          0  iHIT:          0  iMISS:          0  dACCESS:          0  dHIT:          0  dMISS:          0  itACCESS:          0  itHIT:          0  itMISS:          0  dtACCESS:          0  dtHIT:          0  dtMISS:          0
cpu0_ITLB PREFETCH     ACCESS:          0  HIT:          0  MISS:          0  iACCESS:          0  iHIT:          0  iMISS:          0  dACCESS:          0  dHIT:          0  dMISS:          0  itACCESS:          0  itHIT:          0  itMISS:          0  dtACCESS:          0  dtHIT:          0  dtMISS:          0
cpu0_ITLB WRITE        ACCESS:          0  HIT:          0  MISS:          0  iACCESS:          0  iHIT:          0  iMISS:          0  dACCESS:          0  dHIT:          0  dMISS:          0  itACCESS:          0  itHIT:          0  itMISS:          0  dtACCESS:          0  dtHIT:          0  dtMISS:          0
cpu0_ITLB TRANSLATION  ACCESS:          0  HIT:          0  MISS:          0  iACCESS:          0  iHIT:          0  iMISS:          0  dACCESS:          0  dHIT:          0  dMISS:          0  itACCESS:          0  itHIT:          0  itMISS:          0  dtACCESS:          0  dtHIT:          0  dtMISS:          0
cpu0_ITLB PREFETCH  REQUESTED:          0  ISSUED:          0  CROSSED:          0  USEFUL:     390819  USELESS:      80302
cpu0_ITLB AVERAGE iMISS LATENCY: 10.2031 cycles
cpu0_ITLB AVERAGE dMISS LATENCY: 0 cycles
cpu0_ITLB AVERAGE itMISS LATENCY: 0 cycles
cpu0_ITLB AVERAGE dtMISS LATENCY: 0 cycles
cpu0_ITLB PAGE CROSSINGS (TLB HIT):         0 
cpu0_ITLB PAGE CROSSINGS (TLB MISS):         0 
cpu0_ITLB AVERAGE MISS LATENCY: 10.2031 cycles
cpu0_DTLB TOTAL       ACCESS:   29091723  HIT:   25487328  MISS:    3604395  iACCESS:          0  iHIT:          0  iMISS:          0  dACCESS:   29091723  dHIT:   25487328  dMISS:    3604395  itACCESS:          0  itHIT:          0  itMISS:          0  dtACCESS:          0  dtHIT:          0  dtMISS:          0
cpu0_DTLB LOAD         ACCESS:   29091723  HIT:   25487328  MISS:    3604395  iACCESS:          0  iHIT:          0  iMISS:          0  dACCESS:   29091723  dHIT:   25487328  dMISS:    3604395  itACCESS:          0  itHIT:          0  itMISS:          0  dtACCESS:          0  dtHIT:          0  dtMISS:          0
cpu0_DTLB RFO          ACCESS:          0  HIT:          0  MISS:          0  iACCESS:          0  iHIT:          0  iMISS:          0  dACCESS:          0  dHIT:          0  dMISS:          0  itACCESS:          0  itHIT:          0  itMISS:          0  dtACCESS:          0  dtHIT:          0  dtMISS:          0
cpu0_DTLB PREFETCH     ACCESS:          0  HIT:          0  MISS:          0  iACCESS:          0  iHIT:          0  iMISS:          0  dACCESS:          0  dHIT:          0  dMISS:          0  itACCESS:          0  itHIT:          0  itMISS:          0  dtACCESS:          0  dtHIT:          0  dtMISS:          0
cpu0_DTLB WRITE        ACCESS:          0  HIT:          0  MISS:          0  iACCESS:          0  iHIT:          0  iMISS:          0  dACCESS:          0  dHIT:          0  dMISS:          0  itACCESS:          0  itHIT:          0  itMISS:          0  dtACCESS:          0  dtHIT:          0  dtMISS:          0
cpu0_DTLB TRANSLATION  ACCESS:          0  HIT:          0  MISS:          0  iACCESS:          0  iHIT:          0  iMISS:          0  dACCESS:          0  dHIT:          0  dMISS:          0  itACCESS:          0  itHIT:          0  itMISS:          0  dtACCESS:          0  dtHIT:          0  dtMISS:          0
cpu0_DTLB PREFETCH  REQUESTED:          0  ISSUED:          0  CROSSED:          0  USEFUL:          0  USELESS:          0
cpu0_DTLB AVERAGE iMISS LATENCY: 0 cycles
cpu0_DTLB AVERAGE dMISS LATENCY: 25.14 cycles
cpu0_DTLB AVERAGE itMISS LATENCY: 0 cycles
cpu0_DTLB AVERAGE dtMISS LATENCY: 0 cycles
cpu0_DTLB PAGE CROSSINGS (TLB HIT):         0 
cpu0_DTLB PAGE CROSSINGS (TLB MISS):         0 
cpu0_DTLB AVERAGE MISS LATENCY: 25.14 cycles
cpu0_STLB TOTAL       ACCESS:    2580814  HIT:    2208907  MISS:     371907  iACCESS:     471128  iHIT:     360755  iMISS:     110373  dACCESS:    2109686  dHIT:    1848152  dMISS:     261534  itACCESS:          0  itHIT:          0  itMISS:          0  dtACCESS:          0  dtHIT:          0  dtMISS:          0
cpu0_STLB LOAD         ACCESS:    2580814  HIT:    2208907  MISS:     371907  iACCESS:     471128  iHIT:     360755  iMISS:     110373  dACCESS:    2109686  dHIT:    1848152  dMISS:     261534  itACCESS:          0  itHIT:          0  itMISS:          0  dtACCESS:          0  dtHIT:          0  dtMISS:          0
cpu0_STLB RFO          ACCESS:          0  HIT:          0  MISS:          0  iACCESS:          0  iHIT:          0  iMISS:          0  dACCESS:          0  dHIT:          0  dMISS:          0  itACCESS:          0  itHIT:          0  itMISS:          0  dtACCESS:          0  dtHIT:          0  dtMISS:          0
cpu0_STLB PREFETCH     ACCESS:          0  HIT:          0  MISS:          0  iACCESS:          0  iHIT:          0  iMISS:          0  dACCESS:          0  dHIT:          0  dMISS:          0  itACCESS:          0  itHIT:          0  itMISS:          0  dtACCESS:          0  dtHIT:          0  dtMISS:          0
cpu0_STLB WRITE        ACCESS:          0  HIT:          0  MISS:          0  iACCESS:          0  iHIT:          0  iMISS:          0  dACCESS:          0  dHIT:          0  dMISS:          0  itACCESS:          0  itHIT:          0  itMISS:          0  dtACCESS:          0  dtHIT:          0  dtMISS:          0
cpu0_STLB TRANSLATION  ACCESS:          0  HIT:          0  MISS:          0  iACCESS:          0  iHIT:          0  iMISS:          0  dACCESS:          0  dHIT:          0  dMISS:          0  itACCESS:          0  itHIT:          0  itMISS:          0  dtACCESS:          0  dtHIT:          0  dtMISS:          0
cpu0_STLB PREFETCH  REQUESTED:          0  ISSUED:          0  CROSSED:          0  USEFUL:          0  USELESS:          0
cpu0_STLB AVERAGE iMISS LATENCY: 51.0192 cycles
cpu0_STLB AVERAGE dMISS LATENCY: 197.999 cycles
cpu0_STLB AVERAGE itMISS LATENCY: 0 cycles
cpu0_STLB AVERAGE dtMISS LATENCY: 0 cycles
cpu0_STLB PAGE CROSSINGS (TLB HIT):         0 
cpu0_STLB PAGE CROSSINGS (TLB MISS):         0 
cpu0_STLB AVERAGE MISS LATENCY: 249.018 cycles
cpu0_L1D TOTAL       ACCESS:   44960356  HIT:   39509877  MISS:    5450479  iACCESS:          0  iHIT:          0  iMISS:          0  dACCESS:   44416603  dHIT:   39475222  dMISS:    4941381  itACCESS:     124046  itHIT:      14462  itMISS:     109584  dtACCESS:     419707  dtHIT:      20193  dtMISS:     399514
cpu0_L1D LOAD         ACCESS:   20346958  HIT:   18127625  MISS:    2219333  iACCESS:          0  iHIT:          0  iMISS:          0  dACCESS:   20346958  dHIT:   18127625  dMISS:    2219333  itACCESS:          0  itHIT:          0  itMISS:          0  dtACCESS:          0  dtHIT:          0  dtMISS:          0
cpu0_L1D RFO          ACCESS:          0  HIT:          0  MISS:          0  iACCESS:          0  iHIT:          0  iMISS:          0  dACCESS:          0  dHIT:          0  dMISS:          0  itACCESS:          0  itHIT:          0  itMISS:          0  dtACCESS:          0  dtHIT:          0  dtMISS:          0
cpu0_L1D PREFETCH     ACCESS:   13965061  HIT:   11812848  MISS:    2152213  iACCESS:          0  iHIT:          0  iMISS:          0  dACCESS:   13965061  dHIT:   11812848  dMISS:    2152213  itACCESS:          0  itHIT:          0  itMISS:          0  dtACCESS:          0  dtHIT:          0  dtMISS:          0
cpu0_L1D WRITE        ACCESS:   10104584  HIT:    9534749  MISS:     569835  iACCESS:          0  iHIT:          0  iMISS:          0  dACCESS:   10104584  dHIT:    9534749  dMISS:     569835  itACCESS:          0  itHIT:          0  itMISS:          0  dtACCESS:          0  dtHIT:          0  dtMISS:          0
cpu0_L1D TRANSLATION  ACCESS:     543753  HIT:      34655  MISS:     509098  iACCESS:          0  iHIT:          0  iMISS:          0  dACCESS:          0  dHIT:          0  dMISS:          0  itACCESS:     124046  itHIT:      14462  itMISS:     109584  dtACCESS:     419707  dtHIT:      20193  dtMISS:     399514
cpu0_L1D PREFETCH  REQUESTED:   20346958  ISSUED:   18683571  CROSSED:          0  USEFUL:     377416  USELESS:     950421
cpu0_L1D AVERAGE iMISS LATENCY: 0 cycles
cpu0_L1D AVERAGE dMISS LATENCY: 51.652 cycles
cpu0_L1D AVERAGE itMISS LATENCY: 3.29322 cycles
cpu0_L1D AVERAGE dtMISS LATENCY: 12.531 cycles
cpu0_L1D PAGE CROSSINGS (TLB HIT):         0 
cpu0_L1D PAGE CROSSINGS (TLB MISS):         0 
cpu0_L1D AVERAGE MISS LATENCY: 67.4762 cycles
cpu0_L2C TOTAL       ACCESS:    8643460  HIT:    4223220  MISS:    4420240  iACCESS:    3779283  iHIT:    2295087  iMISS:    1484196  dACCESS:    4382168  dHIT:    1871889  dMISS:    2510279  itACCESS:     109312  itHIT:      18792  itMISS:      90520  dtACCESS:     372697  dtHIT:      37452  dtMISS:     335245
cpu0_L2C LOAD         ACCESS:    2089552  HIT:    1030288  MISS:    1059264  iACCESS:     850127  iHIT:     540955  iMISS:     309172  dACCESS:    1239425  dHIT:     489333  dMISS:     750092  itACCESS:          0  itHIT:          0  itMISS:          0  dtACCESS:          0  dtHIT:          0  dtMISS:          0
cpu0_L2C RFO          ACCESS:     218398  HIT:      89139  MISS:     129259  iACCESS:          0  iHIT:          0  iMISS:          0  dACCESS:     218398  dHIT:      89139  dMISS:     129259  itACCESS:          0  itHIT:          0  itMISS:          0  dtACCESS:          0  dtHIT:          0  dtMISS:          0
cpu0_L2C PREFETCH     ACCESS:    5503497  HIT:    2701526  MISS:    2801971  iACCESS:    2929156  iHIT:    1754132  iMISS:    1175024  dACCESS:    2574341  dHIT:     947394  dMISS:    1626947  itACCESS:          0  itHIT:          0  itMISS:          0  dtACCESS:          0  dtHIT:          0  dtMISS:          0
cpu0_L2C WRITE        ACCESS:     350004  HIT:     346023  MISS:       3981  iACCESS:          0  iHIT:          0  iMISS:          0  dACCESS:     350004  dHIT:     346023  dMISS:       3981  itACCESS:          0  itHIT:          0  itMISS:          0  dtACCESS:          0  dtHIT:          0  dtMISS:          0
cpu0_L2C TRANSLATION  ACCESS:     482009  HIT:      56244  MISS:     425765  iACCESS:          0  iHIT:          0  iMISS:          0  dACCESS:          0  dHIT:          0  dMISS:          0  itACCESS:     109312  itHIT:      18792  itMISS:      90520  dtACCESS:     372697  dtHIT:      37452  dtMISS:     335245
cpu0_L2C PREFETCH  REQUESTED:    1489286  ISSUED:    1489283  CROSSED:          0  USEFUL:     349000  USELESS:     320692
cpu0_L2C AVERAGE iMISS LATENCY: 39.5653 cycles
cpu0_L2C AVERAGE dMISS LATENCY: 78.4501 cycles
cpu0_L2C AVERAGE itMISS LATENCY: 3.81703 cycles
cpu0_L2C AVERAGE dtMISS LATENCY: 14.6117 cycles
cpu0_L2C PAGE CROSSINGS (TLB HIT):         0 
cpu0_L2C PAGE CROSSINGS (TLB MISS):         0 
cpu0_L2C AVERAGE MISS LATENCY: 136.444 cycles
LLC TOTAL       ACCESS:    4426389  HIT:    1405280  MISS:    3021109  iACCESS:    1396932  iHIT:     468804  iMISS:     928128  dACCESS:    2603692  dHIT:     895206  dMISS:    1708486  itACCESS:      90520  itHIT:       6546  itMISS:      83974  dtACCESS:     335245  dtHIT:      34724  dtMISS:     300521
LLC LOAD         ACCESS:    1053375  HIT:     349561  MISS:     703814  iACCESS:     307967  iHIT:     109163  iMISS:     198804  dACCESS:     745408  dHIT:     240398  dMISS:     505010  itACCESS:          0  itHIT:          0  itMISS:          0  dtACCESS:          0  dtHIT:          0  dtMISS:          0
LLC RFO          ACCESS:     129254  HIT:      40442  MISS:      88812  iACCESS:          0  iHIT:          0  iMISS:          0  dACCESS:     129254  dHIT:      40442  dMISS:      88812  itACCESS:          0  itHIT:          0  itMISS:          0  dtACCESS:          0  dtHIT:          0  dtMISS:          0
LLC PREFETCH     ACCESS:    2604304  HIT:     770822  MISS:    1833482  iACCESS:    1088965  iHIT:     359641  iMISS:     729324  dACCESS:    1515339  dHIT:     411181  dMISS:    1104158  itACCESS:          0  itHIT:          0  itMISS:          0  dtACCESS:          0  dtHIT:          0  dtMISS:          0
LLC WRITE        ACCESS:     213691  HIT:     203185  MISS:      10506  iACCESS:          0  iHIT:          0  iMISS:          0  dACCESS:     213691  dHIT:     203185  dMISS:      10506  itACCESS:          0  itHIT:          0  itMISS:          0  dtACCESS:          0  dtHIT:          0  dtMISS:          0
LLC TRANSLATION  ACCESS:     425765  HIT:      41270  MISS:     384495  iACCESS:          0  iHIT:          0  iMISS:          0  dACCESS:          0  dHIT:          0  dMISS:          0  itACCESS:      90520  itHIT:       6546  itMISS:      83974  dtACCESS:     335245  dtHIT:      34724  dtMISS:     300521
LLC PREFETCH  REQUESTED:          0  ISSUED:          0  CROSSED:          0  USEFUL:          0  USELESS:          0
LLC AVERAGE iMISS LATENCY: 48.7866 cycles
LLC AVERAGE dMISS LATENCY: 99.829 cycles
LLC AVERAGE itMISS LATENCY: 4.99052 cycles
LLC AVERAGE dtMISS LATENCY: 19.1845 cycles
LLC PAGE CROSSINGS (TLB HIT):         0 
LLC PAGE CROSSINGS (TLB MISS):         0 
LLC AVERAGE MISS LATENCY: 172.791 cycles

PageTableWalker TOTAL       ACCESS:     180678  
PageTableWalker AVERAGE LATENCY: 6.5983 cycles
PageTableWalker TOTAL LATENCY: 1192166 cycles

DRAM Statistics
Channel 0
 RQ ROW_BUFFER_HIT:     627244
  ROW_BUFFER_MISS:    2373586
 AVG DBUS CONGESTED CYCLE:    3.64686
 WQ ROW_BUFFER_HIT:      65172
  ROW_BUFFER_MISS:      54842  FULL:          0

