last_page:0x200000000000000
VMEM_RES_CAP:0x100000
PAGE_SIZE:4096
LOG2_PAGE_SIZE:12
LOG2_PAGE_TABLE_SIZE:9
page_table_levels:5
WARNING: physical memory size is smaller than virtual memory size
FDiP enabled with aggresivity 16

*** ChampSim Multicore Out-of-Order Simulator ***

Warmup Instructions: 50000000
Simulation Instructions: 100000000
Number of CPUs: 1
Small page size: 4096
Large page size: 2097152

CPU 0 Bimodal branch predictor
Basic BTB sets: 1024 ways: 8 indirect buffer size: 4096 RAS size: 64
Instruction page size distrubution: 0
Loading instruction page size distribution from /home/bsc/bsc018186/scratch/itp_asplos25_AE/dump/smt_srv537_ap_srv346_ap_1024i.pdst
Data page size distrubution: 0
Loading data page size distribution from /home/bsc/bsc018186/scratch/itp_asplos25_AE/dump/smt_srv537_ap_srv346_ap_1024i.pdst
cpu0_L2C IP-based stride prefetcher
cpu0_L2C is using PTP replacement policy:
	TLB_STRESS_THRESHOLD:0
	PTE_EVICTION_RATIO:0
cpu0_L1D next line prefetcher
cpu0_STLB using iTP with max lru@8
cpu0_STLB using iTP with instr@0 and data@2
Init sat counter with 3 bits (max:50).
cpu0_L1I next line prefetcher
Off-chip DRAM Size: 4 GiB Channels: 1 Width: 64-bit Data Rate: 3200 MT/s
Heartbeat CPU 0 instructions: 10000003 cycles: 2500304 heartbeat IPC: 3.99952 cumulative IPC: 3.99952 (Simulation time: 0 hr 0 min 36 sec) 
Heartbeat CPU 0 instructions: 20000001 cycles: 5000392 heartbeat IPC: 3.99986 cumulative IPC: 3.99969 (Simulation time: 0 hr 1 min 15 sec) 
Heartbeat CPU 0 instructions: 30000001 cycles: 7500412 heartbeat IPC: 3.99997 cumulative IPC: 3.99979 (Simulation time: 0 hr 1 min 53 sec) 
Heartbeat CPU 0 instructions: 40000003 cycles: 10000482 heartbeat IPC: 3.99989 cumulative IPC: 3.99981 (Simulation time: 0 hr 2 min 32 sec) 
Heartbeat CPU 0 instructions: 50000000 cycles: 12500536 heartbeat IPC: 3.99992 cumulative IPC: 3.99983 (Simulation time: 0 hr 3 min 11 sec) 
Warmup finished CPU 0 instructions: 50000000 cycles: 12500537 cumulative IPC: 3.99983 (Simulation time: 0 hr 3 min 11 sec) 

Warmup complete CPU 0 instructions: 50000000 cycles: 12500537 (Simulation time: 0 hr 3 min 11 sec) 

Heartbeat CPU 0 instructions: 60000000 cycles: 40810745 heartbeat IPC: 0.35323 cumulative IPC: 0.35323 (Simulation time: 0 hr 4 min 30 sec) 
Heartbeat CPU 0 instructions: 70000003 cycles: 69367262 heartbeat IPC: 0.350183 cumulative IPC: 0.3517 (Simulation time: 0 hr 5 min 49 sec) 
Heartbeat CPU 0 instructions: 80000003 cycles: 97758675 heartbeat IPC: 0.35222 cumulative IPC: 0.351873 (Simulation time: 0 hr 7 min 8 sec) 
Heartbeat CPU 0 instructions: 90000000 cycles: 124734104 heartbeat IPC: 0.370708 cumulative IPC: 0.3564 (Simulation time: 0 hr 8 min 25 sec) 
Heartbeat CPU 0 instructions: 100000003 cycles: 152986767 heartbeat IPC: 0.35395 cumulative IPC: 0.355907 (Simulation time: 0 hr 9 min 44 sec) 
Heartbeat CPU 0 instructions: 110000001 cycles: 182411781 heartbeat IPC: 0.339847 cumulative IPC: 0.353126 (Simulation time: 0 hr 11 min 5 sec) 
Heartbeat CPU 0 instructions: 120000000 cycles: 210410328 heartbeat IPC: 0.357162 cumulative IPC: 0.353697 (Simulation time: 0 hr 12 min 24 sec) 
Heartbeat CPU 0 instructions: 130000002 cycles: 238125681 heartbeat IPC: 0.360811 cumulative IPC: 0.354571 (Simulation time: 0 hr 13 min 42 sec) 
Heartbeat CPU 0 instructions: 140000003 cycles: 266652403 heartbeat IPC: 0.350549 cumulative IPC: 0.354119 (Simulation time: 0 hr 15 min 1 sec) 
Heartbeat CPU 0 instructions: 150000002 cycles: 295221392 heartbeat IPC: 0.35003 cumulative IPC: 0.353706 (Simulation time: 0 hr 16 min 20 sec) 
Simulation finished CPU 0 instructions: 100000002 cycles: 282720856 cumulative IPC: 0.353706 (Simulation time: 0 hr 16 min 20 sec) 

Simulation complete CPU 0 instructions: 100000002 cycles: 282720856 (Simulation time: 0 hr 16 min 20 sec) 


ChampSim completed all CPUs

Saving instructions large page distribution to /home/bsc/bsc018186/scratch/itp_asplos25_AE/dump/smt_srv537_ap_srv346_ap_1024i.pdst...
Saving data large page distribution to /home/bsc/bsc018186/scratch/itp_asplos25_AE/dump/smt_srv537_ap_srv346_ap_1024i.pdst...
=== Simulation ===
CPU 0 runs /gpfs/projects/bsc18/MN4/bsc18/romol/ChampSim/traces/qualcomm_srv/smt_srv537_ap_srv346_ap_1024i.champsimtrace.xz

Region of Interest Statistics

CPU 0 cumulative IPC: 0.353706 instructions: 100000002 cycles: 282720856
CPU 0 Branch Prediction Accuracy: 76.0378% MPKI: 43.1546 Average ROB Occupancy at Mispredict: 11.3248
Branch type MPKI
BRANCH_DIRECT_JUMP: 1.29275
BRANCH_INDIRECT: 22.4335
BRANCH_CONDITIONAL: 12.5778
BRANCH_DIRECT_CALL: 2.48923
BRANCH_INDIRECT_CALL: 0.93622
BRANCH_RETURN: 3.4251

Instructions large pages: 0
Instructions small pages: 13507
Large page distribution for instructions: 0%

Data large pages: 0
Data small pages: 12202
Large page distribution for data: 0%

cpu0_L1I TOTAL       ACCESS:   39076014  HIT:   30337113  MISS:    8738901  iACCESS:   39076014  iHIT:   30337113  iMISS:    8738901  dACCESS:          0  dHIT:          0  dMISS:          0  itACCESS:          0  itHIT:          0  itMISS:          0  dtACCESS:          0  dtHIT:          0  dtMISS:          0
cpu0_L1I LOAD         ACCESS:   11747929  HIT:    9361987  MISS:    2385942  iACCESS:   11747929  iHIT:    9361987  iMISS:    2385942  dACCESS:          0  dHIT:          0  dMISS:          0  itACCESS:          0  itHIT:          0  itMISS:          0  dtACCESS:          0  dtHIT:          0  dtMISS:          0
cpu0_L1I RFO          ACCESS:          0  HIT:          0  MISS:          0  iACCESS:          0  iHIT:          0  iMISS:          0  dACCESS:          0  dHIT:          0  dMISS:          0  itACCESS:          0  itHIT:          0  itMISS:          0  dtACCESS:          0  dtHIT:          0  dtMISS:          0
cpu0_L1I PREFETCH     ACCESS:   27328085  HIT:   20975126  MISS:    6352959  iACCESS:   27328085  iHIT:   20975126  iMISS:    6352959  dACCESS:          0  dHIT:          0  dMISS:          0  itACCESS:          0  itHIT:          0  itMISS:          0  dtACCESS:          0  dtHIT:          0  dtMISS:          0
cpu0_L1I WRITE        ACCESS:          0  HIT:          0  MISS:          0  iACCESS:          0  iHIT:          0  iMISS:          0  dACCESS:          0  dHIT:          0  dMISS:          0  itACCESS:          0  itHIT:          0  itMISS:          0  dtACCESS:          0  dtHIT:          0  dtMISS:          0
cpu0_L1I TRANSLATION  ACCESS:          0  HIT:          0  MISS:          0  iACCESS:          0  iHIT:          0  iMISS:          0  dACCESS:          0  dHIT:          0  dMISS:          0  itACCESS:          0  itHIT:          0  itMISS:          0  dtACCESS:          0  dtHIT:          0  dtMISS:          0
cpu0_L1I PREFETCH  REQUESTED:   30203699  ISSUED:   30203565  CROSSED:          0  USEFUL:    2205875  USELESS:     755520
cpu0_L1I AVERAGE iMISS LATENCY: 22.8271 cycles
cpu0_L1I AVERAGE dMISS LATENCY: 0 cycles
cpu0_L1I AVERAGE itMISS LATENCY: 0 cycles
cpu0_L1I AVERAGE dtMISS LATENCY: 0 cycles
cpu0_L1I PAGE CROSSINGS (TLB HIT):         0 
cpu0_L1I PAGE CROSSINGS (TLB MISS):         0 
cpu0_L1I AVERAGE MISS LATENCY: 22.8271 cycles
cpu0_ITLB TOTAL       ACCESS:   32980566  HIT:   30779919  MISS:    2200647  iACCESS:   32980566  iHIT:   30779919  iMISS:    2200647  dACCESS:          0  dHIT:          0  dMISS:          0  itACCESS:          0  itHIT:          0  itMISS:          0  dtACCESS:          0  dtHIT:          0  dtMISS:          0
cpu0_ITLB LOAD         ACCESS:   32980566  HIT:   30779919  MISS:    2200647  iACCESS:   32980566  iHIT:   30779919  iMISS:    2200647  dACCESS:          0  dHIT:          0  dMISS:          0  itACCESS:          0  itHIT:          0  itMISS:          0  dtACCESS:          0  dtHIT:          0  dtMISS:          0
cpu0_ITLB RFO          ACCESS:          0  HIT:          0  MISS:          0  iACCESS:          0  iHIT:          0  iMISS:          0  dACCESS:          0  dHIT:          0  dMISS:          0  itACCESS:          0  itHIT:          0  itMISS:          0  dtACCESS:          0  dtHIT:          0  dtMISS:          0
cpu0_ITLB PREFETCH     ACCESS:          0  HIT:          0  MISS:          0  iACCESS:          0  iHIT:          0  iMISS:          0  dACCESS:          0  dHIT:          0  dMISS:          0  itACCESS:          0  itHIT:          0  itMISS:          0  dtACCESS:          0  dtHIT:          0  dtMISS:          0
cpu0_ITLB WRITE        ACCESS:          0  HIT:          0  MISS:          0  iACCESS:          0  iHIT:          0  iMISS:          0  dACCESS:          0  dHIT:          0  dMISS:          0  itACCESS:          0  itHIT:          0  itMISS:          0  dtACCESS:          0  dtHIT:          0  dtMISS:          0
cpu0_ITLB TRANSLATION  ACCESS:          0  HIT:          0  MISS:          0  iACCESS:          0  iHIT:          0  iMISS:          0  dACCESS:          0  dHIT:          0  dMISS:          0  itACCESS:          0  itHIT:          0  itMISS:          0  dtACCESS:          0  dtHIT:          0  dtMISS:          0
cpu0_ITLB PREFETCH  REQUESTED:          0  ISSUED:          0  CROSSED:          0  USEFUL:     384202  USELESS:      77382
cpu0_ITLB AVERAGE iMISS LATENCY: 5.94842 cycles
cpu0_ITLB AVERAGE dMISS LATENCY: 0 cycles
cpu0_ITLB AVERAGE itMISS LATENCY: 0 cycles
cpu0_ITLB AVERAGE dtMISS LATENCY: 0 cycles
cpu0_ITLB PAGE CROSSINGS (TLB HIT):         0 
cpu0_ITLB PAGE CROSSINGS (TLB MISS):         0 
cpu0_ITLB AVERAGE MISS LATENCY: 5.94842 cycles
cpu0_DTLB TOTAL       ACCESS:   28739178  HIT:   25309363  MISS:    3429815  iACCESS:          0  iHIT:          0  iMISS:          0  dACCESS:   28739178  dHIT:   25309363  dMISS:    3429815  itACCESS:          0  itHIT:          0  itMISS:          0  dtACCESS:          0  dtHIT:          0  dtMISS:          0
cpu0_DTLB LOAD         ACCESS:   28739178  HIT:   25309363  MISS:    3429815  iACCESS:          0  iHIT:          0  iMISS:          0  dACCESS:   28739178  dHIT:   25309363  dMISS:    3429815  itACCESS:          0  itHIT:          0  itMISS:          0  dtACCESS:          0  dtHIT:          0  dtMISS:          0
cpu0_DTLB RFO          ACCESS:          0  HIT:          0  MISS:          0  iACCESS:          0  iHIT:          0  iMISS:          0  dACCESS:          0  dHIT:          0  dMISS:          0  itACCESS:          0  itHIT:          0  itMISS:          0  dtACCESS:          0  dtHIT:          0  dtMISS:          0
cpu0_DTLB PREFETCH     ACCESS:          0  HIT:          0  MISS:          0  iACCESS:          0  iHIT:          0  iMISS:          0  dACCESS:          0  dHIT:          0  dMISS:          0  itACCESS:          0  itHIT:          0  itMISS:          0  dtACCESS:          0  dtHIT:          0  dtMISS:          0
cpu0_DTLB WRITE        ACCESS:          0  HIT:          0  MISS:          0  iACCESS:          0  iHIT:          0  iMISS:          0  dACCESS:          0  dHIT:          0  dMISS:          0  itACCESS:          0  itHIT:          0  itMISS:          0  dtACCESS:          0  dtHIT:          0  dtMISS:          0
cpu0_DTLB TRANSLATION  ACCESS:          0  HIT:          0  MISS:          0  iACCESS:          0  iHIT:          0  iMISS:          0  dACCESS:          0  dHIT:          0  dMISS:          0  itACCESS:          0  itHIT:          0  itMISS:          0  dtACCESS:          0  dtHIT:          0  dtMISS:          0
cpu0_DTLB PREFETCH  REQUESTED:          0  ISSUED:          0  CROSSED:          0  USEFUL:          0  USELESS:          0
cpu0_DTLB AVERAGE iMISS LATENCY: 0 cycles
cpu0_DTLB AVERAGE dMISS LATENCY: 27.0567 cycles
cpu0_DTLB AVERAGE itMISS LATENCY: 0 cycles
cpu0_DTLB AVERAGE dtMISS LATENCY: 0 cycles
cpu0_DTLB PAGE CROSSINGS (TLB HIT):         0 
cpu0_DTLB PAGE CROSSINGS (TLB MISS):         0 
cpu0_DTLB AVERAGE MISS LATENCY: 27.0567 cycles
cpu0_STLB TOTAL       ACCESS:    2413963  HIT:    2068757  MISS:     345206  iACCESS:     461591  iHIT:     412036  iMISS:      49555  dACCESS:    1952372  dHIT:    1656721  dMISS:     295651  itACCESS:          0  itHIT:          0  itMISS:          0  dtACCESS:          0  dtHIT:          0  dtMISS:          0
cpu0_STLB LOAD         ACCESS:    2413963  HIT:    2068757  MISS:     345206  iACCESS:     461591  iHIT:     412036  iMISS:      49555  dACCESS:    1952372  dHIT:    1656721  dMISS:     295651  itACCESS:          0  itHIT:          0  itMISS:          0  dtACCESS:          0  dtHIT:          0  dtMISS:          0
cpu0_STLB RFO          ACCESS:          0  HIT:          0  MISS:          0  iACCESS:          0  iHIT:          0  iMISS:          0  dACCESS:          0  dHIT:          0  dMISS:          0  itACCESS:          0  itHIT:          0  itMISS:          0  dtACCESS:          0  dtHIT:          0  dtMISS:          0
cpu0_STLB PREFETCH     ACCESS:          0  HIT:          0  MISS:          0  iACCESS:          0  iHIT:          0  iMISS:          0  dACCESS:          0  dHIT:          0  dMISS:          0  itACCESS:          0  itHIT:          0  itMISS:          0  dtACCESS:          0  dtHIT:          0  dtMISS:          0
cpu0_STLB WRITE        ACCESS:          0  HIT:          0  MISS:          0  iACCESS:          0  iHIT:          0  iMISS:          0  dACCESS:          0  dHIT:          0  dMISS:          0  itACCESS:          0  itHIT:          0  itMISS:          0  dtACCESS:          0  dtHIT:          0  dtMISS:          0
cpu0_STLB TRANSLATION  ACCESS:          0  HIT:          0  MISS:          0  iACCESS:          0  iHIT:          0  iMISS:          0  dACCESS:          0  dHIT:          0  dMISS:          0  itACCESS:          0  itHIT:          0  itMISS:          0  dtACCESS:          0  dtHIT:          0  dtMISS:          0
cpu0_STLB PREFETCH  REQUESTED:          0  ISSUED:          0  CROSSED:          0  USEFUL:          0  USELESS:          0
cpu0_STLB AVERAGE iMISS LATENCY: 27.4323 cycles
cpu0_STLB AVERAGE dMISS LATENCY: 223.214 cycles
cpu0_STLB AVERAGE itMISS LATENCY: 0 cycles
cpu0_STLB AVERAGE dtMISS LATENCY: 0 cycles
cpu0_STLB PAGE CROSSINGS (TLB HIT):         0 
cpu0_STLB PAGE CROSSINGS (TLB MISS):         0 
cpu0_STLB AVERAGE MISS LATENCY: 250.647 cycles
cpu0_L1D TOTAL       ACCESS:   44325218  HIT:   39065462  MISS:    5259756  iACCESS:          0  iHIT:          0  iMISS:          0  dACCESS:   43783410  dHIT:   39037693  dMISS:    4745717  itACCESS:      59022  itHIT:       4998  itMISS:      54024  dtACCESS:     482786  dtHIT:      22771  dtMISS:     460015
cpu0_L1D LOAD         ACCESS:   19965988  HIT:   17848116  MISS:    2117872  iACCESS:          0  iHIT:          0  iMISS:          0  dACCESS:   19965988  dHIT:   17848116  dMISS:    2117872  itACCESS:          0  itHIT:          0  itMISS:          0  dtACCESS:          0  dtHIT:          0  dtMISS:          0
cpu0_L1D RFO          ACCESS:          0  HIT:          0  MISS:          0  iACCESS:          0  iHIT:          0  iMISS:          0  dACCESS:          0  dHIT:          0  dMISS:          0  itACCESS:          0  itHIT:          0  itMISS:          0  dtACCESS:          0  dtHIT:          0  dtMISS:          0
cpu0_L1D PREFETCH     ACCESS:   13654504  HIT:   11567748  MISS:    2086756  iACCESS:          0  iHIT:          0  iMISS:          0  dACCESS:   13654504  dHIT:   11567748  dMISS:    2086756  itACCESS:          0  itHIT:          0  itMISS:          0  dtACCESS:          0  dtHIT:          0  dtMISS:          0
cpu0_L1D WRITE        ACCESS:   10162918  HIT:    9621829  MISS:     541089  iACCESS:          0  iHIT:          0  iMISS:          0  dACCESS:   10162918  dHIT:    9621829  dMISS:     541089  itACCESS:          0  itHIT:          0  itMISS:          0  dtACCESS:          0  dtHIT:          0  dtMISS:          0
cpu0_L1D TRANSLATION  ACCESS:     541808  HIT:      27769  MISS:     514039  iACCESS:          0  iHIT:          0  iMISS:          0  dACCESS:          0  dHIT:          0  dMISS:          0  itACCESS:      59022  itHIT:       4998  itMISS:      54024  dtACCESS:     482786  dtHIT:      22771  dtMISS:     460015
cpu0_L1D PREFETCH  REQUESTED:   19965988  ISSUED:   18233464  CROSSED:          0  USEFUL:     370965  USELESS:     908514
cpu0_L1D AVERAGE iMISS LATENCY: 0 cycles
cpu0_L1D AVERAGE dMISS LATENCY: 50.2168 cycles
cpu0_L1D AVERAGE itMISS LATENCY: 1.69816 cycles
cpu0_L1D AVERAGE dtMISS LATENCY: 13.5358 cycles
cpu0_L1D PAGE CROSSINGS (TLB HIT):         0 
cpu0_L1D PAGE CROSSINGS (TLB MISS):         0 
cpu0_L1D AVERAGE MISS LATENCY: 65.4507 cycles
cpu0_L2C TOTAL       ACCESS:    8542714  HIT:    3975397  MISS:    4567317  iACCESS:    3769808  iHIT:    2194309  iMISS:    1575499  dACCESS:    4290709  dHIT:    1704883  dMISS:    2585826  itACCESS:      53975  itHIT:       8151  itMISS:      45824  dtACCESS:     428222  dtHIT:      68054  dtMISS:     360168
cpu0_L2C LOAD         ACCESS:    2038937  HIT:     939017  MISS:    1099920  iACCESS:     846226  iHIT:     508553  iMISS:     337673  dACCESS:    1192711  dHIT:     430464  dMISS:     762247  itACCESS:          0  itHIT:          0  itMISS:          0  dtACCESS:          0  dtHIT:          0  dtMISS:          0
cpu0_L2C RFO          ACCESS:     209118  HIT:      75239  MISS:     133879  iACCESS:          0  iHIT:          0  iMISS:          0  dACCESS:     209118  dHIT:      75239  dMISS:     133879  itACCESS:          0  itHIT:          0  itMISS:          0  dtACCESS:          0  dtHIT:          0  dtMISS:          0
cpu0_L2C PREFETCH     ACCESS:    5467002  HIT:    2568931  MISS:    2898071  iACCESS:    2923582  iHIT:    1685756  iMISS:    1237826  dACCESS:    2543420  dHIT:     883175  dMISS:    1660245  itACCESS:          0  itHIT:          0  itMISS:          0  dtACCESS:          0  dtHIT:          0  dtMISS:          0
cpu0_L2C WRITE        ACCESS:     345460  HIT:     316005  MISS:      29455  iACCESS:          0  iHIT:          0  iMISS:          0  dACCESS:     345460  dHIT:     316005  dMISS:      29455  itACCESS:          0  itHIT:          0  itMISS:          0  dtACCESS:          0  dtHIT:          0  dtMISS:          0
cpu0_L2C TRANSLATION  ACCESS:     482197  HIT:      76205  MISS:     405992  iACCESS:          0  iHIT:          0  iMISS:          0  dACCESS:          0  dHIT:          0  dMISS:          0  itACCESS:      53975  itHIT:       8151  itMISS:      45824  dtACCESS:     428222  dtHIT:      68054  dtMISS:     360168
cpu0_L2C PREFETCH  REQUESTED:    1508316  ISSUED:    1508316  CROSSED:          0  USEFUL:     364420  USELESS:     329899
cpu0_L2C AVERAGE iMISS LATENCY: 36.6335 cycles
cpu0_L2C AVERAGE dMISS LATENCY: 71.8927 cycles
cpu0_L2C AVERAGE itMISS LATENCY: 1.83889 cycles
cpu0_L2C AVERAGE dtMISS LATENCY: 14.6597 cycles
cpu0_L2C PAGE CROSSINGS (TLB HIT):         0 
cpu0_L2C PAGE CROSSINGS (TLB MISS):         0 
cpu0_L2C AVERAGE MISS LATENCY: 125.025 cycles
LLC TOTAL       ACCESS:    4549252  HIT:    1705602  MISS:    2843650  iACCESS:    1483644  iHIT:     609302  iMISS:     874342  dACCESS:    2659616  dHIT:    1043522  dMISS:    1616094  itACCESS:      45824  itHIT:       3837  itMISS:      41987  dtACCESS:     360168  dtHIT:      48941  dtMISS:     311227
LLC LOAD         ACCESS:    1094989  HIT:     444514  MISS:     650475  iACCESS:     336397  iHIT:     151501  iMISS:     184896  dACCESS:     758592  dHIT:     293013  dMISS:     465579  itACCESS:          0  itHIT:          0  itMISS:          0  dtACCESS:          0  dtHIT:          0  dtMISS:          0
LLC RFO          ACCESS:     133873  HIT:      48527  MISS:      85346  iACCESS:          0  iHIT:          0  iMISS:          0  dACCESS:     133873  dHIT:      48527  dMISS:      85346  itACCESS:          0  itHIT:          0  itMISS:          0  dtACCESS:          0  dtHIT:          0  dtMISS:          0
LLC PREFETCH     ACCESS:    2691791  HIT:     946723  MISS:    1745068  iACCESS:    1147247  iHIT:     457801  iMISS:     689446  dACCESS:    1544544  dHIT:     488922  dMISS:    1055622  itACCESS:          0  itHIT:          0  itMISS:          0  dtACCESS:          0  dtHIT:          0  dtMISS:          0
LLC WRITE        ACCESS:     222607  HIT:     213060  MISS:       9547  iACCESS:          0  iHIT:          0  iMISS:          0  dACCESS:     222607  dHIT:     213060  dMISS:       9547  itACCESS:          0  itHIT:          0  itMISS:          0  dtACCESS:          0  dtHIT:          0  dtMISS:          0
LLC TRANSLATION  ACCESS:     405992  HIT:      52778  MISS:     353214  iACCESS:          0  iHIT:          0  iMISS:          0  dACCESS:          0  dHIT:          0  dMISS:          0  itACCESS:      45824  itHIT:       3837  itMISS:      41987  dtACCESS:     360168  dtHIT:      48941  dtMISS:     311227
LLC PREFETCH  REQUESTED:          0  ISSUED:          0  CROSSED:          0  USEFUL:          0  USELESS:          0
LLC AVERAGE iMISS LATENCY: 48.5995 cycles
LLC AVERAGE dMISS LATENCY: 99.218 cycles
LLC AVERAGE itMISS LATENCY: 2.63411 cycles
LLC AVERAGE dtMISS LATENCY: 21.043 cycles
LLC PAGE CROSSINGS (TLB HIT):         0 
LLC PAGE CROSSINGS (TLB MISS):         0 
LLC AVERAGE MISS LATENCY: 171.495 cycles

PageTableWalker TOTAL       ACCESS:     165978  
PageTableWalker AVERAGE LATENCY: 6.68661 cycles
PageTableWalker TOTAL LATENCY: 1109829 cycles

DRAM Statistics
Channel 0
 RQ ROW_BUFFER_HIT:     613060
  ROW_BUFFER_MISS:    2211487
 AVG DBUS CONGESTED CYCLE:    3.64855
 WQ ROW_BUFFER_HIT:      63362
  ROW_BUFFER_MISS:      54782  FULL:          0

