last_page:0x200000000000000
VMEM_RES_CAP:0x100000
PAGE_SIZE:4096
LOG2_PAGE_SIZE:12
LOG2_PAGE_TABLE_SIZE:9
page_table_levels:5
WARNING: physical memory size is smaller than virtual memory size
FDiP enabled with aggresivity 16

*** ChampSim Multicore Out-of-Order Simulator ***

Warmup Instructions: 50000000
Simulation Instructions: 100000000
Number of CPUs: 1
Small page size: 4096
Large page size: 2097152

CPU 0 Bimodal branch predictor
Basic BTB sets: 1024 ways: 8 indirect buffer size: 4096 RAS size: 64
Instruction page size distrubution: 0
Loading instruction page size distribution from /home/bsc/bsc018186/scratch/itp_asplos25_AE/dump/smt_srv85_ap_srv582_ap_1024i.pdst
Data page size distrubution: 0
Loading data page size distribution from /home/bsc/bsc018186/scratch/itp_asplos25_AE/dump/smt_srv85_ap_srv582_ap_1024i.pdst
cpu0_L2C IP-based stride prefetcher
cpu0_L1D next line prefetcher
cpu0_L1I next line prefetcher
Off-chip DRAM Size: 4 GiB Channels: 1 Width: 64-bit Data Rate: 3200 MT/s
Heartbeat CPU 0 instructions: 10000001 cycles: 2500529 heartbeat IPC: 3.99916 cumulative IPC: 3.99916 (Simulation time: 0 hr 0 min 40 sec) 
Heartbeat CPU 0 instructions: 20000002 cycles: 5000807 heartbeat IPC: 3.99956 cumulative IPC: 3.99936 (Simulation time: 0 hr 1 min 21 sec) 
Heartbeat CPU 0 instructions: 30000000 cycles: 7501281 heartbeat IPC: 3.99925 cumulative IPC: 3.99932 (Simulation time: 0 hr 2 min 4 sec) 
Heartbeat CPU 0 instructions: 40000003 cycles: 10001932 heartbeat IPC: 3.99896 cumulative IPC: 3.99923 (Simulation time: 0 hr 2 min 50 sec) 
Heartbeat CPU 0 instructions: 50000000 cycles: 12502379 heartbeat IPC: 3.99929 cumulative IPC: 3.99924 (Simulation time: 0 hr 3 min 39 sec) 
Warmup finished CPU 0 instructions: 50000000 cycles: 12502380 cumulative IPC: 3.99924 (Simulation time: 0 hr 3 min 39 sec) 

Warmup complete CPU 0 instructions: 50000000 cycles: 12502380 (Simulation time: 0 hr 3 min 39 sec) 

Heartbeat CPU 0 instructions: 60000002 cycles: 40571482 heartbeat IPC: 0.356264 cumulative IPC: 0.356264 (Simulation time: 0 hr 5 min 18 sec) 
Heartbeat CPU 0 instructions: 70000000 cycles: 69583552 heartbeat IPC: 0.344685 cumulative IPC: 0.350379 (Simulation time: 0 hr 6 min 57 sec) 
Heartbeat CPU 0 instructions: 80000000 cycles: 97575440 heartbeat IPC: 0.357247 cumulative IPC: 0.352639 (Simulation time: 0 hr 8 min 36 sec) 
Heartbeat CPU 0 instructions: 90000002 cycles: 126028352 heartbeat IPC: 0.351458 cumulative IPC: 0.352343 (Simulation time: 0 hr 10 min 14 sec) 
Heartbeat CPU 0 instructions: 100000000 cycles: 154679653 heartbeat IPC: 0.349025 cumulative IPC: 0.351674 (Simulation time: 0 hr 11 min 53 sec) 
Heartbeat CPU 0 instructions: 110000004 cycles: 183332153 heartbeat IPC: 0.34901 cumulative IPC: 0.351227 (Simulation time: 0 hr 13 min 33 sec) 
Heartbeat CPU 0 instructions: 120000004 cycles: 211594950 heartbeat IPC: 0.353823 cumulative IPC: 0.351596 (Simulation time: 0 hr 15 min 10 sec) 
Heartbeat CPU 0 instructions: 130000000 cycles: 240094588 heartbeat IPC: 0.350882 cumulative IPC: 0.351506 (Simulation time: 0 hr 16 min 50 sec) 
Heartbeat CPU 0 instructions: 140000004 cycles: 268360911 heartbeat IPC: 0.353779 cumulative IPC: 0.351757 (Simulation time: 0 hr 18 min 29 sec) 
Heartbeat CPU 0 instructions: 150000002 cycles: 296503362 heartbeat IPC: 0.355336 cumulative IPC: 0.352112 (Simulation time: 0 hr 20 min 6 sec) 
Simulation finished CPU 0 instructions: 100000002 cycles: 284000983 cumulative IPC: 0.352112 (Simulation time: 0 hr 20 min 6 sec) 

Simulation complete CPU 0 instructions: 100000002 cycles: 284000983 (Simulation time: 0 hr 20 min 6 sec) 


ChampSim completed all CPUs

Saving instructions large page distribution to /home/bsc/bsc018186/scratch/itp_asplos25_AE/dump/smt_srv85_ap_srv582_ap_1024i.pdst...
Saving data large page distribution to /home/bsc/bsc018186/scratch/itp_asplos25_AE/dump/smt_srv85_ap_srv582_ap_1024i.pdst...
=== Simulation ===
CPU 0 runs /gpfs/projects/bsc18/MN4/bsc18/romol/ChampSim/traces/qualcomm_srv/smt_srv85_ap_srv582_ap_1024i.champsimtrace.xz

Region of Interest Statistics

CPU 0 cumulative IPC: 0.352112 instructions: 100000002 cycles: 284000983
CPU 0 Branch Prediction Accuracy: 75.0525% MPKI: 44.971 Average ROB Occupancy at Mispredict: 10.4438
Branch type MPKI
BRANCH_DIRECT_JUMP: 1.39299
BRANCH_INDIRECT: 23.3201
BRANCH_CONDITIONAL: 13.0416
BRANCH_DIRECT_CALL: 2.67026
BRANCH_INDIRECT_CALL: 1.01656
BRANCH_RETURN: 3.52954

Instructions large pages: 0
Instructions small pages: 9946
Large page distribution for instructions: 0%

Data large pages: 0
Data small pages: 8571
Large page distribution for data: 0%

cpu0_L1I TOTAL       ACCESS:   39646929  HIT:   30349933  MISS:    9296996  iACCESS:   39646929  iHIT:   30349933  iMISS:    9296996  dACCESS:          0  dHIT:          0  dMISS:          0  itACCESS:          0  itHIT:          0  itMISS:          0  dtACCESS:          0  dtHIT:          0  dtMISS:          0
cpu0_L1I LOAD         ACCESS:   11833338  HIT:    9310960  MISS:    2522378  iACCESS:   11833338  iHIT:    9310960  iMISS:    2522378  dACCESS:          0  dHIT:          0  dMISS:          0  itACCESS:          0  itHIT:          0  itMISS:          0  dtACCESS:          0  dtHIT:          0  dtMISS:          0
cpu0_L1I RFO          ACCESS:          0  HIT:          0  MISS:          0  iACCESS:          0  iHIT:          0  iMISS:          0  dACCESS:          0  dHIT:          0  dMISS:          0  itACCESS:          0  itHIT:          0  itMISS:          0  dtACCESS:          0  dtHIT:          0  dtMISS:          0
cpu0_L1I PREFETCH     ACCESS:   27813591  HIT:   21038973  MISS:    6774618  iACCESS:   27813591  iHIT:   21038973  iMISS:    6774618  dACCESS:          0  dHIT:          0  dMISS:          0  itACCESS:          0  itHIT:          0  itMISS:          0  dtACCESS:          0  dtHIT:          0  dtMISS:          0
cpu0_L1I WRITE        ACCESS:          0  HIT:          0  MISS:          0  iACCESS:          0  iHIT:          0  iMISS:          0  dACCESS:          0  dHIT:          0  dMISS:          0  itACCESS:          0  itHIT:          0  itMISS:          0  dtACCESS:          0  dtHIT:          0  dtMISS:          0
cpu0_L1I TRANSLATION  ACCESS:          0  HIT:          0  MISS:          0  iACCESS:          0  iHIT:          0  iMISS:          0  dACCESS:          0  dHIT:          0  dMISS:          0  itACCESS:          0  itHIT:          0  itMISS:          0  dtACCESS:          0  dtHIT:          0  dtMISS:          0
cpu0_L1I PREFETCH  REQUESTED:   30400796  ISSUED:   30399127  CROSSED:          0  USEFUL:    2224832  USELESS:     772717
cpu0_L1I AVERAGE iMISS LATENCY: 24.6495 cycles
cpu0_L1I AVERAGE dMISS LATENCY: 0 cycles
cpu0_L1I AVERAGE itMISS LATENCY: 0 cycles
cpu0_L1I AVERAGE dtMISS LATENCY: 0 cycles
cpu0_L1I PAGE CROSSINGS (TLB HIT):         0 
cpu0_L1I PAGE CROSSINGS (TLB MISS):         0 
cpu0_L1I AVERAGE MISS LATENCY: 24.6495 cycles
cpu0_ITLB TOTAL       ACCESS:   33347238  HIT:   31093092  MISS:    2254146  iACCESS:   33347238  iHIT:   31093092  iMISS:    2254146  dACCESS:          0  dHIT:          0  dMISS:          0  itACCESS:          0  itHIT:          0  itMISS:          0  dtACCESS:          0  dtHIT:          0  dtMISS:          0
cpu0_ITLB LOAD         ACCESS:   33347238  HIT:   31093092  MISS:    2254146  iACCESS:   33347238  iHIT:   31093092  iMISS:    2254146  dACCESS:          0  dHIT:          0  dMISS:          0  itACCESS:          0  itHIT:          0  itMISS:          0  dtACCESS:          0  dtHIT:          0  dtMISS:          0
cpu0_ITLB RFO          ACCESS:          0  HIT:          0  MISS:          0  iACCESS:          0  iHIT:          0  iMISS:          0  dACCESS:          0  dHIT:          0  dMISS:          0  itACCESS:          0  itHIT:          0  itMISS:          0  dtACCESS:          0  dtHIT:          0  dtMISS:          0
cpu0_ITLB PREFETCH     ACCESS:          0  HIT:          0  MISS:          0  iACCESS:          0  iHIT:          0  iMISS:          0  dACCESS:          0  dHIT:          0  dMISS:          0  itACCESS:          0  itHIT:          0  itMISS:          0  dtACCESS:          0  dtHIT:          0  dtMISS:          0
cpu0_ITLB WRITE        ACCESS:          0  HIT:          0  MISS:          0  iACCESS:          0  iHIT:          0  iMISS:          0  dACCESS:          0  dHIT:          0  dMISS:          0  itACCESS:          0  itHIT:          0  itMISS:          0  dtACCESS:          0  dtHIT:          0  dtMISS:          0
cpu0_ITLB TRANSLATION  ACCESS:          0  HIT:          0  MISS:          0  iACCESS:          0  iHIT:          0  iMISS:          0  dACCESS:          0  dHIT:          0  dMISS:          0  itACCESS:          0  itHIT:          0  itMISS:          0  dtACCESS:          0  dtHIT:          0  dtMISS:          0
cpu0_ITLB PREFETCH  REQUESTED:          0  ISSUED:          0  CROSSED:          0  USEFUL:     394052  USELESS:      80791
cpu0_ITLB AVERAGE iMISS LATENCY: 8.04067 cycles
cpu0_ITLB AVERAGE dMISS LATENCY: 0 cycles
cpu0_ITLB AVERAGE itMISS LATENCY: 0 cycles
cpu0_ITLB AVERAGE dtMISS LATENCY: 0 cycles
cpu0_ITLB PAGE CROSSINGS (TLB HIT):         0 
cpu0_ITLB PAGE CROSSINGS (TLB MISS):         0 
cpu0_ITLB AVERAGE MISS LATENCY: 8.04067 cycles
cpu0_DTLB TOTAL       ACCESS:   28908744  HIT:   25294431  MISS:    3614313  iACCESS:          0  iHIT:          0  iMISS:          0  dACCESS:   28908744  dHIT:   25294431  dMISS:    3614313  itACCESS:          0  itHIT:          0  itMISS:          0  dtACCESS:          0  dtHIT:          0  dtMISS:          0
cpu0_DTLB LOAD         ACCESS:   28908744  HIT:   25294431  MISS:    3614313  iACCESS:          0  iHIT:          0  iMISS:          0  dACCESS:   28908744  dHIT:   25294431  dMISS:    3614313  itACCESS:          0  itHIT:          0  itMISS:          0  dtACCESS:          0  dtHIT:          0  dtMISS:          0
cpu0_DTLB RFO          ACCESS:          0  HIT:          0  MISS:          0  iACCESS:          0  iHIT:          0  iMISS:          0  dACCESS:          0  dHIT:          0  dMISS:          0  itACCESS:          0  itHIT:          0  itMISS:          0  dtACCESS:          0  dtHIT:          0  dtMISS:          0
cpu0_DTLB PREFETCH     ACCESS:          0  HIT:          0  MISS:          0  iACCESS:          0  iHIT:          0  iMISS:          0  dACCESS:          0  dHIT:          0  dMISS:          0  itACCESS:          0  itHIT:          0  itMISS:          0  dtACCESS:          0  dtHIT:          0  dtMISS:          0
cpu0_DTLB WRITE        ACCESS:          0  HIT:          0  MISS:          0  iACCESS:          0  iHIT:          0  iMISS:          0  dACCESS:          0  dHIT:          0  dMISS:          0  itACCESS:          0  itHIT:          0  itMISS:          0  dtACCESS:          0  dtHIT:          0  dtMISS:          0
cpu0_DTLB TRANSLATION  ACCESS:          0  HIT:          0  MISS:          0  iACCESS:          0  iHIT:          0  iMISS:          0  dACCESS:          0  dHIT:          0  dMISS:          0  itACCESS:          0  itHIT:          0  itMISS:          0  dtACCESS:          0  dtHIT:          0  dtMISS:          0
cpu0_DTLB PREFETCH  REQUESTED:          0  ISSUED:          0  CROSSED:          0  USEFUL:          0  USELESS:          0
cpu0_DTLB AVERAGE iMISS LATENCY: 0 cycles
cpu0_DTLB AVERAGE dMISS LATENCY: 17.4463 cycles
cpu0_DTLB AVERAGE itMISS LATENCY: 0 cycles
cpu0_DTLB AVERAGE dtMISS LATENCY: 0 cycles
cpu0_DTLB PAGE CROSSINGS (TLB HIT):         0 
cpu0_DTLB PAGE CROSSINGS (TLB MISS):         0 
cpu0_DTLB AVERAGE MISS LATENCY: 17.4463 cycles
cpu0_STLB TOTAL       ACCESS:    2599896  HIT:    2210013  MISS:     389883  iACCESS:     474858  iHIT:     356589  iMISS:     118269  dACCESS:    2125038  dHIT:    1853424  dMISS:     271614  itACCESS:          0  itHIT:          0  itMISS:          0  dtACCESS:          0  dtHIT:          0  dtMISS:          0
cpu0_STLB LOAD         ACCESS:    2599896  HIT:    2210013  MISS:     389883  iACCESS:     474858  iHIT:     356589  iMISS:     118269  dACCESS:    2125038  dHIT:    1853424  dMISS:     271614  itACCESS:          0  itHIT:          0  itMISS:          0  dtACCESS:          0  dtHIT:          0  dtMISS:          0
cpu0_STLB RFO          ACCESS:          0  HIT:          0  MISS:          0  iACCESS:          0  iHIT:          0  iMISS:          0  dACCESS:          0  dHIT:          0  dMISS:          0  itACCESS:          0  itHIT:          0  itMISS:          0  dtACCESS:          0  dtHIT:          0  dtMISS:          0
cpu0_STLB PREFETCH     ACCESS:          0  HIT:          0  MISS:          0  iACCESS:          0  iHIT:          0  iMISS:          0  dACCESS:          0  dHIT:          0  dMISS:          0  itACCESS:          0  itHIT:          0  itMISS:          0  dtACCESS:          0  dtHIT:          0  dtMISS:          0
cpu0_STLB WRITE        ACCESS:          0  HIT:          0  MISS:          0  iACCESS:          0  iHIT:          0  iMISS:          0  dACCESS:          0  dHIT:          0  dMISS:          0  itACCESS:          0  itHIT:          0  itMISS:          0  dtACCESS:          0  dtHIT:          0  dtMISS:          0
cpu0_STLB TRANSLATION  ACCESS:          0  HIT:          0  MISS:          0  iACCESS:          0  iHIT:          0  iMISS:          0  dACCESS:          0  dHIT:          0  dMISS:          0  itACCESS:          0  itHIT:          0  itMISS:          0  dtACCESS:          0  dtHIT:          0  dtMISS:          0
cpu0_STLB PREFETCH  REQUESTED:          0  ISSUED:          0  CROSSED:          0  USEFUL:          0  USELESS:          0
cpu0_STLB AVERAGE iMISS LATENCY: 36.7478 cycles
cpu0_STLB AVERAGE dMISS LATENCY: 117.906 cycles
cpu0_STLB AVERAGE itMISS LATENCY: 0 cycles
cpu0_STLB AVERAGE dtMISS LATENCY: 0 cycles
cpu0_STLB PAGE CROSSINGS (TLB HIT):         0 
cpu0_STLB PAGE CROSSINGS (TLB MISS):         0 
cpu0_STLB AVERAGE MISS LATENCY: 154.654 cycles
cpu0_L1D TOTAL       ACCESS:   45039435  HIT:   39252189  MISS:    5787246  iACCESS:          0  iHIT:          0  iMISS:          0  dACCESS:   44475632  dHIT:   39218775  dMISS:    5256857  itACCESS:     132227  itHIT:      14532  itMISS:     117695  dtACCESS:     431576  dtHIT:      18882  dtMISS:     412694
cpu0_L1D LOAD         ACCESS:   20289451  HIT:   17923791  MISS:    2365660  iACCESS:          0  iHIT:          0  iMISS:          0  dACCESS:   20289451  dHIT:   17923791  dMISS:    2365660  itACCESS:          0  itHIT:          0  itMISS:          0  dtACCESS:          0  dtHIT:          0  dtMISS:          0
cpu0_L1D RFO          ACCESS:          0  HIT:          0  MISS:          0  iACCESS:          0  iHIT:          0  iMISS:          0  dACCESS:          0  dHIT:          0  dMISS:          0  itACCESS:          0  itHIT:          0  itMISS:          0  dtACCESS:          0  dtHIT:          0  dtMISS:          0
cpu0_L1D PREFETCH     ACCESS:   14028274  HIT:   11723792  MISS:    2304482  iACCESS:          0  iHIT:          0  iMISS:          0  dACCESS:   14028274  dHIT:   11723792  dMISS:    2304482  itACCESS:          0  itHIT:          0  itMISS:          0  dtACCESS:          0  dtHIT:          0  dtMISS:          0
cpu0_L1D WRITE        ACCESS:   10157907  HIT:    9571192  MISS:     586715  iACCESS:          0  iHIT:          0  iMISS:          0  dACCESS:   10157907  dHIT:    9571192  dMISS:     586715  itACCESS:          0  itHIT:          0  itMISS:          0  dtACCESS:          0  dtHIT:          0  dtMISS:          0
cpu0_L1D TRANSLATION  ACCESS:     563803  HIT:      33414  MISS:     530389  iACCESS:          0  iHIT:          0  iMISS:          0  dACCESS:          0  dHIT:          0  dMISS:          0  itACCESS:     132227  itHIT:      14532  itMISS:     117695  dtACCESS:     431576  dtHIT:      18882  dtMISS:     412694
cpu0_L1D PREFETCH  REQUESTED:   20289451  ISSUED:   18507878  CROSSED:          0  USEFUL:     360153  USELESS:     939588
cpu0_L1D AVERAGE iMISS LATENCY: 0 cycles
cpu0_L1D AVERAGE dMISS LATENCY: 51.2613 cycles
cpu0_L1D AVERAGE itMISS LATENCY: 2.2857 cycles
cpu0_L1D AVERAGE dtMISS LATENCY: 7.1454 cycles
cpu0_L1D PAGE CROSSINGS (TLB HIT):         0 
cpu0_L1D PAGE CROSSINGS (TLB MISS):         0 
cpu0_L1D AVERAGE MISS LATENCY: 60.6923 cycles
cpu0_L2C TOTAL       ACCESS:    8697229  HIT:    1505597  MISS:    7191632  iACCESS:    3808106  iHIT:     771912  iMISS:    3036194  dACCESS:    4385176  dHIT:     533197  dMISS:    3851979  itACCESS:     117355  itHIT:      39801  itMISS:      77554  dtACCESS:     386592  dtHIT:     160687  dtMISS:     225905
cpu0_L2C LOAD         ACCESS:    2069943  HIT:     197353  MISS:    1872590  iACCESS:     846628  iHIT:     103076  iMISS:     743552  dACCESS:    1223315  dHIT:      94277  dMISS:    1129038  itACCESS:          0  itHIT:          0  itMISS:          0  dtACCESS:          0  dtHIT:          0  dtMISS:          0
cpu0_L2C RFO          ACCESS:     216467  HIT:      26208  MISS:     190259  iACCESS:          0  iHIT:          0  iMISS:          0  dACCESS:     216467  dHIT:      26208  dMISS:     190259  itACCESS:          0  itHIT:          0  itMISS:          0  dtACCESS:          0  dtHIT:          0  dtMISS:          0
cpu0_L2C PREFETCH     ACCESS:    5562007  HIT:     980689  MISS:    4581318  iACCESS:    2961478  iHIT:     668836  iMISS:    2292642  dACCESS:    2600529  dHIT:     311853  dMISS:    2288676  itACCESS:          0  itHIT:          0  itMISS:          0  dtACCESS:          0  dtHIT:          0  dtMISS:          0
cpu0_L2C WRITE        ACCESS:     344865  HIT:     100859  MISS:     244006  iACCESS:          0  iHIT:          0  iMISS:          0  dACCESS:     344865  dHIT:     100859  dMISS:     244006  itACCESS:          0  itHIT:          0  itMISS:          0  dtACCESS:          0  dtHIT:          0  dtMISS:          0
cpu0_L2C TRANSLATION  ACCESS:     503947  HIT:     200488  MISS:     303459  iACCESS:          0  iHIT:          0  iMISS:          0  dACCESS:          0  dHIT:          0  dMISS:          0  itACCESS:     117355  itHIT:      39801  itMISS:      77554  dtACCESS:     386592  dtHIT:     160687  dtMISS:     225905
cpu0_L2C PREFETCH  REQUESTED:    1543758  ISSUED:    1543756  CROSSED:          0  USEFUL:     414210  USELESS:     497190
cpu0_L2C AVERAGE iMISS LATENCY: 27.3631 cycles
cpu0_L2C AVERAGE dMISS LATENCY: 50.9153 cycles
cpu0_L2C AVERAGE itMISS LATENCY: 1.68128 cycles
cpu0_L2C AVERAGE dtMISS LATENCY: 5.2325 cycles
cpu0_L2C PAGE CROSSINGS (TLB HIT):         0 
cpu0_L2C PAGE CROSSINGS (TLB MISS):         0 
cpu0_L2C AVERAGE MISS LATENCY: 85.1921 cycles
LLC TOTAL       ACCESS:    7002220  HIT:    4195220  MISS:    2807000  iACCESS:    2943317  iHIT:    2061931  iMISS:     881386  dACCESS:    3755444  dHIT:    2062851  dMISS:    1692593  itACCESS:      77554  itHIT:      18470  itMISS:      59084  dtACCESS:     225905  dtHIT:      51968  dtMISS:     173937
LLC LOAD         ACCESS:    1864234  HIT:    1184022  MISS:     680212  iACCESS:     742062  iHIT:     556528  iMISS:     185534  dACCESS:    1122172  dHIT:     627494  dMISS:     494678  itACCESS:          0  itHIT:          0  itMISS:          0  dtACCESS:          0  dtHIT:          0  dtMISS:          0
LLC RFO          ACCESS:     190248  HIT:      96197  MISS:      94051  iACCESS:          0  iHIT:          0  iMISS:          0  dACCESS:     190248  dHIT:      96197  dMISS:      94051  itACCESS:          0  itHIT:          0  itMISS:          0  dtACCESS:          0  dtHIT:          0  dtMISS:          0
LLC PREFETCH     ACCESS:    4363254  HIT:    2569632  MISS:    1793622  iACCESS:    2201255  iHIT:    1505403  iMISS:     695852  dACCESS:    2161999  dHIT:    1064229  dMISS:    1097770  itACCESS:          0  itHIT:          0  itMISS:          0  dtACCESS:          0  dtHIT:          0  dtMISS:          0
LLC WRITE        ACCESS:     281025  HIT:     274931  MISS:       6094  iACCESS:          0  iHIT:          0  iMISS:          0  dACCESS:     281025  dHIT:     274931  dMISS:       6094  itACCESS:          0  itHIT:          0  itMISS:          0  dtACCESS:          0  dtHIT:          0  dtMISS:          0
LLC TRANSLATION  ACCESS:     303459  HIT:      70438  MISS:     233021  iACCESS:          0  iHIT:          0  iMISS:          0  dACCESS:          0  dHIT:          0  dMISS:          0  itACCESS:      77554  itHIT:      18470  itMISS:      59084  dtACCESS:     225905  dtHIT:      51968  dtMISS:     173937
LLC PREFETCH  REQUESTED:          0  ISSUED:          0  CROSSED:          0  USEFUL:          0  USELESS:          0
LLC AVERAGE iMISS LATENCY: 49.731 cycles
LLC AVERAGE dMISS LATENCY: 107.329 cycles
LLC AVERAGE itMISS LATENCY: 3.76332 cycles
LLC AVERAGE dtMISS LATENCY: 11.8207 cycles
LLC PAGE CROSSINGS (TLB HIT):         0 
LLC PAGE CROSSINGS (TLB MISS):         0 
LLC AVERAGE MISS LATENCY: 172.643 cycles

PageTableWalker TOTAL       ACCESS:     198200  
PageTableWalker AVERAGE LATENCY: 5.92935 cycles
PageTableWalker TOTAL LATENCY: 1175197 cycles

DRAM Statistics
Channel 0
 RQ ROW_BUFFER_HIT:     603393
  ROW_BUFFER_MISS:    2178241
 AVG DBUS CONGESTED CYCLE:     3.6552
 WQ ROW_BUFFER_HIT:      69295
  ROW_BUFFER_MISS:      65394  FULL:          0

