last_page:0x200000000000000
VMEM_RES_CAP:0x100000
PAGE_SIZE:4096
LOG2_PAGE_SIZE:12
LOG2_PAGE_TABLE_SIZE:9
page_table_levels:5
WARNING: physical memory size is smaller than virtual memory size
FDiP enabled with aggresivity 16

*** ChampSim Multicore Out-of-Order Simulator ***

Warmup Instructions: 50000000
Simulation Instructions: 100000000
Number of CPUs: 1
Small page size: 4096
Large page size: 2097152

CPU 0 Bimodal branch predictor
Basic BTB sets: 1024 ways: 8 indirect buffer size: 4096 RAS size: 64
Instruction page size distrubution: 0
Loading instruction page size distribution from /home/bsc/bsc018186/scratch/itp_asplos25_AE/dump/smt_srv537_ap_srv551_ap_1024i.pdst
Data page size distrubution: 0
Loading data page size distribution from /home/bsc/bsc018186/scratch/itp_asplos25_AE/dump/smt_srv537_ap_srv551_ap_1024i.pdst
cpu0_L2C IP-based stride prefetcher
cpu0_L1D next line prefetcher
cpu0_STLB using iTP with max lru@8
cpu0_STLB using iTP with instr@0 and data@2
Init sat counter with 3 bits (max:50).
cpu0_L1I next line prefetcher
Off-chip DRAM Size: 4 GiB Channels: 1 Width: 64-bit Data Rate: 3200 MT/s
Heartbeat CPU 0 instructions: 10000003 cycles: 2500541 heartbeat IPC: 3.99914 cumulative IPC: 3.99914 (Simulation time: 0 hr 0 min 35 sec) 
Heartbeat CPU 0 instructions: 20000000 cycles: 5000740 heartbeat IPC: 3.99969 cumulative IPC: 3.99941 (Simulation time: 0 hr 1 min 13 sec) 
Heartbeat CPU 0 instructions: 30000000 cycles: 7500975 heartbeat IPC: 3.99963 cumulative IPC: 3.99949 (Simulation time: 0 hr 1 min 51 sec) 
Heartbeat CPU 0 instructions: 40000002 cycles: 10001218 heartbeat IPC: 3.99962 cumulative IPC: 3.99952 (Simulation time: 0 hr 2 min 30 sec) 
Heartbeat CPU 0 instructions: 50000001 cycles: 12501484 heartbeat IPC: 3.99958 cumulative IPC: 3.99953 (Simulation time: 0 hr 3 min 9 sec) 
Warmup finished CPU 0 instructions: 50000001 cycles: 12501485 cumulative IPC: 3.99953 (Simulation time: 0 hr 3 min 9 sec) 

Warmup complete CPU 0 instructions: 50000001 cycles: 12501485 (Simulation time: 0 hr 3 min 9 sec) 

Heartbeat CPU 0 instructions: 60000000 cycles: 40458947 heartbeat IPC: 0.357687 cumulative IPC: 0.357687 (Simulation time: 0 hr 4 min 28 sec) 
Heartbeat CPU 0 instructions: 70000002 cycles: 69461399 heartbeat IPC: 0.344799 cumulative IPC: 0.351125 (Simulation time: 0 hr 5 min 49 sec) 
Heartbeat CPU 0 instructions: 80000000 cycles: 97378990 heartbeat IPC: 0.358198 cumulative IPC: 0.353451 (Simulation time: 0 hr 7 min 8 sec) 
Heartbeat CPU 0 instructions: 90000000 cycles: 124963820 heartbeat IPC: 0.362519 cumulative IPC: 0.355675 (Simulation time: 0 hr 8 min 27 sec) 
Heartbeat CPU 0 instructions: 100000003 cycles: 153051432 heartbeat IPC: 0.356029 cumulative IPC: 0.355746 (Simulation time: 0 hr 9 min 47 sec) 
Heartbeat CPU 0 instructions: 110000000 cycles: 181131016 heartbeat IPC: 0.356131 cumulative IPC: 0.35581 (Simulation time: 0 hr 11 min 12 sec) 
Heartbeat CPU 0 instructions: 120000000 cycles: 205010734 heartbeat IPC: 0.418766 cumulative IPC: 0.363619 (Simulation time: 0 hr 12 min 29 sec) 
Heartbeat CPU 0 instructions: 130000000 cycles: 221084193 heartbeat IPC: 0.622144 cumulative IPC: 0.383541 (Simulation time: 0 hr 13 min 37 sec) 
Heartbeat CPU 0 instructions: 140000000 cycles: 238491752 heartbeat IPC: 0.574464 cumulative IPC: 0.398248 (Simulation time: 0 hr 14 min 46 sec) 
Heartbeat CPU 0 instructions: 150000002 cycles: 267178677 heartbeat IPC: 0.348591 cumulative IPC: 0.392654 (Simulation time: 0 hr 16 min 6 sec) 
Simulation finished CPU 0 instructions: 100000001 cycles: 254677193 cumulative IPC: 0.392654 (Simulation time: 0 hr 16 min 6 sec) 

Simulation complete CPU 0 instructions: 100000001 cycles: 254677193 (Simulation time: 0 hr 16 min 6 sec) 


ChampSim completed all CPUs

Saving instructions large page distribution to /home/bsc/bsc018186/scratch/itp_asplos25_AE/dump/smt_srv537_ap_srv551_ap_1024i.pdst...
Saving data large page distribution to /home/bsc/bsc018186/scratch/itp_asplos25_AE/dump/smt_srv537_ap_srv551_ap_1024i.pdst...
=== Simulation ===
CPU 0 runs /gpfs/projects/bsc18/MN4/bsc18/romol/ChampSim/traces/qualcomm_srv/smt_srv537_ap_srv551_ap_1024i.champsimtrace.xz

Region of Interest Statistics

CPU 0 cumulative IPC: 0.392654 instructions: 100000001 cycles: 254677193
CPU 0 Branch Prediction Accuracy: 77.9643% MPKI: 42.5818 Average ROB Occupancy at Mispredict: 11.309
Branch type MPKI
BRANCH_DIRECT_JUMP: 1.24462
BRANCH_INDIRECT: 22.852
BRANCH_CONDITIONAL: 11.7124
BRANCH_DIRECT_CALL: 2.38076
BRANCH_INDIRECT_CALL: 1.08293
BRANCH_RETURN: 3.30916

Instructions large pages: 0
Instructions small pages: 10737
Large page distribution for instructions: 0%

Data large pages: 0
Data small pages: 9299
Large page distribution for data: 0%

cpu0_L1I TOTAL       ACCESS:   40296070  HIT:   32125520  MISS:    8170550  iACCESS:   40296070  iHIT:   32125520  iMISS:    8170550  dACCESS:          0  dHIT:          0  dMISS:          0  itACCESS:          0  itHIT:          0  itMISS:          0  dtACCESS:          0  dtHIT:          0  dtMISS:          0
cpu0_L1I LOAD         ACCESS:   11538249  HIT:    9321291  MISS:    2216958  iACCESS:   11538249  iHIT:    9321291  iMISS:    2216958  dACCESS:          0  dHIT:          0  dMISS:          0  itACCESS:          0  itHIT:          0  itMISS:          0  dtACCESS:          0  dtHIT:          0  dtMISS:          0
cpu0_L1I RFO          ACCESS:          0  HIT:          0  MISS:          0  iACCESS:          0  iHIT:          0  iMISS:          0  dACCESS:          0  dHIT:          0  dMISS:          0  itACCESS:          0  itHIT:          0  itMISS:          0  dtACCESS:          0  dtHIT:          0  dtMISS:          0
cpu0_L1I PREFETCH     ACCESS:   28757821  HIT:   22804229  MISS:    5953592  iACCESS:   28757821  iHIT:   22804229  iMISS:    5953592  dACCESS:          0  dHIT:          0  dMISS:          0  itACCESS:          0  itHIT:          0  itMISS:          0  dtACCESS:          0  dtHIT:          0  dtMISS:          0
cpu0_L1I WRITE        ACCESS:          0  HIT:          0  MISS:          0  iACCESS:          0  iHIT:          0  iMISS:          0  dACCESS:          0  dHIT:          0  dMISS:          0  itACCESS:          0  itHIT:          0  itMISS:          0  dtACCESS:          0  dtHIT:          0  dtMISS:          0
cpu0_L1I TRANSLATION  ACCESS:          0  HIT:          0  MISS:          0  iACCESS:          0  iHIT:          0  iMISS:          0  dACCESS:          0  dHIT:          0  dMISS:          0  itACCESS:          0  itHIT:          0  itMISS:          0  dtACCESS:          0  dtHIT:          0  dtMISS:          0
cpu0_L1I PREFETCH  REQUESTED:   31335006  ISSUED:   31333823  CROSSED:          0  USEFUL:    1983144  USELESS:     684221
cpu0_L1I AVERAGE iMISS LATENCY: 23.9976 cycles
cpu0_L1I AVERAGE dMISS LATENCY: 0 cycles
cpu0_L1I AVERAGE itMISS LATENCY: 0 cycles
cpu0_L1I AVERAGE dtMISS LATENCY: 0 cycles
cpu0_L1I PAGE CROSSINGS (TLB HIT):         0 
cpu0_L1I PAGE CROSSINGS (TLB MISS):         0 
cpu0_L1I AVERAGE MISS LATENCY: 23.9976 cycles
cpu0_ITLB TOTAL       ACCESS:   33695099  HIT:   31709712  MISS:    1985387  iACCESS:   33695099  iHIT:   31709712  iMISS:    1985387  dACCESS:          0  dHIT:          0  dMISS:          0  itACCESS:          0  itHIT:          0  itMISS:          0  dtACCESS:          0  dtHIT:          0  dtMISS:          0
cpu0_ITLB LOAD         ACCESS:   33695099  HIT:   31709712  MISS:    1985387  iACCESS:   33695099  iHIT:   31709712  iMISS:    1985387  dACCESS:          0  dHIT:          0  dMISS:          0  itACCESS:          0  itHIT:          0  itMISS:          0  dtACCESS:          0  dtHIT:          0  dtMISS:          0
cpu0_ITLB RFO          ACCESS:          0  HIT:          0  MISS:          0  iACCESS:          0  iHIT:          0  iMISS:          0  dACCESS:          0  dHIT:          0  dMISS:          0  itACCESS:          0  itHIT:          0  itMISS:          0  dtACCESS:          0  dtHIT:          0  dtMISS:          0
cpu0_ITLB PREFETCH     ACCESS:          0  HIT:          0  MISS:          0  iACCESS:          0  iHIT:          0  iMISS:          0  dACCESS:          0  dHIT:          0  dMISS:          0  itACCESS:          0  itHIT:          0  itMISS:          0  dtACCESS:          0  dtHIT:          0  dtMISS:          0
cpu0_ITLB WRITE        ACCESS:          0  HIT:          0  MISS:          0  iACCESS:          0  iHIT:          0  iMISS:          0  dACCESS:          0  dHIT:          0  dMISS:          0  itACCESS:          0  itHIT:          0  itMISS:          0  dtACCESS:          0  dtHIT:          0  dtMISS:          0
cpu0_ITLB TRANSLATION  ACCESS:          0  HIT:          0  MISS:          0  iACCESS:          0  iHIT:          0  iMISS:          0  dACCESS:          0  dHIT:          0  dMISS:          0  itACCESS:          0  itHIT:          0  itMISS:          0  dtACCESS:          0  dtHIT:          0  dtMISS:          0
cpu0_ITLB PREFETCH  REQUESTED:          0  ISSUED:          0  CROSSED:          0  USEFUL:     349423  USELESS:      70870
cpu0_ITLB AVERAGE iMISS LATENCY: 5.74648 cycles
cpu0_ITLB AVERAGE dMISS LATENCY: 0 cycles
cpu0_ITLB AVERAGE itMISS LATENCY: 0 cycles
cpu0_ITLB AVERAGE dtMISS LATENCY: 0 cycles
cpu0_ITLB PAGE CROSSINGS (TLB HIT):         0 
cpu0_ITLB PAGE CROSSINGS (TLB MISS):         0 
cpu0_ITLB AVERAGE MISS LATENCY: 5.74648 cycles
cpu0_DTLB TOTAL       ACCESS:   30781025  HIT:   24878006  MISS:    5903019  iACCESS:          0  iHIT:          0  iMISS:          0  dACCESS:   30781025  dHIT:   24878006  dMISS:    5903019  itACCESS:          0  itHIT:          0  itMISS:          0  dtACCESS:          0  dtHIT:          0  dtMISS:          0
cpu0_DTLB LOAD         ACCESS:   30781025  HIT:   24878006  MISS:    5903019  iACCESS:          0  iHIT:          0  iMISS:          0  dACCESS:   30781025  dHIT:   24878006  dMISS:    5903019  itACCESS:          0  itHIT:          0  itMISS:          0  dtACCESS:          0  dtHIT:          0  dtMISS:          0
cpu0_DTLB RFO          ACCESS:          0  HIT:          0  MISS:          0  iACCESS:          0  iHIT:          0  iMISS:          0  dACCESS:          0  dHIT:          0  dMISS:          0  itACCESS:          0  itHIT:          0  itMISS:          0  dtACCESS:          0  dtHIT:          0  dtMISS:          0
cpu0_DTLB PREFETCH     ACCESS:          0  HIT:          0  MISS:          0  iACCESS:          0  iHIT:          0  iMISS:          0  dACCESS:          0  dHIT:          0  dMISS:          0  itACCESS:          0  itHIT:          0  itMISS:          0  dtACCESS:          0  dtHIT:          0  dtMISS:          0
cpu0_DTLB WRITE        ACCESS:          0  HIT:          0  MISS:          0  iACCESS:          0  iHIT:          0  iMISS:          0  dACCESS:          0  dHIT:          0  dMISS:          0  itACCESS:          0  itHIT:          0  itMISS:          0  dtACCESS:          0  dtHIT:          0  dtMISS:          0
cpu0_DTLB TRANSLATION  ACCESS:          0  HIT:          0  MISS:          0  iACCESS:          0  iHIT:          0  iMISS:          0  dACCESS:          0  dHIT:          0  dMISS:          0  itACCESS:          0  itHIT:          0  itMISS:          0  dtACCESS:          0  dtHIT:          0  dtMISS:          0
cpu0_DTLB PREFETCH  REQUESTED:          0  ISSUED:          0  CROSSED:          0  USEFUL:          0  USELESS:          0
cpu0_DTLB AVERAGE iMISS LATENCY: 0 cycles
cpu0_DTLB AVERAGE dMISS LATENCY: 11.5262 cycles
cpu0_DTLB AVERAGE itMISS LATENCY: 0 cycles
cpu0_DTLB AVERAGE dtMISS LATENCY: 0 cycles
cpu0_DTLB PAGE CROSSINGS (TLB HIT):         0 
cpu0_DTLB PAGE CROSSINGS (TLB MISS):         0 
cpu0_DTLB AVERAGE MISS LATENCY: 11.5262 cycles
cpu0_STLB TOTAL       ACCESS:    3539280  HIT:    3229173  MISS:     310107  iACCESS:     420304  iHIT:     367487  iMISS:      52817  dACCESS:    3118976  dHIT:    2861686  dMISS:     257290  itACCESS:          0  itHIT:          0  itMISS:          0  dtACCESS:          0  dtHIT:          0  dtMISS:          0
cpu0_STLB LOAD         ACCESS:    3539280  HIT:    3229173  MISS:     310107  iACCESS:     420304  iHIT:     367487  iMISS:      52817  dACCESS:    3118976  dHIT:    2861686  dMISS:     257290  itACCESS:          0  itHIT:          0  itMISS:          0  dtACCESS:          0  dtHIT:          0  dtMISS:          0
cpu0_STLB RFO          ACCESS:          0  HIT:          0  MISS:          0  iACCESS:          0  iHIT:          0  iMISS:          0  dACCESS:          0  dHIT:          0  dMISS:          0  itACCESS:          0  itHIT:          0  itMISS:          0  dtACCESS:          0  dtHIT:          0  dtMISS:          0
cpu0_STLB PREFETCH     ACCESS:          0  HIT:          0  MISS:          0  iACCESS:          0  iHIT:          0  iMISS:          0  dACCESS:          0  dHIT:          0  dMISS:          0  itACCESS:          0  itHIT:          0  itMISS:          0  dtACCESS:          0  dtHIT:          0  dtMISS:          0
cpu0_STLB WRITE        ACCESS:          0  HIT:          0  MISS:          0  iACCESS:          0  iHIT:          0  iMISS:          0  dACCESS:          0  dHIT:          0  dMISS:          0  itACCESS:          0  itHIT:          0  itMISS:          0  dtACCESS:          0  dtHIT:          0  dtMISS:          0
cpu0_STLB TRANSLATION  ACCESS:          0  HIT:          0  MISS:          0  iACCESS:          0  iHIT:          0  iMISS:          0  dACCESS:          0  dHIT:          0  dMISS:          0  itACCESS:          0  itHIT:          0  itMISS:          0  dtACCESS:          0  dtHIT:          0  dtMISS:          0
cpu0_STLB PREFETCH  REQUESTED:          0  ISSUED:          0  CROSSED:          0  USEFUL:          0  USELESS:          0
cpu0_STLB AVERAGE iMISS LATENCY: 26.1323 cycles
cpu0_STLB AVERAGE dMISS LATENCY: 137.962 cycles
cpu0_STLB AVERAGE itMISS LATENCY: 0 cycles
cpu0_STLB AVERAGE dtMISS LATENCY: 0 cycles
cpu0_STLB PAGE CROSSINGS (TLB HIT):         0 
cpu0_STLB PAGE CROSSINGS (TLB MISS):         0 
cpu0_STLB AVERAGE MISS LATENCY: 164.095 cycles
cpu0_L1D TOTAL       ACCESS:   49315706  HIT:   39689609  MISS:    9626097  iACCESS:          0  iHIT:          0  iMISS:          0  dACCESS:   48840741  dHIT:   39667056  dMISS:    9173685  itACCESS:      61892  itHIT:       4679  itMISS:      57213  dtACCESS:     413073  dtHIT:      17874  dtMISS:     395199
cpu0_L1D LOAD         ACCESS:   23497010  HIT:   18386034  MISS:    5110976  iACCESS:          0  iHIT:          0  iMISS:          0  dACCESS:   23497010  dHIT:   18386034  dMISS:    5110976  itACCESS:          0  itHIT:          0  itMISS:          0  dtACCESS:          0  dtHIT:          0  dtMISS:          0
cpu0_L1D RFO          ACCESS:          0  HIT:          0  MISS:          0  iACCESS:          0  iHIT:          0  iMISS:          0  dACCESS:          0  dHIT:          0  dMISS:          0  itACCESS:          0  itHIT:          0  itMISS:          0  dtACCESS:          0  dtHIT:          0  dtMISS:          0
cpu0_L1D PREFETCH     ACCESS:   15534553  HIT:   12037745  MISS:    3496808  iACCESS:          0  iHIT:          0  iMISS:          0  dACCESS:   15534553  dHIT:   12037745  dMISS:    3496808  itACCESS:          0  itHIT:          0  itMISS:          0  dtACCESS:          0  dtHIT:          0  dtMISS:          0
cpu0_L1D WRITE        ACCESS:    9809178  HIT:    9243277  MISS:     565901  iACCESS:          0  iHIT:          0  iMISS:          0  dACCESS:    9809178  dHIT:    9243277  dMISS:     565901  itACCESS:          0  itHIT:          0  itMISS:          0  dtACCESS:          0  dtHIT:          0  dtMISS:          0
cpu0_L1D TRANSLATION  ACCESS:     474965  HIT:      22553  MISS:     452412  iACCESS:          0  iHIT:          0  iMISS:          0  dACCESS:          0  dHIT:          0  dMISS:          0  itACCESS:      61892  itHIT:       4679  itMISS:      57213  dtACCESS:     413073  dtHIT:      17874  dtMISS:     395199
cpu0_L1D PREFETCH  REQUESTED:   23497010  ISSUED:   18897043  CROSSED:          0  USEFUL:     340528  USELESS:    1032006
cpu0_L1D AVERAGE iMISS LATENCY: 0 cycles
cpu0_L1D AVERAGE dMISS LATENCY: 30.7026 cycles
cpu0_L1D AVERAGE itMISS LATENCY: 0.783087 cycles
cpu0_L1D AVERAGE dtMISS LATENCY: 3.96713 cycles
cpu0_L1D PAGE CROSSINGS (TLB HIT):         0 
cpu0_L1D PAGE CROSSINGS (TLB MISS):         0 
cpu0_L1D AVERAGE MISS LATENCY: 35.4528 cycles
cpu0_L2C TOTAL       ACCESS:    9787334  HIT:    2216600  MISS:    7570734  iACCESS:    3381154  iHIT:     752988  iMISS:    2628166  dACCESS:    5979834  dHIT:    1297620  dMISS:    4682214  itACCESS:      57048  itHIT:      13615  itMISS:      43433  dtACCESS:     369298  dtHIT:     152377  dtMISS:     216921
cpu0_L2C LOAD         ACCESS:    3623144  HIT:     857516  MISS:    2765628  iACCESS:     745625  iHIT:     115391  iMISS:     630234  dACCESS:    2877519  dHIT:     742125  dMISS:    2135394  itACCESS:          0  itHIT:          0  itMISS:          0  dtACCESS:          0  dtHIT:          0  dtMISS:          0
cpu0_L2C RFO          ACCESS:     226886  HIT:      52028  MISS:     174858  iACCESS:          0  iHIT:          0  iMISS:          0  dACCESS:     226886  dHIT:      52028  dMISS:     174858  itACCESS:          0  itHIT:          0  itMISS:          0  dtACCESS:          0  dtHIT:          0  dtMISS:          0
cpu0_L2C PREFETCH     ACCESS:    5183296  HIT:    1028819  MISS:    4154477  iACCESS:    2635529  iHIT:     637597  iMISS:    1997932  dACCESS:    2547767  dHIT:     391222  dMISS:    2156545  itACCESS:          0  itHIT:          0  itMISS:          0  dtACCESS:          0  dtHIT:          0  dtMISS:          0
cpu0_L2C WRITE        ACCESS:     327662  HIT:     112245  MISS:     215417  iACCESS:          0  iHIT:          0  iMISS:          0  dACCESS:     327662  dHIT:     112245  dMISS:     215417  itACCESS:          0  itHIT:          0  itMISS:          0  dtACCESS:          0  dtHIT:          0  dtMISS:          0
cpu0_L2C TRANSLATION  ACCESS:     426346  HIT:     165992  MISS:     260354  iACCESS:          0  iHIT:          0  iMISS:          0  dACCESS:          0  dHIT:          0  dMISS:          0  itACCESS:      57048  itHIT:      13615  itMISS:      43433  dtACCESS:     369298  dtHIT:     152377  dtMISS:     216921
cpu0_L2C PREFETCH  REQUESTED:    1390891  ISSUED:    1390869  CROSSED:          0  USEFUL:     368512  USELESS:     438108
cpu0_L2C AVERAGE iMISS LATENCY: 22.0832 cycles
cpu0_L2C AVERAGE dMISS LATENCY: 44.0206 cycles
cpu0_L2C AVERAGE itMISS LATENCY: 0.921904 cycles
cpu0_L2C AVERAGE dtMISS LATENCY: 4.57435 cycles
cpu0_L2C PAGE CROSSINGS (TLB HIT):         0 
cpu0_L2C PAGE CROSSINGS (TLB MISS):         0 
cpu0_L2C AVERAGE MISS LATENCY: 71.6 cycles
LLC TOTAL       ACCESS:    7393423  HIT:    5019289  MISS:    2374134  iACCESS:    2547578  iHIT:    1798065  iMISS:     749513  dACCESS:    4585491  dHIT:    3155025  dMISS:    1430466  itACCESS:      43433  itHIT:       9004  itMISS:      34429  dtACCESS:     216921  dtHIT:      57195  dtMISS:     159726
LLC LOAD         ACCESS:    2758387  HIT:    2189805  MISS:     568582  iACCESS:     629069  iHIT:     472000  iMISS:     157069  dACCESS:    2129318  dHIT:    1717805  dMISS:     411513  itACCESS:          0  itHIT:          0  itMISS:          0  dtACCESS:          0  dtHIT:          0  dtMISS:          0
LLC RFO          ACCESS:     174823  HIT:      95831  MISS:      78992  iACCESS:          0  iHIT:          0  iMISS:          0  dACCESS:     174823  dHIT:      95831  dMISS:      78992  itACCESS:          0  itHIT:          0  itMISS:          0  dtACCESS:          0  dtHIT:          0  dtMISS:          0
LLC PREFETCH     ACCESS:    3956355  HIT:    2430922  MISS:    1525433  iACCESS:    1918509  iHIT:    1326065  iMISS:     592444  dACCESS:    2037846  dHIT:    1104857  dMISS:     932989  itACCESS:          0  itHIT:          0  itMISS:          0  dtACCESS:          0  dtHIT:          0  dtMISS:          0
LLC WRITE        ACCESS:     243504  HIT:     236532  MISS:       6972  iACCESS:          0  iHIT:          0  iMISS:          0  dACCESS:     243504  dHIT:     236532  dMISS:       6972  itACCESS:          0  itHIT:          0  itMISS:          0  dtACCESS:          0  dtHIT:          0  dtMISS:          0
LLC TRANSLATION  ACCESS:     260354  HIT:      66199  MISS:     194155  iACCESS:          0  iHIT:          0  iMISS:          0  dACCESS:          0  dHIT:          0  dMISS:          0  itACCESS:      43433  itHIT:       9004  itMISS:      34429  dtACCESS:     216921  dtHIT:      57195  dtMISS:     159726
LLC PREFETCH  REQUESTED:          0  ISSUED:          0  CROSSED:          0  USEFUL:          0  USELESS:          0
LLC AVERAGE iMISS LATENCY: 49.5859 cycles
LLC AVERAGE dMISS LATENCY: 105.552 cycles
LLC AVERAGE itMISS LATENCY: 2.579 cycles
LLC AVERAGE dtMISS LATENCY: 12.7894 cycles
LLC PAGE CROSSINGS (TLB HIT):         0 
LLC PAGE CROSSINGS (TLB MISS):         0 
LLC AVERAGE MISS LATENCY: 170.506 cycles

PageTableWalker TOTAL       ACCESS:     177782  
PageTableWalker AVERAGE LATENCY: 6.17596 cycles
PageTableWalker TOTAL LATENCY: 1097973 cycles

DRAM Statistics
Channel 0
 RQ ROW_BUFFER_HIT:     540360
  ROW_BUFFER_MISS:    1810709
 AVG DBUS CONGESTED CYCLE:    3.65508
 WQ ROW_BUFFER_HIT:      56609
  ROW_BUFFER_MISS:      54583  FULL:          0

