last_page:0x200000000000000
VMEM_RES_CAP:0x100000
PAGE_SIZE:4096
LOG2_PAGE_SIZE:12
LOG2_PAGE_TABLE_SIZE:9
page_table_levels:5
WARNING: physical memory size is smaller than virtual memory size
FDiP enabled with aggresivity 16

*** ChampSim Multicore Out-of-Order Simulator ***

Warmup Instructions: 50000000
Simulation Instructions: 100000000
Number of CPUs: 1
Small page size: 4096
Large page size: 2097152

CPU 0 Bimodal branch predictor
Basic BTB sets: 1024 ways: 8 indirect buffer size: 4096 RAS size: 64
Instruction page size distrubution: 0
Loading instruction page size distribution from /home/bsc/bsc018186/scratch/itp_asplos25_AE/dump/smt_srv540_ap_srv194_ap_1024i.pdst
Data page size distrubution: 0
Loading data page size distribution from /home/bsc/bsc018186/scratch/itp_asplos25_AE/dump/smt_srv540_ap_srv194_ap_1024i.pdst
cpu0_L2C IP-based stride prefetcher
cpu0_L1D next line prefetcher
cpu0_STLB using iTP with max lru@8
cpu0_STLB using iTP with instr@0 and data@2
Init sat counter with 3 bits (max:50).
cpu0_L1I next line prefetcher
Off-chip DRAM Size: 4 GiB Channels: 1 Width: 64-bit Data Rate: 3200 MT/s
Heartbeat CPU 0 instructions: 10000000 cycles: 2500391 heartbeat IPC: 3.99938 cumulative IPC: 3.99938 (Simulation time: 0 hr 0 min 36 sec) 
Heartbeat CPU 0 instructions: 20000002 cycles: 5000477 heartbeat IPC: 3.99987 cumulative IPC: 3.99962 (Simulation time: 0 hr 1 min 13 sec) 
Heartbeat CPU 0 instructions: 30000003 cycles: 7500634 heartbeat IPC: 3.99975 cumulative IPC: 3.99967 (Simulation time: 0 hr 1 min 50 sec) 
Heartbeat CPU 0 instructions: 40000002 cycles: 10001153 heartbeat IPC: 3.99917 cumulative IPC: 3.99954 (Simulation time: 0 hr 2 min 29 sec) 
Heartbeat CPU 0 instructions: 50000003 cycles: 12576481 heartbeat IPC: 3.88301 cumulative IPC: 3.97568 (Simulation time: 0 hr 3 min 7 sec) 
Warmup finished CPU 0 instructions: 50000003 cycles: 12576482 cumulative IPC: 3.97568 (Simulation time: 0 hr 3 min 7 sec) 

Warmup complete CPU 0 instructions: 50000003 cycles: 12576482 (Simulation time: 0 hr 3 min 7 sec) 

Heartbeat CPU 0 instructions: 60000003 cycles: 29053135 heartbeat IPC: 0.60692 cumulative IPC: 0.60692 (Simulation time: 0 hr 4 min 14 sec) 
Heartbeat CPU 0 instructions: 70000001 cycles: 49048791 heartbeat IPC: 0.500109 cumulative IPC: 0.548362 (Simulation time: 0 hr 5 min 24 sec) 
Heartbeat CPU 0 instructions: 80000002 cycles: 78599110 heartbeat IPC: 0.338406 cumulative IPC: 0.45439 (Simulation time: 0 hr 6 min 45 sec) 
Heartbeat CPU 0 instructions: 90000001 cycles: 107703159 heartbeat IPC: 0.343595 cumulative IPC: 0.420492 (Simulation time: 0 hr 8 min 7 sec) 
Heartbeat CPU 0 instructions: 100000003 cycles: 137266288 heartbeat IPC: 0.33826 cumulative IPC: 0.400996 (Simulation time: 0 hr 9 min 29 sec) 
Heartbeat CPU 0 instructions: 110000000 cycles: 165264730 heartbeat IPC: 0.357163 cumulative IPC: 0.392958 (Simulation time: 0 hr 10 min 49 sec) 
Heartbeat CPU 0 instructions: 120000003 cycles: 195118454 heartbeat IPC: 0.334967 cumulative IPC: 0.383474 (Simulation time: 0 hr 12 min 12 sec) 
Heartbeat CPU 0 instructions: 130000001 cycles: 224641207 heartbeat IPC: 0.338722 cumulative IPC: 0.377244 (Simulation time: 0 hr 13 min 35 sec) 
Heartbeat CPU 0 instructions: 140000001 cycles: 254963332 heartbeat IPC: 0.329793 cumulative IPC: 0.371308 (Simulation time: 0 hr 14 min 59 sec) 
Heartbeat CPU 0 instructions: 150000001 cycles: 284292240 heartbeat IPC: 0.340961 cumulative IPC: 0.368032 (Simulation time: 0 hr 16 min 21 sec) 
Simulation finished CPU 0 instructions: 100000003 cycles: 271715760 cumulative IPC: 0.368032 (Simulation time: 0 hr 16 min 21 sec) 

Simulation complete CPU 0 instructions: 100000003 cycles: 271715760 (Simulation time: 0 hr 16 min 21 sec) 


ChampSim completed all CPUs

Saving instructions large page distribution to /home/bsc/bsc018186/scratch/itp_asplos25_AE/dump/smt_srv540_ap_srv194_ap_1024i.pdst...
Saving data large page distribution to /home/bsc/bsc018186/scratch/itp_asplos25_AE/dump/smt_srv540_ap_srv194_ap_1024i.pdst...
=== Simulation ===
CPU 0 runs /gpfs/projects/bsc18/MN4/bsc18/romol/ChampSim/traces/qualcomm_srv/smt_srv540_ap_srv194_ap_1024i.champsimtrace.xz

Region of Interest Statistics

CPU 0 cumulative IPC: 0.368032 instructions: 100000003 cycles: 271715760
CPU 0 Branch Prediction Accuracy: 76.976% MPKI: 43.8381 Average ROB Occupancy at Mispredict: 10.7366
Branch type MPKI
BRANCH_DIRECT_JUMP: 1.35577
BRANCH_INDIRECT: 23.1014
BRANCH_CONDITIONAL: 12.2343
BRANCH_DIRECT_CALL: 2.59586
BRANCH_INDIRECT_CALL: 1.11218
BRANCH_RETURN: 3.43864

Instructions large pages: 0
Instructions small pages: 10995
Large page distribution for instructions: 0%

Data large pages: 0
Data small pages: 9231
Large page distribution for data: 0%

cpu0_L1I TOTAL       ACCESS:   40059475  HIT:   31346473  MISS:    8713002  iACCESS:   40059475  iHIT:   31346473  iMISS:    8713002  dACCESS:          0  dHIT:          0  dMISS:          0  itACCESS:          0  itHIT:          0  itMISS:          0  dtACCESS:          0  dtHIT:          0  dtMISS:          0
cpu0_L1I LOAD         ACCESS:   11499738  HIT:    9125418  MISS:    2374320  iACCESS:   11499738  iHIT:    9125418  iMISS:    2374320  dACCESS:          0  dHIT:          0  dMISS:          0  itACCESS:          0  itHIT:          0  itMISS:          0  dtACCESS:          0  dtHIT:          0  dtMISS:          0
cpu0_L1I RFO          ACCESS:          0  HIT:          0  MISS:          0  iACCESS:          0  iHIT:          0  iMISS:          0  dACCESS:          0  dHIT:          0  dMISS:          0  itACCESS:          0  itHIT:          0  itMISS:          0  dtACCESS:          0  dtHIT:          0  dtMISS:          0
cpu0_L1I PREFETCH     ACCESS:   28559737  HIT:   22221055  MISS:    6338682  iACCESS:   28559737  iHIT:   22221055  iMISS:    6338682  dACCESS:          0  dHIT:          0  dMISS:          0  itACCESS:          0  itHIT:          0  itMISS:          0  dtACCESS:          0  dtHIT:          0  dtMISS:          0
cpu0_L1I WRITE        ACCESS:          0  HIT:          0  MISS:          0  iACCESS:          0  iHIT:          0  iMISS:          0  dACCESS:          0  dHIT:          0  dMISS:          0  itACCESS:          0  itHIT:          0  itMISS:          0  dtACCESS:          0  dtHIT:          0  dtMISS:          0
cpu0_L1I TRANSLATION  ACCESS:          0  HIT:          0  MISS:          0  iACCESS:          0  iHIT:          0  iMISS:          0  dACCESS:          0  dHIT:          0  dMISS:          0  itACCESS:          0  itHIT:          0  itMISS:          0  dtACCESS:          0  dtHIT:          0  dtMISS:          0
cpu0_L1I PREFETCH  REQUESTED:   30996092  ISSUED:   30994950  CROSSED:          0  USEFUL:    2078409  USELESS:     742371
cpu0_L1I AVERAGE iMISS LATENCY: 24.8379 cycles
cpu0_L1I AVERAGE dMISS LATENCY: 0 cycles
cpu0_L1I AVERAGE itMISS LATENCY: 0 cycles
cpu0_L1I AVERAGE dtMISS LATENCY: 0 cycles
cpu0_L1I PAGE CROSSINGS (TLB HIT):         0 
cpu0_L1I PAGE CROSSINGS (TLB MISS):         0 
cpu0_L1I AVERAGE MISS LATENCY: 24.8379 cycles
cpu0_ITLB TOTAL       ACCESS:   33667559  HIT:   31529257  MISS:    2138302  iACCESS:   33667559  iHIT:   31529257  iMISS:    2138302  dACCESS:          0  dHIT:          0  dMISS:          0  itACCESS:          0  itHIT:          0  itMISS:          0  dtACCESS:          0  dtHIT:          0  dtMISS:          0
cpu0_ITLB LOAD         ACCESS:   33667559  HIT:   31529257  MISS:    2138302  iACCESS:   33667559  iHIT:   31529257  iMISS:    2138302  dACCESS:          0  dHIT:          0  dMISS:          0  itACCESS:          0  itHIT:          0  itMISS:          0  dtACCESS:          0  dtHIT:          0  dtMISS:          0
cpu0_ITLB RFO          ACCESS:          0  HIT:          0  MISS:          0  iACCESS:          0  iHIT:          0  iMISS:          0  dACCESS:          0  dHIT:          0  dMISS:          0  itACCESS:          0  itHIT:          0  itMISS:          0  dtACCESS:          0  dtHIT:          0  dtMISS:          0
cpu0_ITLB PREFETCH     ACCESS:          0  HIT:          0  MISS:          0  iACCESS:          0  iHIT:          0  iMISS:          0  dACCESS:          0  dHIT:          0  dMISS:          0  itACCESS:          0  itHIT:          0  itMISS:          0  dtACCESS:          0  dtHIT:          0  dtMISS:          0
cpu0_ITLB WRITE        ACCESS:          0  HIT:          0  MISS:          0  iACCESS:          0  iHIT:          0  iMISS:          0  dACCESS:          0  dHIT:          0  dMISS:          0  itACCESS:          0  itHIT:          0  itMISS:          0  dtACCESS:          0  dtHIT:          0  dtMISS:          0
cpu0_ITLB TRANSLATION  ACCESS:          0  HIT:          0  MISS:          0  iACCESS:          0  iHIT:          0  iMISS:          0  dACCESS:          0  dHIT:          0  dMISS:          0  itACCESS:          0  itHIT:          0  itMISS:          0  dtACCESS:          0  dtHIT:          0  dtMISS:          0
cpu0_ITLB PREFETCH  REQUESTED:          0  ISSUED:          0  CROSSED:          0  USEFUL:     376297  USELESS:      80788
cpu0_ITLB AVERAGE iMISS LATENCY: 5.96856 cycles
cpu0_ITLB AVERAGE dMISS LATENCY: 0 cycles
cpu0_ITLB AVERAGE itMISS LATENCY: 0 cycles
cpu0_ITLB AVERAGE dtMISS LATENCY: 0 cycles
cpu0_ITLB PAGE CROSSINGS (TLB HIT):         0 
cpu0_ITLB PAGE CROSSINGS (TLB MISS):         0 
cpu0_ITLB AVERAGE MISS LATENCY: 5.96856 cycles
cpu0_DTLB TOTAL       ACCESS:   30312459  HIT:   25083835  MISS:    5228624  iACCESS:          0  iHIT:          0  iMISS:          0  dACCESS:   30312459  dHIT:   25083835  dMISS:    5228624  itACCESS:          0  itHIT:          0  itMISS:          0  dtACCESS:          0  dtHIT:          0  dtMISS:          0
cpu0_DTLB LOAD         ACCESS:   30312459  HIT:   25083835  MISS:    5228624  iACCESS:          0  iHIT:          0  iMISS:          0  dACCESS:   30312459  dHIT:   25083835  dMISS:    5228624  itACCESS:          0  itHIT:          0  itMISS:          0  dtACCESS:          0  dtHIT:          0  dtMISS:          0
cpu0_DTLB RFO          ACCESS:          0  HIT:          0  MISS:          0  iACCESS:          0  iHIT:          0  iMISS:          0  dACCESS:          0  dHIT:          0  dMISS:          0  itACCESS:          0  itHIT:          0  itMISS:          0  dtACCESS:          0  dtHIT:          0  dtMISS:          0
cpu0_DTLB PREFETCH     ACCESS:          0  HIT:          0  MISS:          0  iACCESS:          0  iHIT:          0  iMISS:          0  dACCESS:          0  dHIT:          0  dMISS:          0  itACCESS:          0  itHIT:          0  itMISS:          0  dtACCESS:          0  dtHIT:          0  dtMISS:          0
cpu0_DTLB WRITE        ACCESS:          0  HIT:          0  MISS:          0  iACCESS:          0  iHIT:          0  iMISS:          0  dACCESS:          0  dHIT:          0  dMISS:          0  itACCESS:          0  itHIT:          0  itMISS:          0  dtACCESS:          0  dtHIT:          0  dtMISS:          0
cpu0_DTLB TRANSLATION  ACCESS:          0  HIT:          0  MISS:          0  iACCESS:          0  iHIT:          0  iMISS:          0  dACCESS:          0  dHIT:          0  dMISS:          0  itACCESS:          0  itHIT:          0  itMISS:          0  dtACCESS:          0  dtHIT:          0  dtMISS:          0
cpu0_DTLB PREFETCH  REQUESTED:          0  ISSUED:          0  CROSSED:          0  USEFUL:          0  USELESS:          0
cpu0_DTLB AVERAGE iMISS LATENCY: 0 cycles
cpu0_DTLB AVERAGE dMISS LATENCY: 13.5846 cycles
cpu0_DTLB AVERAGE itMISS LATENCY: 0 cycles
cpu0_DTLB AVERAGE dtMISS LATENCY: 0 cycles
cpu0_DTLB PAGE CROSSINGS (TLB HIT):         0 
cpu0_DTLB PAGE CROSSINGS (TLB MISS):         0 
cpu0_DTLB AVERAGE MISS LATENCY: 13.5846 cycles
cpu0_STLB TOTAL       ACCESS:    3314551  HIT:    2964051  MISS:     350500  iACCESS:     457089  iHIT:     397340  iMISS:      59749  dACCESS:    2857462  dHIT:    2566711  dMISS:     290751  itACCESS:          0  itHIT:          0  itMISS:          0  dtACCESS:          0  dtHIT:          0  dtMISS:          0
cpu0_STLB LOAD         ACCESS:    3314551  HIT:    2964051  MISS:     350500  iACCESS:     457089  iHIT:     397340  iMISS:      59749  dACCESS:    2857462  dHIT:    2566711  dMISS:     290751  itACCESS:          0  itHIT:          0  itMISS:          0  dtACCESS:          0  dtHIT:          0  dtMISS:          0
cpu0_STLB RFO          ACCESS:          0  HIT:          0  MISS:          0  iACCESS:          0  iHIT:          0  iMISS:          0  dACCESS:          0  dHIT:          0  dMISS:          0  itACCESS:          0  itHIT:          0  itMISS:          0  dtACCESS:          0  dtHIT:          0  dtMISS:          0
cpu0_STLB PREFETCH     ACCESS:          0  HIT:          0  MISS:          0  iACCESS:          0  iHIT:          0  iMISS:          0  dACCESS:          0  dHIT:          0  dMISS:          0  itACCESS:          0  itHIT:          0  itMISS:          0  dtACCESS:          0  dtHIT:          0  dtMISS:          0
cpu0_STLB WRITE        ACCESS:          0  HIT:          0  MISS:          0  iACCESS:          0  iHIT:          0  iMISS:          0  dACCESS:          0  dHIT:          0  dMISS:          0  itACCESS:          0  itHIT:          0  itMISS:          0  dtACCESS:          0  dtHIT:          0  dtMISS:          0
cpu0_STLB TRANSLATION  ACCESS:          0  HIT:          0  MISS:          0  iACCESS:          0  iHIT:          0  iMISS:          0  dACCESS:          0  dHIT:          0  dMISS:          0  itACCESS:          0  itHIT:          0  itMISS:          0  dtACCESS:          0  dtHIT:          0  dtMISS:          0
cpu0_STLB PREFETCH  REQUESTED:          0  ISSUED:          0  CROSSED:          0  USEFUL:          0  USELESS:          0
cpu0_STLB AVERAGE iMISS LATENCY: 26.1517 cycles
cpu0_STLB AVERAGE dMISS LATENCY: 136.656 cycles
cpu0_STLB AVERAGE itMISS LATENCY: 0 cycles
cpu0_STLB AVERAGE dtMISS LATENCY: 0 cycles
cpu0_STLB PAGE CROSSINGS (TLB HIT):         0 
cpu0_STLB PAGE CROSSINGS (TLB MISS):         0 
cpu0_STLB AVERAGE MISS LATENCY: 162.807 cycles
cpu0_L1D TOTAL       ACCESS:   47851235  HIT:   39575200  MISS:    8276035  iACCESS:          0  iHIT:          0  iMISS:          0  dACCESS:   47318665  dHIT:   39547174  dMISS:    7771491  itACCESS:      69891  itHIT:       5555  itMISS:      64336  dtACCESS:     462679  dtHIT:      22471  dtMISS:     440208
cpu0_L1D LOAD         ACCESS:   22361709  HIT:   18215962  MISS:    4145747  iACCESS:          0  iHIT:          0  iMISS:          0  dACCESS:   22361709  dHIT:   18215962  dMISS:    4145747  itACCESS:          0  itHIT:          0  itMISS:          0  dtACCESS:          0  dtHIT:          0  dtMISS:          0
cpu0_L1D RFO          ACCESS:          0  HIT:          0  MISS:          0  iACCESS:          0  iHIT:          0  iMISS:          0  dACCESS:          0  dHIT:          0  dMISS:          0  itACCESS:          0  itHIT:          0  itMISS:          0  dtACCESS:          0  dtHIT:          0  dtMISS:          0
cpu0_L1D PREFETCH     ACCESS:   14900105  HIT:   11890425  MISS:    3009680  iACCESS:          0  iHIT:          0  iMISS:          0  dACCESS:   14900105  dHIT:   11890425  dMISS:    3009680  itACCESS:          0  itHIT:          0  itMISS:          0  dtACCESS:          0  dtHIT:          0  dtMISS:          0
cpu0_L1D WRITE        ACCESS:   10056851  HIT:    9440787  MISS:     616064  iACCESS:          0  iHIT:          0  iMISS:          0  dACCESS:   10056851  dHIT:    9440787  dMISS:     616064  itACCESS:          0  itHIT:          0  itMISS:          0  dtACCESS:          0  dtHIT:          0  dtMISS:          0
cpu0_L1D TRANSLATION  ACCESS:     532570  HIT:      28026  MISS:     504544  iACCESS:          0  iHIT:          0  iMISS:          0  dACCESS:          0  dHIT:          0  dMISS:          0  itACCESS:      69891  itHIT:       5555  itMISS:      64336  dtACCESS:     462679  dtHIT:      22471  dtMISS:     440208
cpu0_L1D PREFETCH  REQUESTED:   22361709  ISSUED:   18811922  CROSSED:          0  USEFUL:     331542  USELESS:     997730
cpu0_L1D AVERAGE iMISS LATENCY: 0 cycles
cpu0_L1D AVERAGE dMISS LATENCY: 36.8965 cycles
cpu0_L1D AVERAGE itMISS LATENCY: 1.03437 cycles
cpu0_L1D AVERAGE dtMISS LATENCY: 5.22891 cycles
cpu0_L1D PAGE CROSSINGS (TLB HIT):         0 
cpu0_L1D PAGE CROSSINGS (TLB MISS):         0 
cpu0_L1D AVERAGE MISS LATENCY: 43.1598 cycles
cpu0_L2C TOTAL       ACCESS:    9504319  HIT:    2096856  MISS:    7407463  iACCESS:    3596398  iHIT:     731667  iMISS:    2864731  dACCESS:    5432106  dHIT:    1181515  dMISS:    4250591  itACCESS:      64246  itHIT:      15877  itMISS:      48369  dtACCESS:     411569  dtHIT:     167797  dtMISS:     243772
cpu0_L2C LOAD         ACCESS:    3137732  HIT:     786191  MISS:    2351541  iACCESS:     806607  iHIT:     105682  iMISS:     700925  dACCESS:    2331125  dHIT:     680509  dMISS:    1650616  itACCESS:          0  itHIT:          0  itMISS:          0  dtACCESS:          0  dtHIT:          0  dtMISS:          0
cpu0_L2C RFO          ACCESS:     241274  HIT:      47594  MISS:     193680  iACCESS:          0  iHIT:          0  iMISS:          0  dACCESS:     241274  dHIT:      47594  dMISS:     193680  itACCESS:          0  itHIT:          0  itMISS:          0  dtACCESS:          0  dtHIT:          0  dtMISS:          0
cpu0_L2C PREFETCH     ACCESS:    5314462  HIT:     976442  MISS:    4338020  iACCESS:    2789791  iHIT:     625985  iMISS:    2163806  dACCESS:    2524671  dHIT:     350457  dMISS:    2174214  itACCESS:          0  itHIT:          0  itMISS:          0  dtACCESS:          0  dtHIT:          0  dtMISS:          0
cpu0_L2C WRITE        ACCESS:     335036  HIT:     102955  MISS:     232081  iACCESS:          0  iHIT:          0  iMISS:          0  dACCESS:     335036  dHIT:     102955  dMISS:     232081  itACCESS:          0  itHIT:          0  itMISS:          0  dtACCESS:          0  dtHIT:          0  dtMISS:          0
cpu0_L2C TRANSLATION  ACCESS:     475815  HIT:     183674  MISS:     292141  iACCESS:          0  iHIT:          0  iMISS:          0  dACCESS:          0  dHIT:          0  dMISS:          0  itACCESS:      64246  itHIT:      15877  itMISS:      48369  dtACCESS:     411569  dtHIT:     167797  dtMISS:     243772
cpu0_L2C PREFETCH  REQUESTED:    1410750  ISSUED:    1410747  CROSSED:          0  USEFUL:     367775  USELESS:     460645
cpu0_L2C AVERAGE iMISS LATENCY: 25.102 cycles
cpu0_L2C AVERAGE dMISS LATENCY: 47.7753 cycles
cpu0_L2C AVERAGE itMISS LATENCY: 1.07083 cycles
cpu0_L2C AVERAGE dtMISS LATENCY: 5.30649 cycles
cpu0_L2C PAGE CROSSINGS (TLB HIT):         0 
cpu0_L2C PAGE CROSSINGS (TLB MISS):         0 
cpu0_L2C AVERAGE MISS LATENCY: 79.2545 cycles
LLC TOTAL       ACCESS:    7230425  HIT:    4614479  MISS:    2615946  iACCESS:    2782585  iHIT:    1952259  iMISS:     830326  dACCESS:    4155699  dHIT:    2589384  dMISS:    1566315  itACCESS:      48369  itHIT:       9222  itMISS:      39147  dtACCESS:     243772  dtHIT:      63614  dtMISS:     180158
LLC LOAD         ACCESS:    2343984  HIT:    1709234  MISS:     634750  iACCESS:     699707  iHIT:     525600  iMISS:     174107  dACCESS:    1644277  dHIT:    1183634  dMISS:     460643  itACCESS:          0  itHIT:          0  itMISS:          0  dtACCESS:          0  dtHIT:          0  dtMISS:          0
LLC RFO          ACCESS:     193659  HIT:     101172  MISS:      92487  iACCESS:          0  iHIT:          0  iMISS:          0  dACCESS:     193659  dHIT:     101172  dMISS:      92487  itACCESS:          0  itHIT:          0  itMISS:          0  dtACCESS:          0  dtHIT:          0  dtMISS:          0
LLC PREFETCH     ACCESS:    4143261  HIT:    2479986  MISS:    1663275  iACCESS:    2082878  iHIT:    1426659  iMISS:     656219  dACCESS:    2060383  dHIT:    1053327  dMISS:    1007056  itACCESS:          0  itHIT:          0  itMISS:          0  dtACCESS:          0  dtHIT:          0  dtMISS:          0
LLC WRITE        ACCESS:     257380  HIT:     251251  MISS:       6129  iACCESS:          0  iHIT:          0  iMISS:          0  dACCESS:     257380  dHIT:     251251  dMISS:       6129  itACCESS:          0  itHIT:          0  itMISS:          0  dtACCESS:          0  dtHIT:          0  dtMISS:          0
LLC TRANSLATION  ACCESS:     292141  HIT:      72836  MISS:     219305  iACCESS:          0  iHIT:          0  iMISS:          0  dACCESS:          0  dHIT:          0  dMISS:          0  itACCESS:      48369  itHIT:       9222  itMISS:      39147  dtACCESS:     243772  dtHIT:      63614  dtMISS:     180158
LLC PREFETCH  REQUESTED:          0  ISSUED:          0  CROSSED:          0  USEFUL:          0  USELESS:          0
LLC AVERAGE iMISS LATENCY: 50.4244 cycles
LLC AVERAGE dMISS LATENCY: 107.301 cycles
LLC AVERAGE itMISS LATENCY: 2.66727 cycles
LLC AVERAGE dtMISS LATENCY: 13.1927 cycles
LLC PAGE CROSSINGS (TLB HIT):         0 
LLC PAGE CROSSINGS (TLB MISS):         0 
LLC AVERAGE MISS LATENCY: 173.586 cycles

PageTableWalker TOTAL       ACCESS:     174166  
PageTableWalker AVERAGE LATENCY: 6.18113 cycles
PageTableWalker TOTAL LATENCY: 1076541 cycles

DRAM Statistics
Channel 0
 RQ ROW_BUFFER_HIT:     562862
  ROW_BUFFER_MISS:    2027803
 AVG DBUS CONGESTED CYCLE:    3.65566
 WQ ROW_BUFFER_HIT:      62959
  ROW_BUFFER_MISS:      61483  FULL:          0

