last_page:0x200000000000000
VMEM_RES_CAP:0x100000
PAGE_SIZE:4096
LOG2_PAGE_SIZE:12
LOG2_PAGE_TABLE_SIZE:9
page_table_levels:5
WARNING: physical memory size is smaller than virtual memory size
FDiP enabled with aggresivity 16

*** ChampSim Multicore Out-of-Order Simulator ***

Warmup Instructions: 50000000
Simulation Instructions: 100000000
Number of CPUs: 1
Small page size: 4096
Large page size: 2097152

CPU 0 Bimodal branch predictor
Basic BTB sets: 1024 ways: 8 indirect buffer size: 4096 RAS size: 64
Instruction page size distrubution: 0
Loading instruction page size distribution from /home/bsc/bsc018186/scratch/itp_asplos25_AE/dump/smt_srv540_ap_srv224_ap_1024i.pdst
Data page size distrubution: 0
Loading data page size distribution from /home/bsc/bsc018186/scratch/itp_asplos25_AE/dump/smt_srv540_ap_srv224_ap_1024i.pdst
cpu0_L2C IP-based stride prefetcher
cpu0_L1D next line prefetcher
cpu0_STLB using iTP with max lru@8
cpu0_STLB using iTP with instr@0 and data@2
Init sat counter with 3 bits (max:50).
cpu0_L1I next line prefetcher
Off-chip DRAM Size: 4 GiB Channels: 1 Width: 64-bit Data Rate: 3200 MT/s
Heartbeat CPU 0 instructions: 10000002 cycles: 2500293 heartbeat IPC: 3.99954 cumulative IPC: 3.99954 (Simulation time: 0 hr 0 min 36 sec) 
Heartbeat CPU 0 instructions: 20000003 cycles: 5000399 heartbeat IPC: 3.99984 cumulative IPC: 3.99969 (Simulation time: 0 hr 1 min 14 sec) 
Heartbeat CPU 0 instructions: 30000003 cycles: 7500609 heartbeat IPC: 3.99967 cumulative IPC: 3.99968 (Simulation time: 0 hr 1 min 51 sec) 
Heartbeat CPU 0 instructions: 40000002 cycles: 10047674 heartbeat IPC: 3.92609 cumulative IPC: 3.98103 (Simulation time: 0 hr 2 min 30 sec) 
Heartbeat CPU 0 instructions: 50000002 cycles: 12606380 heartbeat IPC: 3.90823 cumulative IPC: 3.96625 (Simulation time: 0 hr 3 min 10 sec) 
Warmup finished CPU 0 instructions: 50000002 cycles: 12606381 cumulative IPC: 3.96625 (Simulation time: 0 hr 3 min 10 sec) 

Warmup complete CPU 0 instructions: 50000002 cycles: 12606381 (Simulation time: 0 hr 3 min 10 sec) 

Heartbeat CPU 0 instructions: 60000002 cycles: 28678027 heartbeat IPC: 0.622214 cumulative IPC: 0.622214 (Simulation time: 0 hr 4 min 16 sec) 
Heartbeat CPU 0 instructions: 70000003 cycles: 54944107 heartbeat IPC: 0.38072 cumulative IPC: 0.472392 (Simulation time: 0 hr 5 min 33 sec) 
Heartbeat CPU 0 instructions: 80000002 cycles: 80987581 heartbeat IPC: 0.383974 cumulative IPC: 0.438718 (Simulation time: 0 hr 6 min 50 sec) 
Heartbeat CPU 0 instructions: 90000000 cycles: 108433967 heartbeat IPC: 0.364347 cumulative IPC: 0.417417 (Simulation time: 0 hr 8 min 8 sec) 
Heartbeat CPU 0 instructions: 100000001 cycles: 135909381 heartbeat IPC: 0.363962 cumulative IPC: 0.405506 (Simulation time: 0 hr 9 min 27 sec) 
Heartbeat CPU 0 instructions: 110000001 cycles: 162040411 heartbeat IPC: 0.382687 cumulative IPC: 0.401515 (Simulation time: 0 hr 10 min 44 sec) 
Heartbeat CPU 0 instructions: 120000004 cycles: 188597054 heartbeat IPC: 0.376554 cumulative IPC: 0.397749 (Simulation time: 0 hr 12 min 2 sec) 
Heartbeat CPU 0 instructions: 130000003 cycles: 215948751 heartbeat IPC: 0.365608 cumulative IPC: 0.393426 (Simulation time: 0 hr 13 min 21 sec) 
Heartbeat CPU 0 instructions: 140000002 cycles: 243000426 heartbeat IPC: 0.369663 cumulative IPC: 0.390636 (Simulation time: 0 hr 15 min 12 sec) 
Heartbeat CPU 0 instructions: 150000001 cycles: 269093510 heartbeat IPC: 0.383244 cumulative IPC: 0.389884 (Simulation time: 0 hr 17 min 6 sec) 
Simulation finished CPU 0 instructions: 100000004 cycles: 256487131 cumulative IPC: 0.389884 (Simulation time: 0 hr 17 min 6 sec) 

Simulation complete CPU 0 instructions: 100000004 cycles: 256487131 (Simulation time: 0 hr 17 min 6 sec) 


ChampSim completed all CPUs

Saving instructions large page distribution to /home/bsc/bsc018186/scratch/itp_asplos25_AE/dump/smt_srv540_ap_srv224_ap_1024i.pdst...
Saving data large page distribution to /home/bsc/bsc018186/scratch/itp_asplos25_AE/dump/smt_srv540_ap_srv224_ap_1024i.pdst...
=== Simulation ===
CPU 0 runs /gpfs/projects/bsc18/MN4/bsc18/romol/ChampSim/traces/qualcomm_srv/smt_srv540_ap_srv224_ap_1024i.champsimtrace.xz

Region of Interest Statistics

CPU 0 cumulative IPC: 0.389884 instructions: 100000004 cycles: 256487131
CPU 0 Branch Prediction Accuracy: 76.9778% MPKI: 42.7248 Average ROB Occupancy at Mispredict: 11.4355
Branch type MPKI
BRANCH_DIRECT_JUMP: 1.25324
BRANCH_INDIRECT: 22.4673
BRANCH_CONDITIONAL: 12.3144
BRANCH_DIRECT_CALL: 2.36653
BRANCH_INDIRECT_CALL: 1.00633
BRANCH_RETURN: 3.31707

Instructions large pages: 0
Instructions small pages: 13228
Large page distribution for instructions: 0%

Data large pages: 0
Data small pages: 11873
Large page distribution for data: 0%

cpu0_L1I TOTAL       ACCESS:   39888236  HIT:   31366800  MISS:    8521436  iACCESS:   39888236  iHIT:   31366800  iMISS:    8521436  dACCESS:          0  dHIT:          0  dMISS:          0  itACCESS:          0  itHIT:          0  itMISS:          0  dtACCESS:          0  dtHIT:          0  dtMISS:          0
cpu0_L1I LOAD         ACCESS:   11751050  HIT:    9439107  MISS:    2311943  iACCESS:   11751050  iHIT:    9439107  iMISS:    2311943  dACCESS:          0  dHIT:          0  dMISS:          0  itACCESS:          0  itHIT:          0  itMISS:          0  dtACCESS:          0  dtHIT:          0  dtMISS:          0
cpu0_L1I RFO          ACCESS:          0  HIT:          0  MISS:          0  iACCESS:          0  iHIT:          0  iMISS:          0  dACCESS:          0  dHIT:          0  dMISS:          0  itACCESS:          0  itHIT:          0  itMISS:          0  dtACCESS:          0  dtHIT:          0  dtMISS:          0
cpu0_L1I PREFETCH     ACCESS:   28137186  HIT:   21927693  MISS:    6209493  iACCESS:   28137186  iHIT:   21927693  iMISS:    6209493  dACCESS:          0  dHIT:          0  dMISS:          0  itACCESS:          0  itHIT:          0  itMISS:          0  dtACCESS:          0  dtHIT:          0  dtMISS:          0
cpu0_L1I WRITE        ACCESS:          0  HIT:          0  MISS:          0  iACCESS:          0  iHIT:          0  iMISS:          0  dACCESS:          0  dHIT:          0  dMISS:          0  itACCESS:          0  itHIT:          0  itMISS:          0  dtACCESS:          0  dtHIT:          0  dtMISS:          0
cpu0_L1I TRANSLATION  ACCESS:          0  HIT:          0  MISS:          0  iACCESS:          0  iHIT:          0  iMISS:          0  dACCESS:          0  dHIT:          0  dMISS:          0  itACCESS:          0  itHIT:          0  itMISS:          0  dtACCESS:          0  dtHIT:          0  dtMISS:          0
cpu0_L1I PREFETCH  REQUESTED:   30791148  ISSUED:   30789954  CROSSED:          0  USEFUL:    2057032  USELESS:     696815
cpu0_L1I AVERAGE iMISS LATENCY: 23.3064 cycles
cpu0_L1I AVERAGE dMISS LATENCY: 0 cycles
cpu0_L1I AVERAGE itMISS LATENCY: 0 cycles
cpu0_L1I AVERAGE dtMISS LATENCY: 0 cycles
cpu0_L1I PAGE CROSSINGS (TLB HIT):         0 
cpu0_L1I PAGE CROSSINGS (TLB MISS):         0 
cpu0_L1I AVERAGE MISS LATENCY: 23.3064 cycles
cpu0_ITLB TOTAL       ACCESS:   33347004  HIT:   31302072  MISS:    2044932  iACCESS:   33347004  iHIT:   31302072  iMISS:    2044932  dACCESS:          0  dHIT:          0  dMISS:          0  itACCESS:          0  itHIT:          0  itMISS:          0  dtACCESS:          0  dtHIT:          0  dtMISS:          0
cpu0_ITLB LOAD         ACCESS:   33347004  HIT:   31302072  MISS:    2044932  iACCESS:   33347004  iHIT:   31302072  iMISS:    2044932  dACCESS:          0  dHIT:          0  dMISS:          0  itACCESS:          0  itHIT:          0  itMISS:          0  dtACCESS:          0  dtHIT:          0  dtMISS:          0
cpu0_ITLB RFO          ACCESS:          0  HIT:          0  MISS:          0  iACCESS:          0  iHIT:          0  iMISS:          0  dACCESS:          0  dHIT:          0  dMISS:          0  itACCESS:          0  itHIT:          0  itMISS:          0  dtACCESS:          0  dtHIT:          0  dtMISS:          0
cpu0_ITLB PREFETCH     ACCESS:          0  HIT:          0  MISS:          0  iACCESS:          0  iHIT:          0  iMISS:          0  dACCESS:          0  dHIT:          0  dMISS:          0  itACCESS:          0  itHIT:          0  itMISS:          0  dtACCESS:          0  dtHIT:          0  dtMISS:          0
cpu0_ITLB WRITE        ACCESS:          0  HIT:          0  MISS:          0  iACCESS:          0  iHIT:          0  iMISS:          0  dACCESS:          0  dHIT:          0  dMISS:          0  itACCESS:          0  itHIT:          0  itMISS:          0  dtACCESS:          0  dtHIT:          0  dtMISS:          0
cpu0_ITLB TRANSLATION  ACCESS:          0  HIT:          0  MISS:          0  iACCESS:          0  iHIT:          0  iMISS:          0  dACCESS:          0  dHIT:          0  dMISS:          0  itACCESS:          0  itHIT:          0  itMISS:          0  dtACCESS:          0  dtHIT:          0  dtMISS:          0
cpu0_ITLB PREFETCH  REQUESTED:          0  ISSUED:          0  CROSSED:          0  USEFUL:     356762  USELESS:      73942
cpu0_ITLB AVERAGE iMISS LATENCY: 5.40631 cycles
cpu0_ITLB AVERAGE dMISS LATENCY: 0 cycles
cpu0_ITLB AVERAGE itMISS LATENCY: 0 cycles
cpu0_ITLB AVERAGE dtMISS LATENCY: 0 cycles
cpu0_ITLB PAGE CROSSINGS (TLB HIT):         0 
cpu0_ITLB PAGE CROSSINGS (TLB MISS):         0 
cpu0_ITLB AVERAGE MISS LATENCY: 5.40631 cycles
cpu0_DTLB TOTAL       ACCESS:   29654459  HIT:   24925225  MISS:    4729234  iACCESS:          0  iHIT:          0  iMISS:          0  dACCESS:   29654459  dHIT:   24925225  dMISS:    4729234  itACCESS:          0  itHIT:          0  itMISS:          0  dtACCESS:          0  dtHIT:          0  dtMISS:          0
cpu0_DTLB LOAD         ACCESS:   29654459  HIT:   24925225  MISS:    4729234  iACCESS:          0  iHIT:          0  iMISS:          0  dACCESS:   29654459  dHIT:   24925225  dMISS:    4729234  itACCESS:          0  itHIT:          0  itMISS:          0  dtACCESS:          0  dtHIT:          0  dtMISS:          0
cpu0_DTLB RFO          ACCESS:          0  HIT:          0  MISS:          0  iACCESS:          0  iHIT:          0  iMISS:          0  dACCESS:          0  dHIT:          0  dMISS:          0  itACCESS:          0  itHIT:          0  itMISS:          0  dtACCESS:          0  dtHIT:          0  dtMISS:          0
cpu0_DTLB PREFETCH     ACCESS:          0  HIT:          0  MISS:          0  iACCESS:          0  iHIT:          0  iMISS:          0  dACCESS:          0  dHIT:          0  dMISS:          0  itACCESS:          0  itHIT:          0  itMISS:          0  dtACCESS:          0  dtHIT:          0  dtMISS:          0
cpu0_DTLB WRITE        ACCESS:          0  HIT:          0  MISS:          0  iACCESS:          0  iHIT:          0  iMISS:          0  dACCESS:          0  dHIT:          0  dMISS:          0  itACCESS:          0  itHIT:          0  itMISS:          0  dtACCESS:          0  dtHIT:          0  dtMISS:          0
cpu0_DTLB TRANSLATION  ACCESS:          0  HIT:          0  MISS:          0  iACCESS:          0  iHIT:          0  iMISS:          0  dACCESS:          0  dHIT:          0  dMISS:          0  itACCESS:          0  itHIT:          0  itMISS:          0  dtACCESS:          0  dtHIT:          0  dtMISS:          0
cpu0_DTLB PREFETCH  REQUESTED:          0  ISSUED:          0  CROSSED:          0  USEFUL:          0  USELESS:          0
cpu0_DTLB AVERAGE iMISS LATENCY: 0 cycles
cpu0_DTLB AVERAGE dMISS LATENCY: 14.2963 cycles
cpu0_DTLB AVERAGE itMISS LATENCY: 0 cycles
cpu0_DTLB AVERAGE dtMISS LATENCY: 0 cycles
cpu0_DTLB PAGE CROSSINGS (TLB HIT):         0 
cpu0_DTLB PAGE CROSSINGS (TLB MISS):         0 
cpu0_DTLB AVERAGE MISS LATENCY: 14.2963 cycles
cpu0_STLB TOTAL       ACCESS:    3033181  HIT:    2696298  MISS:     336883  iACCESS:     430722  iHIT:     379720  iMISS:      51002  dACCESS:    2602459  dHIT:    2316578  dMISS:     285881  itACCESS:          0  itHIT:          0  itMISS:          0  dtACCESS:          0  dtHIT:          0  dtMISS:          0
cpu0_STLB LOAD         ACCESS:    3033181  HIT:    2696298  MISS:     336883  iACCESS:     430722  iHIT:     379720  iMISS:      51002  dACCESS:    2602459  dHIT:    2316578  dMISS:     285881  itACCESS:          0  itHIT:          0  itMISS:          0  dtACCESS:          0  dtHIT:          0  dtMISS:          0
cpu0_STLB RFO          ACCESS:          0  HIT:          0  MISS:          0  iACCESS:          0  iHIT:          0  iMISS:          0  dACCESS:          0  dHIT:          0  dMISS:          0  itACCESS:          0  itHIT:          0  itMISS:          0  dtACCESS:          0  dtHIT:          0  dtMISS:          0
cpu0_STLB PREFETCH     ACCESS:          0  HIT:          0  MISS:          0  iACCESS:          0  iHIT:          0  iMISS:          0  dACCESS:          0  dHIT:          0  dMISS:          0  itACCESS:          0  itHIT:          0  itMISS:          0  dtACCESS:          0  dtHIT:          0  dtMISS:          0
cpu0_STLB WRITE        ACCESS:          0  HIT:          0  MISS:          0  iACCESS:          0  iHIT:          0  iMISS:          0  dACCESS:          0  dHIT:          0  dMISS:          0  itACCESS:          0  itHIT:          0  itMISS:          0  dtACCESS:          0  dtHIT:          0  dtMISS:          0
cpu0_STLB TRANSLATION  ACCESS:          0  HIT:          0  MISS:          0  iACCESS:          0  iHIT:          0  iMISS:          0  dACCESS:          0  dHIT:          0  dMISS:          0  itACCESS:          0  itHIT:          0  itMISS:          0  dtACCESS:          0  dtHIT:          0  dtMISS:          0
cpu0_STLB PREFETCH  REQUESTED:          0  ISSUED:          0  CROSSED:          0  USEFUL:          0  USELESS:          0
cpu0_STLB AVERAGE iMISS LATENCY: 22.774 cycles
cpu0_STLB AVERAGE dMISS LATENCY: 138.29 cycles
cpu0_STLB AVERAGE itMISS LATENCY: 0 cycles
cpu0_STLB AVERAGE dtMISS LATENCY: 0 cycles
cpu0_STLB PAGE CROSSINGS (TLB HIT):         0 
cpu0_STLB PAGE CROSSINGS (TLB MISS):         0 
cpu0_STLB AVERAGE MISS LATENCY: 161.064 cycles
cpu0_L1D TOTAL       ACCESS:   46135282  HIT:   39277336  MISS:    6857946  iACCESS:          0  iHIT:          0  iMISS:          0  dACCESS:   45623249  dHIT:   39250382  dMISS:    6372867  itACCESS:      60007  itHIT:       4392  itMISS:      55615  dtACCESS:     452026  dtHIT:      22562  dtMISS:     429464
cpu0_L1D LOAD         ACCESS:   21374715  HIT:   18130300  MISS:    3244415  iACCESS:          0  iHIT:          0  iMISS:          0  dACCESS:   21374715  dHIT:   18130300  dMISS:    3244415  itACCESS:          0  itHIT:          0  itMISS:          0  dtACCESS:          0  dtHIT:          0  dtMISS:          0
cpu0_L1D RFO          ACCESS:          0  HIT:          0  MISS:          0  iACCESS:          0  iHIT:          0  iMISS:          0  dACCESS:          0  dHIT:          0  dMISS:          0  itACCESS:          0  itHIT:          0  itMISS:          0  dtACCESS:          0  dtHIT:          0  dtMISS:          0
cpu0_L1D PREFETCH     ACCESS:   14224407  HIT:   11646933  MISS:    2577474  iACCESS:          0  iHIT:          0  iMISS:          0  dACCESS:   14224407  dHIT:   11646933  dMISS:    2577474  itACCESS:          0  itHIT:          0  itMISS:          0  dtACCESS:          0  dtHIT:          0  dtMISS:          0
cpu0_L1D WRITE        ACCESS:   10024127  HIT:    9473149  MISS:     550978  iACCESS:          0  iHIT:          0  iMISS:          0  dACCESS:   10024127  dHIT:    9473149  dMISS:     550978  itACCESS:          0  itHIT:          0  itMISS:          0  dtACCESS:          0  dtHIT:          0  dtMISS:          0
cpu0_L1D TRANSLATION  ACCESS:     512033  HIT:      26954  MISS:     485079  iACCESS:          0  iHIT:          0  iMISS:          0  dACCESS:          0  dHIT:          0  dMISS:          0  itACCESS:      60007  itHIT:       4392  itMISS:      55615  dtACCESS:     452026  dtHIT:      22562  dtMISS:     429464
cpu0_L1D PREFETCH  REQUESTED:   21374715  ISSUED:   18554091  CROSSED:          0  USEFUL:     340994  USELESS:     988098
cpu0_L1D AVERAGE iMISS LATENCY: 0 cycles
cpu0_L1D AVERAGE dMISS LATENCY: 39.9968 cycles
cpu0_L1D AVERAGE itMISS LATENCY: 1.04132 cycles
cpu0_L1D AVERAGE dtMISS LATENCY: 5.99735 cycles
cpu0_L1D PAGE CROSSINGS (TLB HIT):         0 
cpu0_L1D PAGE CROSSINGS (TLB MISS):         0 
cpu0_L1D AVERAGE MISS LATENCY: 47.0355 cycles
cpu0_L2C TOTAL       ACCESS:    8938124  HIT:    1920421  MISS:    7017703  iACCESS:    3493161  iHIT:     761764  iMISS:    2731397  dACCESS:    4980238  dHIT:     972053  dMISS:    4008185  itACCESS:      55533  itHIT:      14626  itMISS:      40907  dtACCESS:     409192  dtHIT:     171978  dtMISS:     237214
cpu0_L2C LOAD         ACCESS:    2656728  HIT:     556330  MISS:    2100398  iACCESS:     774036  iHIT:     103330  iMISS:     670706  dACCESS:    1882692  dHIT:     453000  dMISS:    1429692  itACCESS:          0  itHIT:          0  itMISS:          0  dtACCESS:          0  dtHIT:          0  dtMISS:          0
cpu0_L2C RFO          ACCESS:     217145  HIT:      36432  MISS:     180713  iACCESS:          0  iHIT:          0  iMISS:          0  dACCESS:     217145  dHIT:      36432  dMISS:     180713  itACCESS:          0  itHIT:          0  itMISS:          0  dtACCESS:          0  dtHIT:          0  dtMISS:          0
cpu0_L2C PREFETCH     ACCESS:    5265490  HIT:    1033691  MISS:    4231799  iACCESS:    2719125  iHIT:     658434  iMISS:    2060691  dACCESS:    2546365  dHIT:     375257  dMISS:    2171108  itACCESS:          0  itHIT:          0  itMISS:          0  dtACCESS:          0  dtHIT:          0  dtMISS:          0
cpu0_L2C WRITE        ACCESS:     334036  HIT:     107364  MISS:     226672  iACCESS:          0  iHIT:          0  iMISS:          0  dACCESS:     334036  dHIT:     107364  dMISS:     226672  itACCESS:          0  itHIT:          0  itMISS:          0  dtACCESS:          0  dtHIT:          0  dtMISS:          0
cpu0_L2C TRANSLATION  ACCESS:     464725  HIT:     186604  MISS:     278121  iACCESS:          0  iHIT:          0  iMISS:          0  dACCESS:          0  dHIT:          0  dMISS:          0  itACCESS:      55533  itHIT:      14626  itMISS:      40907  dtACCESS:     409192  dtHIT:     171978  dtMISS:     237214
cpu0_L2C PREFETCH  REQUESTED:    1440844  ISSUED:    1440842  CROSSED:          0  USEFUL:     395829  USELESS:     449095
cpu0_L2C AVERAGE iMISS LATENCY: 24.0106 cycles
cpu0_L2C AVERAGE dMISS LATENCY: 46.2509 cycles
cpu0_L2C AVERAGE itMISS LATENCY: 0.940359 cycles
cpu0_L2C AVERAGE dtMISS LATENCY: 5.29953 cycles
cpu0_L2C PAGE CROSSINGS (TLB HIT):         0 
cpu0_L2C PAGE CROSSINGS (TLB MISS):         0 
cpu0_L2C AVERAGE MISS LATENCY: 76.5014 cycles
LLC TOTAL       ACCESS:    6836024  HIT:    4437584  MISS:    2398440  iACCESS:    2645026  iHIT:    1900191  iMISS:     744835  dACCESS:    3912877  dHIT:    2465034  dMISS:    1447843  itACCESS:      40907  itHIT:       8251  itMISS:      32656  dtACCESS:     237214  dtHIT:      64108  dtMISS:     173106
LLC LOAD         ACCESS:    2094853  HIT:    1523244  MISS:     571609  iACCESS:     669262  iHIT:     511595  iMISS:     157667  dACCESS:    1425591  dHIT:    1011649  dMISS:     413942  itACCESS:          0  itHIT:          0  itMISS:          0  dtACCESS:          0  dtHIT:          0  dtMISS:          0
LLC RFO          ACCESS:     180699  HIT:     100579  MISS:      80120  iACCESS:          0  iHIT:          0  iMISS:          0  dACCESS:     180699  dHIT:     100579  dMISS:      80120  itACCESS:          0  itHIT:          0  itMISS:          0  dtACCESS:          0  dtHIT:          0  dtMISS:          0
LLC PREFETCH     ACCESS:    4027384  HIT:    2493724  MISS:    1533660  iACCESS:    1975764  iHIT:    1388596  iMISS:     587168  dACCESS:    2051620  dHIT:    1105128  dMISS:     946492  itACCESS:          0  itHIT:          0  itMISS:          0  dtACCESS:          0  dtHIT:          0  dtMISS:          0
LLC WRITE        ACCESS:     254967  HIT:     247678  MISS:       7289  iACCESS:          0  iHIT:          0  iMISS:          0  dACCESS:     254967  dHIT:     247678  dMISS:       7289  itACCESS:          0  itHIT:          0  itMISS:          0  dtACCESS:          0  dtHIT:          0  dtMISS:          0
LLC TRANSLATION  ACCESS:     278121  HIT:      72359  MISS:     205762  iACCESS:          0  iHIT:          0  iMISS:          0  dACCESS:          0  dHIT:          0  dMISS:          0  itACCESS:      40907  itHIT:       8251  itMISS:      32656  dtACCESS:     237214  dtHIT:      64108  dtMISS:     173106
LLC PREFETCH  REQUESTED:          0  ISSUED:          0  CROSSED:          0  USEFUL:          0  USELESS:          0
LLC AVERAGE iMISS LATENCY: 48.8401 cycles
LLC AVERAGE dMISS LATENCY: 106.442 cycles
LLC AVERAGE itMISS LATENCY: 2.41492 cycles
LLC AVERAGE dtMISS LATENCY: 13.5608 cycles
LLC PAGE CROSSINGS (TLB HIT):         0 
LLC PAGE CROSSINGS (TLB MISS):         0 
LLC AVERAGE MISS LATENCY: 171.258 cycles

PageTableWalker TOTAL       ACCESS:     155942  
PageTableWalker AVERAGE LATENCY: 6.17626 cycles
PageTableWalker TOTAL LATENCY: 963137 cycles

DRAM Statistics
Channel 0
 RQ ROW_BUFFER_HIT:     542726
  ROW_BUFFER_MISS:    1837652
 AVG DBUS CONGESTED CYCLE:     3.6529
 WQ ROW_BUFFER_HIT:      57727
  ROW_BUFFER_MISS:      53047  FULL:          0

