last_page:0x200000000000000
VMEM_RES_CAP:0x100000
PAGE_SIZE:4096
LOG2_PAGE_SIZE:12
LOG2_PAGE_TABLE_SIZE:9
page_table_levels:5
WARNING: physical memory size is smaller than virtual memory size
FDiP enabled with aggresivity 16

*** ChampSim Multicore Out-of-Order Simulator ***

Warmup Instructions: 50000000
Simulation Instructions: 100000000
Number of CPUs: 1
Small page size: 4096
Large page size: 2097152

CPU 0 Bimodal branch predictor
Basic BTB sets: 1024 ways: 8 indirect buffer size: 4096 RAS size: 64
Instruction page size distrubution: 0
Loading instruction page size distribution from /home/bsc/bsc018186/scratch/itp_asplos25_AE/dump/smt_srv540_ap_srv727_ap_1024i.pdst
Data page size distrubution: 0
Loading data page size distribution from /home/bsc/bsc018186/scratch/itp_asplos25_AE/dump/smt_srv540_ap_srv727_ap_1024i.pdst
cpu0_L2C IP-based stride prefetcher
cpu0_L1D next line prefetcher
cpu0_L1I next line prefetcher
Off-chip DRAM Size: 4 GiB Channels: 1 Width: 64-bit Data Rate: 3200 MT/s
Heartbeat CPU 0 instructions: 10000002 cycles: 2500415 heartbeat IPC: 3.99934 cumulative IPC: 3.99934 (Simulation time: 0 hr 0 min 43 sec) 
Heartbeat CPU 0 instructions: 20000003 cycles: 5000819 heartbeat IPC: 3.99936 cumulative IPC: 3.99935 (Simulation time: 0 hr 1 min 28 sec) 
Heartbeat CPU 0 instructions: 30000003 cycles: 7501131 heartbeat IPC: 3.99951 cumulative IPC: 3.9994 (Simulation time: 0 hr 2 min 14 sec) 
Heartbeat CPU 0 instructions: 40000001 cycles: 10001378 heartbeat IPC: 3.99961 cumulative IPC: 3.99945 (Simulation time: 0 hr 2 min 59 sec) 
Heartbeat CPU 0 instructions: 50000001 cycles: 12501575 heartbeat IPC: 3.99969 cumulative IPC: 3.9995 (Simulation time: 0 hr 3 min 41 sec) 
Warmup finished CPU 0 instructions: 50000001 cycles: 12501576 cumulative IPC: 3.9995 (Simulation time: 0 hr 3 min 41 sec) 

Warmup complete CPU 0 instructions: 50000001 cycles: 12501576 (Simulation time: 0 hr 3 min 41 sec) 

Heartbeat CPU 0 instructions: 60000004 cycles: 41671705 heartbeat IPC: 0.342817 cumulative IPC: 0.342817 (Simulation time: 0 hr 5 min 15 sec) 
Heartbeat CPU 0 instructions: 70000000 cycles: 71269361 heartbeat IPC: 0.337865 cumulative IPC: 0.340323 (Simulation time: 0 hr 6 min 50 sec) 
Heartbeat CPU 0 instructions: 80000002 cycles: 101806109 heartbeat IPC: 0.327475 cumulative IPC: 0.33593 (Simulation time: 0 hr 8 min 22 sec) 
Heartbeat CPU 0 instructions: 90000000 cycles: 131398542 heartbeat IPC: 0.337925 cumulative IPC: 0.336426 (Simulation time: 0 hr 9 min 56 sec) 
Heartbeat CPU 0 instructions: 100000001 cycles: 162866884 heartbeat IPC: 0.31778 cumulative IPC: 0.332524 (Simulation time: 0 hr 11 min 30 sec) 
Heartbeat CPU 0 instructions: 110000000 cycles: 193406959 heartbeat IPC: 0.327439 cumulative IPC: 0.331666 (Simulation time: 0 hr 12 min 59 sec) 
Heartbeat CPU 0 instructions: 120000001 cycles: 224077803 heartbeat IPC: 0.326043 cumulative IPC: 0.330851 (Simulation time: 0 hr 14 min 27 sec) 
Heartbeat CPU 0 instructions: 130000001 cycles: 254052398 heartbeat IPC: 0.333616 cumulative IPC: 0.331194 (Simulation time: 0 hr 15 min 54 sec) 
Heartbeat CPU 0 instructions: 140000002 cycles: 284407123 heartbeat IPC: 0.329439 cumulative IPC: 0.330998 (Simulation time: 0 hr 17 min 22 sec) 
Heartbeat CPU 0 instructions: 150000001 cycles: 314222144 heartbeat IPC: 0.335402 cumulative IPC: 0.331433 (Simulation time: 0 hr 18 min 49 sec) 
Simulation finished CPU 0 instructions: 100000000 cycles: 301720569 cumulative IPC: 0.331433 (Simulation time: 0 hr 18 min 49 sec) 

Simulation complete CPU 0 instructions: 100000000 cycles: 301720569 (Simulation time: 0 hr 18 min 49 sec) 


ChampSim completed all CPUs

Saving instructions large page distribution to /home/bsc/bsc018186/scratch/itp_asplos25_AE/dump/smt_srv540_ap_srv727_ap_1024i.pdst...
Saving data large page distribution to /home/bsc/bsc018186/scratch/itp_asplos25_AE/dump/smt_srv540_ap_srv727_ap_1024i.pdst...
=== Simulation ===
CPU 0 runs /gpfs/projects/bsc18/MN4/bsc18/romol/ChampSim/traces/qualcomm_srv/smt_srv540_ap_srv727_ap_1024i.champsimtrace.xz

Region of Interest Statistics

CPU 0 cumulative IPC: 0.331433 instructions: 100000000 cycles: 301720569
CPU 0 Branch Prediction Accuracy: 75.1897% MPKI: 44.6915 Average ROB Occupancy at Mispredict: 10.8775
Branch type MPKI
BRANCH_DIRECT_JUMP: 1.37467
BRANCH_INDIRECT: 23.1064
BRANCH_CONDITIONAL: 13.0098
BRANCH_DIRECT_CALL: 2.66244
BRANCH_INDIRECT_CALL: 1.00784
BRANCH_RETURN: 3.53039

Instructions large pages: 0
Instructions small pages: 9524
Large page distribution for instructions: 0%

Data large pages: 0
Data small pages: 8152
Large page distribution for data: 0%

cpu0_L1I TOTAL       ACCESS:   39038362  HIT:   30393300  MISS:    8645062  iACCESS:   39038362  iHIT:   30393300  iMISS:    8645062  dACCESS:          0  dHIT:          0  dMISS:          0  itACCESS:          0  itHIT:          0  itMISS:          0  dtACCESS:          0  dtHIT:          0  dtMISS:          0
cpu0_L1I LOAD         ACCESS:   11656347  HIT:    9306279  MISS:    2350068  iACCESS:   11656347  iHIT:    9306279  iMISS:    2350068  dACCESS:          0  dHIT:          0  dMISS:          0  itACCESS:          0  itHIT:          0  itMISS:          0  dtACCESS:          0  dtHIT:          0  dtMISS:          0
cpu0_L1I RFO          ACCESS:          0  HIT:          0  MISS:          0  iACCESS:          0  iHIT:          0  iMISS:          0  dACCESS:          0  dHIT:          0  dMISS:          0  itACCESS:          0  itHIT:          0  itMISS:          0  dtACCESS:          0  dtHIT:          0  dtMISS:          0
cpu0_L1I PREFETCH     ACCESS:   27382015  HIT:   21087021  MISS:    6294994  iACCESS:   27382015  iHIT:   21087021  iMISS:    6294994  dACCESS:          0  dHIT:          0  dMISS:          0  itACCESS:          0  itHIT:          0  itMISS:          0  dtACCESS:          0  dtHIT:          0  dtMISS:          0
cpu0_L1I WRITE        ACCESS:          0  HIT:          0  MISS:          0  iACCESS:          0  iHIT:          0  iMISS:          0  dACCESS:          0  dHIT:          0  dMISS:          0  itACCESS:          0  itHIT:          0  itMISS:          0  dtACCESS:          0  dtHIT:          0  dtMISS:          0
cpu0_L1I TRANSLATION  ACCESS:          0  HIT:          0  MISS:          0  iACCESS:          0  iHIT:          0  iMISS:          0  dACCESS:          0  dHIT:          0  dMISS:          0  itACCESS:          0  itHIT:          0  itMISS:          0  dtACCESS:          0  dtHIT:          0  dtMISS:          0
cpu0_L1I PREFETCH  REQUESTED:   30170375  ISSUED:   30170365  CROSSED:          0  USEFUL:    2199896  USELESS:     761604
cpu0_L1I AVERAGE iMISS LATENCY: 24.584 cycles
cpu0_L1I AVERAGE dMISS LATENCY: 0 cycles
cpu0_L1I AVERAGE itMISS LATENCY: 0 cycles
cpu0_L1I AVERAGE dtMISS LATENCY: 0 cycles
cpu0_L1I PAGE CROSSINGS (TLB HIT):         0 
cpu0_L1I PAGE CROSSINGS (TLB MISS):         0 
cpu0_L1I AVERAGE MISS LATENCY: 24.584 cycles
cpu0_ITLB TOTAL       ACCESS:   33071333  HIT:   30845712  MISS:    2225621  iACCESS:   33071333  iHIT:   30845712  iMISS:    2225621  dACCESS:          0  dHIT:          0  dMISS:          0  itACCESS:          0  itHIT:          0  itMISS:          0  dtACCESS:          0  dtHIT:          0  dtMISS:          0
cpu0_ITLB LOAD         ACCESS:   33071333  HIT:   30845712  MISS:    2225621  iACCESS:   33071333  iHIT:   30845712  iMISS:    2225621  dACCESS:          0  dHIT:          0  dMISS:          0  itACCESS:          0  itHIT:          0  itMISS:          0  dtACCESS:          0  dtHIT:          0  dtMISS:          0
cpu0_ITLB RFO          ACCESS:          0  HIT:          0  MISS:          0  iACCESS:          0  iHIT:          0  iMISS:          0  dACCESS:          0  dHIT:          0  dMISS:          0  itACCESS:          0  itHIT:          0  itMISS:          0  dtACCESS:          0  dtHIT:          0  dtMISS:          0
cpu0_ITLB PREFETCH     ACCESS:          0  HIT:          0  MISS:          0  iACCESS:          0  iHIT:          0  iMISS:          0  dACCESS:          0  dHIT:          0  dMISS:          0  itACCESS:          0  itHIT:          0  itMISS:          0  dtACCESS:          0  dtHIT:          0  dtMISS:          0
cpu0_ITLB WRITE        ACCESS:          0  HIT:          0  MISS:          0  iACCESS:          0  iHIT:          0  iMISS:          0  dACCESS:          0  dHIT:          0  dMISS:          0  itACCESS:          0  itHIT:          0  itMISS:          0  dtACCESS:          0  dtHIT:          0  dtMISS:          0
cpu0_ITLB TRANSLATION  ACCESS:          0  HIT:          0  MISS:          0  iACCESS:          0  iHIT:          0  iMISS:          0  dACCESS:          0  dHIT:          0  dMISS:          0  itACCESS:          0  itHIT:          0  itMISS:          0  dtACCESS:          0  dtHIT:          0  dtMISS:          0
cpu0_ITLB PREFETCH  REQUESTED:          0  ISSUED:          0  CROSSED:          0  USEFUL:     387533  USELESS:      79162
cpu0_ITLB AVERAGE iMISS LATENCY: 10.483 cycles
cpu0_ITLB AVERAGE dMISS LATENCY: 0 cycles
cpu0_ITLB AVERAGE itMISS LATENCY: 0 cycles
cpu0_ITLB AVERAGE dtMISS LATENCY: 0 cycles
cpu0_ITLB PAGE CROSSINGS (TLB HIT):         0 
cpu0_ITLB PAGE CROSSINGS (TLB MISS):         0 
cpu0_ITLB AVERAGE MISS LATENCY: 10.483 cycles
cpu0_DTLB TOTAL       ACCESS:   28838145  HIT:   25238025  MISS:    3600120  iACCESS:          0  iHIT:          0  iMISS:          0  dACCESS:   28838145  dHIT:   25238025  dMISS:    3600120  itACCESS:          0  itHIT:          0  itMISS:          0  dtACCESS:          0  dtHIT:          0  dtMISS:          0
cpu0_DTLB LOAD         ACCESS:   28838145  HIT:   25238025  MISS:    3600120  iACCESS:          0  iHIT:          0  iMISS:          0  dACCESS:   28838145  dHIT:   25238025  dMISS:    3600120  itACCESS:          0  itHIT:          0  itMISS:          0  dtACCESS:          0  dtHIT:          0  dtMISS:          0
cpu0_DTLB RFO          ACCESS:          0  HIT:          0  MISS:          0  iACCESS:          0  iHIT:          0  iMISS:          0  dACCESS:          0  dHIT:          0  dMISS:          0  itACCESS:          0  itHIT:          0  itMISS:          0  dtACCESS:          0  dtHIT:          0  dtMISS:          0
cpu0_DTLB PREFETCH     ACCESS:          0  HIT:          0  MISS:          0  iACCESS:          0  iHIT:          0  iMISS:          0  dACCESS:          0  dHIT:          0  dMISS:          0  itACCESS:          0  itHIT:          0  itMISS:          0  dtACCESS:          0  dtHIT:          0  dtMISS:          0
cpu0_DTLB WRITE        ACCESS:          0  HIT:          0  MISS:          0  iACCESS:          0  iHIT:          0  iMISS:          0  dACCESS:          0  dHIT:          0  dMISS:          0  itACCESS:          0  itHIT:          0  itMISS:          0  dtACCESS:          0  dtHIT:          0  dtMISS:          0
cpu0_DTLB TRANSLATION  ACCESS:          0  HIT:          0  MISS:          0  iACCESS:          0  iHIT:          0  iMISS:          0  dACCESS:          0  dHIT:          0  dMISS:          0  itACCESS:          0  itHIT:          0  itMISS:          0  dtACCESS:          0  dtHIT:          0  dtMISS:          0
cpu0_DTLB PREFETCH  REQUESTED:          0  ISSUED:          0  CROSSED:          0  USEFUL:          0  USELESS:          0
cpu0_DTLB AVERAGE iMISS LATENCY: 0 cycles
cpu0_DTLB AVERAGE dMISS LATENCY: 25.1753 cycles
cpu0_DTLB AVERAGE itMISS LATENCY: 0 cycles
cpu0_DTLB AVERAGE dtMISS LATENCY: 0 cycles
cpu0_DTLB PAGE CROSSINGS (TLB HIT):         0 
cpu0_DTLB PAGE CROSSINGS (TLB MISS):         0 
cpu0_DTLB AVERAGE MISS LATENCY: 25.1753 cycles
cpu0_STLB TOTAL       ACCESS:    2572865  HIT:    2191307  MISS:     381558  iACCESS:     466696  iHIT:     349411  iMISS:     117285  dACCESS:    2106169  dHIT:    1841896  dMISS:     264273  itACCESS:          0  itHIT:          0  itMISS:          0  dtACCESS:          0  dtHIT:          0  dtMISS:          0
cpu0_STLB LOAD         ACCESS:    2572865  HIT:    2191307  MISS:     381558  iACCESS:     466696  iHIT:     349411  iMISS:     117285  dACCESS:    2106169  dHIT:    1841896  dMISS:     264273  itACCESS:          0  itHIT:          0  itMISS:          0  dtACCESS:          0  dtHIT:          0  dtMISS:          0
cpu0_STLB RFO          ACCESS:          0  HIT:          0  MISS:          0  iACCESS:          0  iHIT:          0  iMISS:          0  dACCESS:          0  dHIT:          0  dMISS:          0  itACCESS:          0  itHIT:          0  itMISS:          0  dtACCESS:          0  dtHIT:          0  dtMISS:          0
cpu0_STLB PREFETCH     ACCESS:          0  HIT:          0  MISS:          0  iACCESS:          0  iHIT:          0  iMISS:          0  dACCESS:          0  dHIT:          0  dMISS:          0  itACCESS:          0  itHIT:          0  itMISS:          0  dtACCESS:          0  dtHIT:          0  dtMISS:          0
cpu0_STLB WRITE        ACCESS:          0  HIT:          0  MISS:          0  iACCESS:          0  iHIT:          0  iMISS:          0  dACCESS:          0  dHIT:          0  dMISS:          0  itACCESS:          0  itHIT:          0  itMISS:          0  dtACCESS:          0  dtHIT:          0  dtMISS:          0
cpu0_STLB TRANSLATION  ACCESS:          0  HIT:          0  MISS:          0  iACCESS:          0  iHIT:          0  iMISS:          0  dACCESS:          0  dHIT:          0  dMISS:          0  itACCESS:          0  itHIT:          0  itMISS:          0  dtACCESS:          0  dtHIT:          0  dtMISS:          0
cpu0_STLB PREFETCH  REQUESTED:          0  ISSUED:          0  CROSSED:          0  USEFUL:          0  USELESS:          0
cpu0_STLB AVERAGE iMISS LATENCY: 51.3496 cycles
cpu0_STLB AVERAGE dMISS LATENCY: 193.084 cycles
cpu0_STLB AVERAGE itMISS LATENCY: 0 cycles
cpu0_STLB AVERAGE dtMISS LATENCY: 0 cycles
cpu0_STLB PAGE CROSSINGS (TLB HIT):         0 
cpu0_STLB PAGE CROSSINGS (TLB MISS):         0 
cpu0_STLB AVERAGE MISS LATENCY: 244.434 cycles
cpu0_L1D TOTAL       ACCESS:   44754743  HIT:   39092992  MISS:    5661751  iACCESS:          0  iHIT:          0  iMISS:          0  dACCESS:   44199957  dHIT:   39059289  dMISS:    5140668  itACCESS:     131245  itHIT:      14417  itMISS:     116828  dtACCESS:     423541  dtHIT:      19286  dtMISS:     404255
cpu0_L1D LOAD         ACCESS:   20210229  HIT:   17912757  MISS:    2297472  iACCESS:          0  iHIT:          0  iMISS:          0  dACCESS:   20210229  dHIT:   17912757  dMISS:    2297472  itACCESS:          0  itHIT:          0  itMISS:          0  dtACCESS:          0  dtHIT:          0  dtMISS:          0
cpu0_L1D RFO          ACCESS:          0  HIT:          0  MISS:          0  iACCESS:          0  iHIT:          0  iMISS:          0  dACCESS:          0  dHIT:          0  dMISS:          0  itACCESS:          0  itHIT:          0  itMISS:          0  dtACCESS:          0  dtHIT:          0  dtMISS:          0
cpu0_L1D PREFETCH     ACCESS:   13845572  HIT:   11583954  MISS:    2261618  iACCESS:          0  iHIT:          0  iMISS:          0  dACCESS:   13845572  dHIT:   11583954  dMISS:    2261618  itACCESS:          0  itHIT:          0  itMISS:          0  dtACCESS:          0  dtHIT:          0  dtMISS:          0
cpu0_L1D WRITE        ACCESS:   10144156  HIT:    9562578  MISS:     581578  iACCESS:          0  iHIT:          0  iMISS:          0  dACCESS:   10144156  dHIT:    9562578  dMISS:     581578  itACCESS:          0  itHIT:          0  itMISS:          0  dtACCESS:          0  dtHIT:          0  dtMISS:          0
cpu0_L1D TRANSLATION  ACCESS:     554786  HIT:      33703  MISS:     521083  iACCESS:          0  iHIT:          0  iMISS:          0  dACCESS:          0  dHIT:          0  dMISS:          0  itACCESS:     131245  itHIT:      14417  itMISS:     116828  dtACCESS:     423541  dtHIT:      19286  dtMISS:     404255
cpu0_L1D PREFETCH  REQUESTED:   20210229  ISSUED:   18406988  CROSSED:          0  USEFUL:     360496  USELESS:     926783
cpu0_L1D AVERAGE iMISS LATENCY: 0 cycles
cpu0_L1D AVERAGE dMISS LATENCY: 50.6997 cycles
cpu0_L1D AVERAGE itMISS LATENCY: 3.26927 cycles
cpu0_L1D AVERAGE dtMISS LATENCY: 12.2196 cycles
cpu0_L1D PAGE CROSSINGS (TLB HIT):         0 
cpu0_L1D PAGE CROSSINGS (TLB MISS):         0 
cpu0_L1D AVERAGE MISS LATENCY: 66.1886 cycles
cpu0_L2C TOTAL       ACCESS:    8610002  HIT:    4183011  MISS:    4426991  iACCESS:    3766140  iHIT:    2293876  iMISS:    1472264  dACCESS:    4352815  dHIT:    1828422  dMISS:    2524393  itACCESS:     116109  itHIT:      22110  itMISS:      93999  dtACCESS:     374938  dtHIT:      38603  dtMISS:     336335
cpu0_L2C LOAD         ACCESS:    2041637  HIT:     995983  MISS:    1045654  iACCESS:     843196  iHIT:     534388  iMISS:     308808  dACCESS:    1198441  dHIT:     461595  dMISS:     736846  itACCESS:          0  itHIT:          0  itMISS:          0  dtACCESS:          0  dtHIT:          0  dtMISS:          0
cpu0_L2C RFO          ACCESS:     219548  HIT:      83996  MISS:     135552  iACCESS:          0  iHIT:          0  iMISS:          0  dACCESS:     219548  dHIT:      83996  dMISS:     135552  itACCESS:          0  itHIT:          0  itMISS:          0  dtACCESS:          0  dtHIT:          0  dtMISS:          0
cpu0_L2C PREFETCH     ACCESS:    5510900  HIT:    2699634  MISS:    2811266  iACCESS:    2922944  iHIT:    1759488  iMISS:    1163456  dACCESS:    2587956  dHIT:     940146  dMISS:    1647810  itACCESS:          0  itHIT:          0  itMISS:          0  dtACCESS:          0  dtHIT:          0  dtMISS:          0
cpu0_L2C WRITE        ACCESS:     346870  HIT:     342685  MISS:       4185  iACCESS:          0  iHIT:          0  iMISS:          0  dACCESS:     346870  dHIT:     342685  dMISS:       4185  itACCESS:          0  itHIT:          0  itMISS:          0  dtACCESS:          0  dtHIT:          0  dtMISS:          0
cpu0_L2C TRANSLATION  ACCESS:     491047  HIT:      60713  MISS:     430334  iACCESS:          0  iHIT:          0  iMISS:          0  dACCESS:          0  dHIT:          0  dMISS:          0  itACCESS:     116109  itHIT:      22110  itMISS:      93999  dtACCESS:     374938  dtHIT:      38603  dtMISS:     336335
cpu0_L2C PREFETCH  REQUESTED:    1542169  ISSUED:    1542154  CROSSED:          0  USEFUL:     360107  USELESS:     324456
cpu0_L2C AVERAGE iMISS LATENCY: 40.8942 cycles
cpu0_L2C AVERAGE dMISS LATENCY: 80.8718 cycles
cpu0_L2C AVERAGE itMISS LATENCY: 3.92312 cycles
cpu0_L2C AVERAGE dtMISS LATENCY: 14.7848 cycles
cpu0_L2C PAGE CROSSINGS (TLB HIT):         0 
cpu0_L2C PAGE CROSSINGS (TLB MISS):         0 
cpu0_L2C AVERAGE MISS LATENCY: 140.474 cycles
LLC TOTAL       ACCESS:    4411559  HIT:    1279016  MISS:    3132543  iACCESS:    1380200  iHIT:     410371  iMISS:     969829  dACCESS:    2601025  dHIT:     828132  dMISS:    1772893  itACCESS:      93999  itHIT:       7564  itMISS:      86435  dtACCESS:     336335  dtHIT:      32949  dtMISS:     303386
LLC LOAD         ACCESS:    1039022  HIT:     316128  MISS:     722894  iACCESS:     307625  iHIT:      96908  iMISS:     210717  dACCESS:     731397  dHIT:     219220  dMISS:     512177  itACCESS:          0  itHIT:          0  itMISS:          0  dtACCESS:          0  dtHIT:          0  dtMISS:          0
LLC RFO          ACCESS:     135541  HIT:      40013  MISS:      95528  iACCESS:          0  iHIT:          0  iMISS:          0  dACCESS:     135541  dHIT:      40013  dMISS:      95528  itACCESS:          0  itHIT:          0  itMISS:          0  dtACCESS:          0  dtHIT:          0  dtMISS:          0
LLC PREFETCH     ACCESS:    2594011  HIT:     680320  MISS:    1913691  iACCESS:    1072575  iHIT:     313463  iMISS:     759112  dACCESS:    1521436  dHIT:     366857  dMISS:    1154579  itACCESS:          0  itHIT:          0  itMISS:          0  dtACCESS:          0  dtHIT:          0  dtMISS:          0
LLC WRITE        ACCESS:     212651  HIT:     202042  MISS:      10609  iACCESS:          0  iHIT:          0  iMISS:          0  dACCESS:     212651  dHIT:     202042  dMISS:      10609  itACCESS:          0  itHIT:          0  itMISS:          0  dtACCESS:          0  dtHIT:          0  dtMISS:          0
LLC TRANSLATION  ACCESS:     430334  HIT:      40513  MISS:     389821  iACCESS:          0  iHIT:          0  iMISS:          0  dACCESS:          0  dHIT:          0  dMISS:          0  itACCESS:      93999  itHIT:       7564  itMISS:      86435  dtACCESS:     336335  dtHIT:      32949  dtMISS:     303386
LLC PREFETCH  REQUESTED:          0  ISSUED:          0  CROSSED:          0  USEFUL:          0  USELESS:          0
LLC AVERAGE iMISS LATENCY: 49.1062 cycles
LLC AVERAGE dMISS LATENCY: 100.223 cycles
LLC AVERAGE itMISS LATENCY: 4.94918 cycles
LLC AVERAGE dtMISS LATENCY: 18.7712 cycles
LLC PAGE CROSSINGS (TLB HIT):         0 
LLC PAGE CROSSINGS (TLB MISS):         0 
LLC AVERAGE MISS LATENCY: 173.05 cycles

PageTableWalker TOTAL       ACCESS:     195695  
PageTableWalker AVERAGE LATENCY: 6.46094 cycles
PageTableWalker TOTAL LATENCY: 1264372 cycles

DRAM Statistics
Channel 0
 RQ ROW_BUFFER_HIT:     648939
  ROW_BUFFER_MISS:    2453868
 AVG DBUS CONGESTED CYCLE:    3.65375
 WQ ROW_BUFFER_HIT:      66272
  ROW_BUFFER_MISS:      58118  FULL:          0

