last_page:0x200000000000000
VMEM_RES_CAP:0x100000
PAGE_SIZE:4096
LOG2_PAGE_SIZE:12
LOG2_PAGE_TABLE_SIZE:9
page_table_levels:5
WARNING: physical memory size is smaller than virtual memory size
FDiP enabled with aggresivity 16

*** ChampSim Multicore Out-of-Order Simulator ***

Warmup Instructions: 50000000
Simulation Instructions: 100000000
Number of CPUs: 1
Small page size: 4096
Large page size: 2097152

CPU 0 Bimodal branch predictor
Basic BTB sets: 1024 ways: 8 indirect buffer size: 4096 RAS size: 64
Instruction page size distrubution: 0
Loading instruction page size distribution from /home/bsc/bsc018186/scratch/itp_asplos25_AE/dump/smt_srv85_ap_srv346_ap_1024i.pdst
Data page size distrubution: 0
Loading data page size distribution from /home/bsc/bsc018186/scratch/itp_asplos25_AE/dump/smt_srv85_ap_srv346_ap_1024i.pdst
cpu0_L2C IP-based stride prefetcher
cpu0_L2C is using xPTP/LRU
	TLB_LOWER_STRESS_THRESHOLD:1
	TLB_UPPER_STRESS_THRESHOLD:4
	MIN_EVICTION_POSITION:4
cpu0_L1D next line prefetcher
cpu0_STLB using iTP with max lru@8
cpu0_STLB using iTP with instr@0 and data@2
Init sat counter with 3 bits (max:50).
cpu0_L1I next line prefetcher
Off-chip DRAM Size: 4 GiB Channels: 1 Width: 64-bit Data Rate: 3200 MT/s
Heartbeat CPU 0 instructions: 10000002 cycles: 2500291 heartbeat IPC: 3.99954 cumulative IPC: 3.99954 (Simulation time: 0 hr 0 min 38 sec) 
Heartbeat CPU 0 instructions: 20000001 cycles: 5000426 heartbeat IPC: 3.99979 cumulative IPC: 3.99966 (Simulation time: 0 hr 1 min 18 sec) 
Heartbeat CPU 0 instructions: 30000000 cycles: 7500519 heartbeat IPC: 3.99986 cumulative IPC: 3.99973 (Simulation time: 0 hr 1 min 59 sec) 
Heartbeat CPU 0 instructions: 40000000 cycles: 10000660 heartbeat IPC: 3.99978 cumulative IPC: 3.99974 (Simulation time: 0 hr 2 min 40 sec) 
Heartbeat CPU 0 instructions: 50000000 cycles: 12500729 heartbeat IPC: 3.99989 cumulative IPC: 3.99977 (Simulation time: 0 hr 3 min 22 sec) 
Warmup finished CPU 0 instructions: 50000000 cycles: 12500730 cumulative IPC: 3.99977 (Simulation time: 0 hr 3 min 22 sec) 

Warmup complete CPU 0 instructions: 50000000 cycles: 12500730 (Simulation time: 0 hr 3 min 22 sec) 

Heartbeat CPU 0 instructions: 60000000 cycles: 38543275 heartbeat IPC: 0.383988 cumulative IPC: 0.383988 (Simulation time: 0 hr 4 min 40 sec) 
Heartbeat CPU 0 instructions: 70000003 cycles: 64597462 heartbeat IPC: 0.383816 cumulative IPC: 0.383902 (Simulation time: 0 hr 5 min 59 sec) 
Heartbeat CPU 0 instructions: 80000001 cycles: 90985038 heartbeat IPC: 0.378967 cumulative IPC: 0.382243 (Simulation time: 0 hr 7 min 18 sec) 
Heartbeat CPU 0 instructions: 90000002 cycles: 116383488 heartbeat IPC: 0.393725 cumulative IPC: 0.38505 (Simulation time: 0 hr 8 min 35 sec) 
Heartbeat CPU 0 instructions: 100000000 cycles: 142854403 heartbeat IPC: 0.377774 cumulative IPC: 0.383572 (Simulation time: 0 hr 9 min 54 sec) 
Heartbeat CPU 0 instructions: 110000002 cycles: 169286577 heartbeat IPC: 0.378327 cumulative IPC: 0.382688 (Simulation time: 0 hr 11 min 12 sec) 
Heartbeat CPU 0 instructions: 120000000 cycles: 194847969 heartbeat IPC: 0.391215 cumulative IPC: 0.383883 (Simulation time: 0 hr 12 min 30 sec) 
Heartbeat CPU 0 instructions: 130000002 cycles: 220751131 heartbeat IPC: 0.386054 cumulative IPC: 0.384153 (Simulation time: 0 hr 13 min 48 sec) 
Heartbeat CPU 0 instructions: 140000004 cycles: 247052674 heartbeat IPC: 0.380206 cumulative IPC: 0.383711 (Simulation time: 0 hr 15 min 7 sec) 
Heartbeat CPU 0 instructions: 150000002 cycles: 273451579 heartbeat IPC: 0.378804 cumulative IPC: 0.383214 (Simulation time: 0 hr 16 min 26 sec) 
Simulation finished CPU 0 instructions: 100000002 cycles: 260950850 cumulative IPC: 0.383214 (Simulation time: 0 hr 16 min 26 sec) 

Simulation complete CPU 0 instructions: 100000002 cycles: 260950850 (Simulation time: 0 hr 16 min 26 sec) 


ChampSim completed all CPUs

Saving instructions large page distribution to /home/bsc/bsc018186/scratch/itp_asplos25_AE/dump/smt_srv85_ap_srv346_ap_1024i.pdst...
Saving data large page distribution to /home/bsc/bsc018186/scratch/itp_asplos25_AE/dump/smt_srv85_ap_srv346_ap_1024i.pdst...
=== Simulation ===
CPU 0 runs /gpfs/projects/bsc18/MN4/bsc18/romol/ChampSim/traces/qualcomm_srv/smt_srv85_ap_srv346_ap_1024i.champsimtrace.xz

Region of Interest Statistics

CPU 0 cumulative IPC: 0.383214 instructions: 100000002 cycles: 260950850
CPU 0 Branch Prediction Accuracy: 75.947% MPKI: 43.2219 Average ROB Occupancy at Mispredict: 11.296
Branch type MPKI
BRANCH_DIRECT_JUMP: 1.29361
BRANCH_INDIRECT: 22.5598
BRANCH_CONDITIONAL: 12.5539
BRANCH_DIRECT_CALL: 2.47788
BRANCH_INDIRECT_CALL: 0.91463
BRANCH_RETURN: 3.42202

Instructions large pages: 0
Instructions small pages: 13169
Large page distribution for instructions: 0%

Data large pages: 0
Data small pages: 11885
Large page distribution for data: 0%

cpu0_L1I TOTAL       ACCESS:   39004525  HIT:   30085343  MISS:    8919182  iACCESS:   39004525  iHIT:   30085343  iMISS:    8919182  dACCESS:          0  dHIT:          0  dMISS:          0  itACCESS:          0  itHIT:          0  itMISS:          0  dtACCESS:          0  dtHIT:          0  dtMISS:          0
cpu0_L1I LOAD         ACCESS:   11686710  HIT:    9254055  MISS:    2432655  iACCESS:   11686710  iHIT:    9254055  iMISS:    2432655  dACCESS:          0  dHIT:          0  dMISS:          0  itACCESS:          0  itHIT:          0  itMISS:          0  dtACCESS:          0  dtHIT:          0  dtMISS:          0
cpu0_L1I RFO          ACCESS:          0  HIT:          0  MISS:          0  iACCESS:          0  iHIT:          0  iMISS:          0  dACCESS:          0  dHIT:          0  dMISS:          0  itACCESS:          0  itHIT:          0  itMISS:          0  dtACCESS:          0  dtHIT:          0  dtMISS:          0
cpu0_L1I PREFETCH     ACCESS:   27317815  HIT:   20831288  MISS:    6486527  iACCESS:   27317815  iHIT:   20831288  iMISS:    6486527  dACCESS:          0  dHIT:          0  dMISS:          0  itACCESS:          0  itHIT:          0  itMISS:          0  dtACCESS:          0  dtHIT:          0  dtMISS:          0
cpu0_L1I WRITE        ACCESS:          0  HIT:          0  MISS:          0  iACCESS:          0  iHIT:          0  iMISS:          0  dACCESS:          0  dHIT:          0  dMISS:          0  itACCESS:          0  itHIT:          0  itMISS:          0  dtACCESS:          0  dtHIT:          0  dtMISS:          0
cpu0_L1I TRANSLATION  ACCESS:          0  HIT:          0  MISS:          0  iACCESS:          0  iHIT:          0  iMISS:          0  dACCESS:          0  dHIT:          0  dMISS:          0  itACCESS:          0  itHIT:          0  itMISS:          0  dtACCESS:          0  dtHIT:          0  dtMISS:          0
cpu0_L1I PREFETCH  REQUESTED:   30059078  ISSUED:   30058850  CROSSED:          0  USEFUL:    2195781  USELESS:     751714
cpu0_L1I AVERAGE iMISS LATENCY: 21.7996 cycles
cpu0_L1I AVERAGE dMISS LATENCY: 0 cycles
cpu0_L1I AVERAGE itMISS LATENCY: 0 cycles
cpu0_L1I AVERAGE dtMISS LATENCY: 0 cycles
cpu0_L1I PAGE CROSSINGS (TLB HIT):         0 
cpu0_L1I PAGE CROSSINGS (TLB MISS):         0 
cpu0_L1I AVERAGE MISS LATENCY: 21.7996 cycles
cpu0_ITLB TOTAL       ACCESS:   32863074  HIT:   30666330  MISS:    2196744  iACCESS:   32863074  iHIT:   30666330  iMISS:    2196744  dACCESS:          0  dHIT:          0  dMISS:          0  itACCESS:          0  itHIT:          0  itMISS:          0  dtACCESS:          0  dtHIT:          0  dtMISS:          0
cpu0_ITLB LOAD         ACCESS:   32863074  HIT:   30666330  MISS:    2196744  iACCESS:   32863074  iHIT:   30666330  iMISS:    2196744  dACCESS:          0  dHIT:          0  dMISS:          0  itACCESS:          0  itHIT:          0  itMISS:          0  dtACCESS:          0  dtHIT:          0  dtMISS:          0
cpu0_ITLB RFO          ACCESS:          0  HIT:          0  MISS:          0  iACCESS:          0  iHIT:          0  iMISS:          0  dACCESS:          0  dHIT:          0  dMISS:          0  itACCESS:          0  itHIT:          0  itMISS:          0  dtACCESS:          0  dtHIT:          0  dtMISS:          0
cpu0_ITLB PREFETCH     ACCESS:          0  HIT:          0  MISS:          0  iACCESS:          0  iHIT:          0  iMISS:          0  dACCESS:          0  dHIT:          0  dMISS:          0  itACCESS:          0  itHIT:          0  itMISS:          0  dtACCESS:          0  dtHIT:          0  dtMISS:          0
cpu0_ITLB WRITE        ACCESS:          0  HIT:          0  MISS:          0  iACCESS:          0  iHIT:          0  iMISS:          0  dACCESS:          0  dHIT:          0  dMISS:          0  itACCESS:          0  itHIT:          0  itMISS:          0  dtACCESS:          0  dtHIT:          0  dtMISS:          0
cpu0_ITLB TRANSLATION  ACCESS:          0  HIT:          0  MISS:          0  iACCESS:          0  iHIT:          0  iMISS:          0  dACCESS:          0  dHIT:          0  dMISS:          0  itACCESS:          0  itHIT:          0  itMISS:          0  dtACCESS:          0  dtHIT:          0  dtMISS:          0
cpu0_ITLB PREFETCH  REQUESTED:          0  ISSUED:          0  CROSSED:          0  USEFUL:     383342  USELESS:      77425
cpu0_ITLB AVERAGE iMISS LATENCY: 5.41171 cycles
cpu0_ITLB AVERAGE dMISS LATENCY: 0 cycles
cpu0_ITLB AVERAGE itMISS LATENCY: 0 cycles
cpu0_ITLB AVERAGE dtMISS LATENCY: 0 cycles
cpu0_ITLB PAGE CROSSINGS (TLB HIT):         0 
cpu0_ITLB PAGE CROSSINGS (TLB MISS):         0 
cpu0_ITLB AVERAGE MISS LATENCY: 5.41171 cycles
cpu0_DTLB TOTAL       ACCESS:   28779823  HIT:   25104191  MISS:    3675632  iACCESS:          0  iHIT:          0  iMISS:          0  dACCESS:   28779823  dHIT:   25104191  dMISS:    3675632  itACCESS:          0  itHIT:          0  itMISS:          0  dtACCESS:          0  dtHIT:          0  dtMISS:          0
cpu0_DTLB LOAD         ACCESS:   28779823  HIT:   25104191  MISS:    3675632  iACCESS:          0  iHIT:          0  iMISS:          0  dACCESS:   28779823  dHIT:   25104191  dMISS:    3675632  itACCESS:          0  itHIT:          0  itMISS:          0  dtACCESS:          0  dtHIT:          0  dtMISS:          0
cpu0_DTLB RFO          ACCESS:          0  HIT:          0  MISS:          0  iACCESS:          0  iHIT:          0  iMISS:          0  dACCESS:          0  dHIT:          0  dMISS:          0  itACCESS:          0  itHIT:          0  itMISS:          0  dtACCESS:          0  dtHIT:          0  dtMISS:          0
cpu0_DTLB PREFETCH     ACCESS:          0  HIT:          0  MISS:          0  iACCESS:          0  iHIT:          0  iMISS:          0  dACCESS:          0  dHIT:          0  dMISS:          0  itACCESS:          0  itHIT:          0  itMISS:          0  dtACCESS:          0  dtHIT:          0  dtMISS:          0
cpu0_DTLB WRITE        ACCESS:          0  HIT:          0  MISS:          0  iACCESS:          0  iHIT:          0  iMISS:          0  dACCESS:          0  dHIT:          0  dMISS:          0  itACCESS:          0  itHIT:          0  itMISS:          0  dtACCESS:          0  dtHIT:          0  dtMISS:          0
cpu0_DTLB TRANSLATION  ACCESS:          0  HIT:          0  MISS:          0  iACCESS:          0  iHIT:          0  iMISS:          0  dACCESS:          0  dHIT:          0  dMISS:          0  itACCESS:          0  itHIT:          0  itMISS:          0  dtACCESS:          0  dtHIT:          0  dtMISS:          0
cpu0_DTLB PREFETCH  REQUESTED:          0  ISSUED:          0  CROSSED:          0  USEFUL:          0  USELESS:          0
cpu0_DTLB AVERAGE iMISS LATENCY: 0 cycles
cpu0_DTLB AVERAGE dMISS LATENCY: 18.2002 cycles
cpu0_DTLB AVERAGE itMISS LATENCY: 0 cycles
cpu0_DTLB AVERAGE dtMISS LATENCY: 0 cycles
cpu0_DTLB PAGE CROSSINGS (TLB HIT):         0 
cpu0_DTLB PAGE CROSSINGS (TLB MISS):         0 
cpu0_DTLB AVERAGE MISS LATENCY: 18.2002 cycles
cpu0_STLB TOTAL       ACCESS:    2596649  HIT:    2229497  MISS:     367152  iACCESS:     460779  iHIT:     409333  iMISS:      51446  dACCESS:    2135870  dHIT:    1820164  dMISS:     315706  itACCESS:          0  itHIT:          0  itMISS:          0  dtACCESS:          0  dtHIT:          0  dtMISS:          0
cpu0_STLB LOAD         ACCESS:    2596649  HIT:    2229497  MISS:     367152  iACCESS:     460779  iHIT:     409333  iMISS:      51446  dACCESS:    2135870  dHIT:    1820164  dMISS:     315706  itACCESS:          0  itHIT:          0  itMISS:          0  dtACCESS:          0  dtHIT:          0  dtMISS:          0
cpu0_STLB RFO          ACCESS:          0  HIT:          0  MISS:          0  iACCESS:          0  iHIT:          0  iMISS:          0  dACCESS:          0  dHIT:          0  dMISS:          0  itACCESS:          0  itHIT:          0  itMISS:          0  dtACCESS:          0  dtHIT:          0  dtMISS:          0
cpu0_STLB PREFETCH     ACCESS:          0  HIT:          0  MISS:          0  iACCESS:          0  iHIT:          0  iMISS:          0  dACCESS:          0  dHIT:          0  dMISS:          0  itACCESS:          0  itHIT:          0  itMISS:          0  dtACCESS:          0  dtHIT:          0  dtMISS:          0
cpu0_STLB WRITE        ACCESS:          0  HIT:          0  MISS:          0  iACCESS:          0  iHIT:          0  iMISS:          0  dACCESS:          0  dHIT:          0  dMISS:          0  itACCESS:          0  itHIT:          0  itMISS:          0  dtACCESS:          0  dtHIT:          0  dtMISS:          0
cpu0_STLB TRANSLATION  ACCESS:          0  HIT:          0  MISS:          0  iACCESS:          0  iHIT:          0  iMISS:          0  dACCESS:          0  dHIT:          0  dMISS:          0  itACCESS:          0  itHIT:          0  itMISS:          0  dtACCESS:          0  dtHIT:          0  dtMISS:          0
cpu0_STLB PREFETCH  REQUESTED:          0  ISSUED:          0  CROSSED:          0  USEFUL:          0  USELESS:          0
cpu0_STLB AVERAGE iMISS LATENCY: 22.5348 cycles
cpu0_STLB AVERAGE dMISS LATENCY: 135.309 cycles
cpu0_STLB AVERAGE itMISS LATENCY: 0 cycles
cpu0_STLB AVERAGE dtMISS LATENCY: 0 cycles
cpu0_STLB PAGE CROSSINGS (TLB HIT):         0 
cpu0_STLB PAGE CROSSINGS (TLB MISS):         0 
cpu0_STLB AVERAGE MISS LATENCY: 157.844 cycles
cpu0_L1D TOTAL       ACCESS:   44468953  HIT:   39056223  MISS:    5412730  iACCESS:          0  iHIT:          0  iMISS:          0  dACCESS:   43903491  dHIT:   39026538  dMISS:    4876953  itACCESS:      61725  itHIT:       5089  itMISS:      56636  dtACCESS:     503737  dtHIT:      24596  dtMISS:     479141
cpu0_L1D LOAD         ACCESS:   20034348  HIT:   17852234  MISS:    2182114  iACCESS:          0  iHIT:          0  iMISS:          0  dACCESS:   20034348  dHIT:   17852234  dMISS:    2182114  itACCESS:          0  itHIT:          0  itMISS:          0  dtACCESS:          0  dtHIT:          0  dtMISS:          0
cpu0_L1D RFO          ACCESS:          0  HIT:          0  MISS:          0  iACCESS:          0  iHIT:          0  iMISS:          0  dACCESS:          0  dHIT:          0  dMISS:          0  itACCESS:          0  itHIT:          0  itMISS:          0  dtACCESS:          0  dtHIT:          0  dtMISS:          0
cpu0_L1D PREFETCH     ACCESS:   13732232  HIT:   11599062  MISS:    2133170  iACCESS:          0  iHIT:          0  iMISS:          0  dACCESS:   13732232  dHIT:   11599062  dMISS:    2133170  itACCESS:          0  itHIT:          0  itMISS:          0  dtACCESS:          0  dtHIT:          0  dtMISS:          0
cpu0_L1D WRITE        ACCESS:   10136911  HIT:    9575242  MISS:     561669  iACCESS:          0  iHIT:          0  iMISS:          0  dACCESS:   10136911  dHIT:    9575242  dMISS:     561669  itACCESS:          0  itHIT:          0  itMISS:          0  dtACCESS:          0  dtHIT:          0  dtMISS:          0
cpu0_L1D TRANSLATION  ACCESS:     565462  HIT:      29685  MISS:     535777  iACCESS:          0  iHIT:          0  iMISS:          0  dACCESS:          0  dHIT:          0  dMISS:          0  itACCESS:      61725  itHIT:       5089  itMISS:      56636  dtACCESS:     503737  dtHIT:      24596  dtMISS:     479141
cpu0_L1D PREFETCH  REQUESTED:   20034348  ISSUED:   18354643  CROSSED:          0  USEFUL:     358431  USELESS:     935809
cpu0_L1D AVERAGE iMISS LATENCY: 0 cycles
cpu0_L1D AVERAGE dMISS LATENCY: 48.9985 cycles
cpu0_L1D AVERAGE itMISS LATENCY: 1.42763 cycles
cpu0_L1D AVERAGE dtMISS LATENCY: 8.12651 cycles
cpu0_L1D PAGE CROSSINGS (TLB HIT):         0 
cpu0_L1D PAGE CROSSINGS (TLB MISS):         0 
cpu0_L1D AVERAGE MISS LATENCY: 58.5527 cycles
cpu0_L2C TOTAL       ACCESS:    8577092  HIT:    2542579  MISS:    6034513  iACCESS:    3747765  iHIT:    1432210  iMISS:    2315555  dACCESS:    4319704  dHIT:     868571  dMISS:    3451133  itACCESS:      56286  itHIT:      14056  itMISS:      42230  dtACCESS:     453337  dtHIT:     227742  dtMISS:     225595
cpu0_L2C LOAD         ACCESS:    2048018  HIT:     492927  MISS:    1555091  iACCESS:     837870  iHIT:     291288  iMISS:     546582  dACCESS:    1210148  dHIT:     201639  dMISS:    1008509  itACCESS:          0  itHIT:          0  itMISS:          0  dtACCESS:          0  dtHIT:          0  dtMISS:          0
cpu0_L2C RFO          ACCESS:     210498  HIT:      31634  MISS:     178864  iACCESS:          0  iHIT:          0  iMISS:          0  dACCESS:     210498  dHIT:      31634  dMISS:     178864  itACCESS:          0  itHIT:          0  itMISS:          0  dtACCESS:          0  dtHIT:          0  dtMISS:          0
cpu0_L2C PREFETCH     ACCESS:    5462825  HIT:    1647270  MISS:    3815555  iACCESS:    2909895  iHIT:    1140922  iMISS:    1768973  dACCESS:    2552930  dHIT:     506348  dMISS:    2046582  itACCESS:          0  itHIT:          0  itMISS:          0  dtACCESS:          0  dtHIT:          0  dtMISS:          0
cpu0_L2C WRITE        ACCESS:     346128  HIT:     128950  MISS:     217178  iACCESS:          0  iHIT:          0  iMISS:          0  dACCESS:     346128  dHIT:     128950  dMISS:     217178  itACCESS:          0  itHIT:          0  itMISS:          0  dtACCESS:          0  dtHIT:          0  dtMISS:          0
cpu0_L2C TRANSLATION  ACCESS:     509623  HIT:     241798  MISS:     267825  iACCESS:          0  iHIT:          0  iMISS:          0  dACCESS:          0  dHIT:          0  dMISS:          0  itACCESS:      56286  itHIT:      14056  itMISS:      42230  dtACCESS:     453337  dtHIT:     227742  dtMISS:     225595
cpu0_L2C PREFETCH  REQUESTED:    1502426  ISSUED:    1502422  CROSSED:          0  USEFUL:     380046  USELESS:     434019
cpu0_L2C AVERAGE iMISS LATENCY: 26.8842 cycles
cpu0_L2C AVERAGE dMISS LATENCY: 53.708 cycles
cpu0_L2C AVERAGE itMISS LATENCY: 1.18935 cycles
cpu0_L2C AVERAGE dtMISS LATENCY: 6.57219 cycles
cpu0_L2C PAGE CROSSINGS (TLB HIT):         0 
cpu0_L2C PAGE CROSSINGS (TLB MISS):         0 
cpu0_L2C AVERAGE MISS LATENCY: 88.3537 cycles
LLC TOTAL       ACCESS:    5892353  HIT:    3421718  MISS:    2470635  iACCESS:    2226709  iHIT:    1475668  iMISS:     751041  dACCESS:    3397819  dHIT:    1900992  dMISS:    1496827  itACCESS:      42230  itHIT:       6702  itMISS:      35528  dtACCESS:     225595  dtHIT:      38356  dtMISS:     187239
LLC LOAD         ACCESS:    1549581  HIT:     957872  MISS:     591709  iACCESS:     545163  iHIT:     388469  iMISS:     156694  dACCESS:    1004418  dHIT:     569403  dMISS:     435015  itACCESS:          0  itHIT:          0  itMISS:          0  dtACCESS:          0  dtHIT:          0  dtMISS:          0
LLC RFO          ACCESS:     178841  HIT:      94710  MISS:      84131  iACCESS:          0  iHIT:          0  iMISS:          0  dACCESS:     178841  dHIT:      94710  dMISS:      84131  itACCESS:          0  itHIT:          0  itMISS:          0  dtACCESS:          0  dtHIT:          0  dtMISS:          0
LLC PREFETCH     ACCESS:    3616627  HIT:    2049614  MISS:    1567013  iACCESS:    1681546  iHIT:    1087199  iMISS:     594347  dACCESS:    1935081  dHIT:     962415  dMISS:     972666  itACCESS:          0  itHIT:          0  itMISS:          0  dtACCESS:          0  dtHIT:          0  dtMISS:          0
LLC WRITE        ACCESS:     279479  HIT:     274464  MISS:       5015  iACCESS:          0  iHIT:          0  iMISS:          0  dACCESS:     279479  dHIT:     274464  dMISS:       5015  itACCESS:          0  itHIT:          0  itMISS:          0  dtACCESS:          0  dtHIT:          0  dtMISS:          0
LLC TRANSLATION  ACCESS:     267825  HIT:      45058  MISS:     222767  iACCESS:          0  iHIT:          0  iMISS:          0  dACCESS:          0  dHIT:          0  dMISS:          0  itACCESS:      42230  itHIT:       6702  itMISS:      35528  dtACCESS:     225595  dtHIT:      38356  dtMISS:     187239
LLC PREFETCH  REQUESTED:          0  ISSUED:          0  CROSSED:          0  USEFUL:          0  USELESS:          0
LLC AVERAGE iMISS LATENCY: 48.1356 cycles
LLC AVERAGE dMISS LATENCY: 107.313 cycles
LLC AVERAGE itMISS LATENCY: 2.56717 cycles
LLC AVERAGE dtMISS LATENCY: 14.2489 cycles
LLC PAGE CROSSINGS (TLB HIT):         0 
LLC PAGE CROSSINGS (TLB MISS):         0 
LLC AVERAGE MISS LATENCY: 172.264 cycles

PageTableWalker TOTAL       ACCESS:     180237  
PageTableWalker AVERAGE LATENCY: 5.96928 cycles
PageTableWalker TOTAL LATENCY: 1075884 cycles

DRAM Statistics
Channel 0
 RQ ROW_BUFFER_HIT:     537767
  ROW_BUFFER_MISS:    1916842
 AVG DBUS CONGESTED CYCLE:    3.65219
 WQ ROW_BUFFER_HIT:      62863
  ROW_BUFFER_MISS:      64312  FULL:          0

