last_page:0x200000000000000
VMEM_RES_CAP:0x100000
PAGE_SIZE:4096
LOG2_PAGE_SIZE:12
LOG2_PAGE_TABLE_SIZE:9
page_table_levels:5
WARNING: physical memory size is smaller than virtual memory size
FDiP enabled with aggresivity 16

*** ChampSim Multicore Out-of-Order Simulator ***

Warmup Instructions: 50000000
Simulation Instructions: 100000000
Number of CPUs: 1
Small page size: 4096
Large page size: 2097152

CPU 0 Bimodal branch predictor
Basic BTB sets: 1024 ways: 8 indirect buffer size: 4096 RAS size: 64
Instruction page size distrubution: 0
Loading instruction page size distribution from /home/bsc/bsc018186/scratch/itp_asplos25_AE/dump/smt_srv540_ap_srv697_ap_1024i.pdst
Data page size distrubution: 0
Loading data page size distribution from /home/bsc/bsc018186/scratch/itp_asplos25_AE/dump/smt_srv540_ap_srv697_ap_1024i.pdst
cpu0_L2C IP-based stride prefetcher
cpu0_L1D next line prefetcher
cpu0_L1I next line prefetcher
Off-chip DRAM Size: 4 GiB Channels: 1 Width: 64-bit Data Rate: 3200 MT/s
Heartbeat CPU 0 instructions: 10000002 cycles: 2500341 heartbeat IPC: 3.99946 cumulative IPC: 3.99946 (Simulation time: 0 hr 0 min 46 sec) 
Heartbeat CPU 0 instructions: 20000001 cycles: 5000461 heartbeat IPC: 3.99981 cumulative IPC: 3.99964 (Simulation time: 0 hr 1 min 30 sec) 
Heartbeat CPU 0 instructions: 30000001 cycles: 7500672 heartbeat IPC: 3.99967 cumulative IPC: 3.99965 (Simulation time: 0 hr 2 min 18 sec) 
Heartbeat CPU 0 instructions: 40000003 cycles: 10000867 heartbeat IPC: 3.99969 cumulative IPC: 3.99966 (Simulation time: 0 hr 3 min 5 sec) 
Heartbeat CPU 0 instructions: 50000000 cycles: 12501089 heartbeat IPC: 3.99965 cumulative IPC: 3.99966 (Simulation time: 0 hr 3 min 51 sec) 
Warmup finished CPU 0 instructions: 50000000 cycles: 12501090 cumulative IPC: 3.99966 (Simulation time: 0 hr 3 min 51 sec) 

Warmup complete CPU 0 instructions: 50000000 cycles: 12501090 (Simulation time: 0 hr 3 min 51 sec) 

Heartbeat CPU 0 instructions: 60000003 cycles: 41554825 heartbeat IPC: 0.34419 cumulative IPC: 0.34419 (Simulation time: 0 hr 5 min 22 sec) 
Heartbeat CPU 0 instructions: 70000001 cycles: 68916623 heartbeat IPC: 0.365473 cumulative IPC: 0.354513 (Simulation time: 0 hr 6 min 50 sec) 
Heartbeat CPU 0 instructions: 80000002 cycles: 97634450 heartbeat IPC: 0.348216 cumulative IPC: 0.352389 (Simulation time: 0 hr 8 min 24 sec) 
Heartbeat CPU 0 instructions: 90000000 cycles: 127044286 heartbeat IPC: 0.340023 cumulative IPC: 0.349214 (Simulation time: 0 hr 9 min 55 sec) 
Heartbeat CPU 0 instructions: 100000001 cycles: 156759398 heartbeat IPC: 0.33653 cumulative IPC: 0.346601 (Simulation time: 0 hr 11 min 29 sec) 
Heartbeat CPU 0 instructions: 110000002 cycles: 184639086 heartbeat IPC: 0.358685 cumulative IPC: 0.348558 (Simulation time: 0 hr 13 min 1 sec) 
Heartbeat CPU 0 instructions: 120000000 cycles: 213426753 heartbeat IPC: 0.347371 cumulative IPC: 0.348388 (Simulation time: 0 hr 14 min 30 sec) 
Heartbeat CPU 0 instructions: 130000004 cycles: 242050477 heartbeat IPC: 0.349361 cumulative IPC: 0.348509 (Simulation time: 0 hr 16 min 2 sec) 
Heartbeat CPU 0 instructions: 140000002 cycles: 269829121 heartbeat IPC: 0.359989 cumulative IPC: 0.349749 (Simulation time: 0 hr 17 min 34 sec) 
Heartbeat CPU 0 instructions: 150000001 cycles: 297847105 heartbeat IPC: 0.356914 cumulative IPC: 0.350452 (Simulation time: 0 hr 19 min 2 sec) 
Simulation finished CPU 0 instructions: 100000001 cycles: 285346016 cumulative IPC: 0.350452 (Simulation time: 0 hr 19 min 2 sec) 

Simulation complete CPU 0 instructions: 100000001 cycles: 285346016 (Simulation time: 0 hr 19 min 2 sec) 


ChampSim completed all CPUs

Saving instructions large page distribution to /home/bsc/bsc018186/scratch/itp_asplos25_AE/dump/smt_srv540_ap_srv697_ap_1024i.pdst...
Saving data large page distribution to /home/bsc/bsc018186/scratch/itp_asplos25_AE/dump/smt_srv540_ap_srv697_ap_1024i.pdst...
=== Simulation ===
CPU 0 runs /gpfs/projects/bsc18/MN4/bsc18/romol/ChampSim/traces/qualcomm_srv/smt_srv540_ap_srv697_ap_1024i.champsimtrace.xz

Region of Interest Statistics

CPU 0 cumulative IPC: 0.350452 instructions: 100000001 cycles: 285346016
CPU 0 Branch Prediction Accuracy: 76.0837% MPKI: 43.0053 Average ROB Occupancy at Mispredict: 11.4539
Branch type MPKI
BRANCH_DIRECT_JUMP: 1.28818
BRANCH_INDIRECT: 22.3946
BRANCH_CONDITIONAL: 12.4928
BRANCH_DIRECT_CALL: 2.47657
BRANCH_INDIRECT_CALL: 0.92706
BRANCH_RETURN: 3.42608

Instructions large pages: 0
Instructions small pages: 12891
Large page distribution for instructions: 0%

Data large pages: 0
Data small pages: 11667
Large page distribution for data: 0%

cpu0_L1I TOTAL       ACCESS:   38895403  HIT:   30300892  MISS:    8594511  iACCESS:   38895403  iHIT:   30300892  iMISS:    8594511  dACCESS:          0  dHIT:          0  dMISS:          0  itACCESS:          0  itHIT:          0  itMISS:          0  dtACCESS:          0  dtHIT:          0  dtMISS:          0
cpu0_L1I LOAD         ACCESS:   11683076  HIT:    9335952  MISS:    2347124  iACCESS:   11683076  iHIT:    9335952  iMISS:    2347124  dACCESS:          0  dHIT:          0  dMISS:          0  itACCESS:          0  itHIT:          0  itMISS:          0  dtACCESS:          0  dtHIT:          0  dtMISS:          0
cpu0_L1I RFO          ACCESS:          0  HIT:          0  MISS:          0  iACCESS:          0  iHIT:          0  iMISS:          0  dACCESS:          0  dHIT:          0  dMISS:          0  itACCESS:          0  itHIT:          0  itMISS:          0  dtACCESS:          0  dtHIT:          0  dtMISS:          0
cpu0_L1I PREFETCH     ACCESS:   27212327  HIT:   20964940  MISS:    6247387  iACCESS:   27212327  iHIT:   20964940  iMISS:    6247387  dACCESS:          0  dHIT:          0  dMISS:          0  itACCESS:          0  itHIT:          0  itMISS:          0  dtACCESS:          0  dtHIT:          0  dtMISS:          0
cpu0_L1I WRITE        ACCESS:          0  HIT:          0  MISS:          0  iACCESS:          0  iHIT:          0  iMISS:          0  dACCESS:          0  dHIT:          0  dMISS:          0  itACCESS:          0  itHIT:          0  itMISS:          0  dtACCESS:          0  dtHIT:          0  dtMISS:          0
cpu0_L1I TRANSLATION  ACCESS:          0  HIT:          0  MISS:          0  iACCESS:          0  iHIT:          0  iMISS:          0  dACCESS:          0  dHIT:          0  dMISS:          0  itACCESS:          0  itHIT:          0  itMISS:          0  dtACCESS:          0  dtHIT:          0  dtMISS:          0
cpu0_L1I PREFETCH  REQUESTED:   30074948  ISSUED:   30074808  CROSSED:          0  USEFUL:    2178504  USELESS:     745517
cpu0_L1I AVERAGE iMISS LATENCY: 23.0304 cycles
cpu0_L1I AVERAGE dMISS LATENCY: 0 cycles
cpu0_L1I AVERAGE itMISS LATENCY: 0 cycles
cpu0_L1I AVERAGE dtMISS LATENCY: 0 cycles
cpu0_L1I PAGE CROSSINGS (TLB HIT):         0 
cpu0_L1I PAGE CROSSINGS (TLB MISS):         0 
cpu0_L1I AVERAGE MISS LATENCY: 23.0304 cycles
cpu0_ITLB TOTAL       ACCESS:   32823079  HIT:   30643226  MISS:    2179853  iACCESS:   32823079  iHIT:   30643226  iMISS:    2179853  dACCESS:          0  dHIT:          0  dMISS:          0  itACCESS:          0  itHIT:          0  itMISS:          0  dtACCESS:          0  dtHIT:          0  dtMISS:          0
cpu0_ITLB LOAD         ACCESS:   32823079  HIT:   30643226  MISS:    2179853  iACCESS:   32823079  iHIT:   30643226  iMISS:    2179853  dACCESS:          0  dHIT:          0  dMISS:          0  itACCESS:          0  itHIT:          0  itMISS:          0  dtACCESS:          0  dtHIT:          0  dtMISS:          0
cpu0_ITLB RFO          ACCESS:          0  HIT:          0  MISS:          0  iACCESS:          0  iHIT:          0  iMISS:          0  dACCESS:          0  dHIT:          0  dMISS:          0  itACCESS:          0  itHIT:          0  itMISS:          0  dtACCESS:          0  dtHIT:          0  dtMISS:          0
cpu0_ITLB PREFETCH     ACCESS:          0  HIT:          0  MISS:          0  iACCESS:          0  iHIT:          0  iMISS:          0  dACCESS:          0  dHIT:          0  dMISS:          0  itACCESS:          0  itHIT:          0  itMISS:          0  dtACCESS:          0  dtHIT:          0  dtMISS:          0
cpu0_ITLB WRITE        ACCESS:          0  HIT:          0  MISS:          0  iACCESS:          0  iHIT:          0  iMISS:          0  dACCESS:          0  dHIT:          0  dMISS:          0  itACCESS:          0  itHIT:          0  itMISS:          0  dtACCESS:          0  dtHIT:          0  dtMISS:          0
cpu0_ITLB TRANSLATION  ACCESS:          0  HIT:          0  MISS:          0  iACCESS:          0  iHIT:          0  iMISS:          0  dACCESS:          0  dHIT:          0  dMISS:          0  itACCESS:          0  itHIT:          0  itMISS:          0  dtACCESS:          0  dtHIT:          0  dtMISS:          0
cpu0_ITLB PREFETCH  REQUESTED:          0  ISSUED:          0  CROSSED:          0  USEFUL:     378696  USELESS:      76506
cpu0_ITLB AVERAGE iMISS LATENCY: 9.83156 cycles
cpu0_ITLB AVERAGE dMISS LATENCY: 0 cycles
cpu0_ITLB AVERAGE itMISS LATENCY: 0 cycles
cpu0_ITLB AVERAGE dtMISS LATENCY: 0 cycles
cpu0_ITLB PAGE CROSSINGS (TLB HIT):         0 
cpu0_ITLB PAGE CROSSINGS (TLB MISS):         0 
cpu0_ITLB AVERAGE MISS LATENCY: 9.83156 cycles
cpu0_DTLB TOTAL       ACCESS:   28724220  HIT:   25001780  MISS:    3722440  iACCESS:          0  iHIT:          0  iMISS:          0  dACCESS:   28724220  dHIT:   25001780  dMISS:    3722440  itACCESS:          0  itHIT:          0  itMISS:          0  dtACCESS:          0  dtHIT:          0  dtMISS:          0
cpu0_DTLB LOAD         ACCESS:   28724220  HIT:   25001780  MISS:    3722440  iACCESS:          0  iHIT:          0  iMISS:          0  dACCESS:   28724220  dHIT:   25001780  dMISS:    3722440  itACCESS:          0  itHIT:          0  itMISS:          0  dtACCESS:          0  dtHIT:          0  dtMISS:          0
cpu0_DTLB RFO          ACCESS:          0  HIT:          0  MISS:          0  iACCESS:          0  iHIT:          0  iMISS:          0  dACCESS:          0  dHIT:          0  dMISS:          0  itACCESS:          0  itHIT:          0  itMISS:          0  dtACCESS:          0  dtHIT:          0  dtMISS:          0
cpu0_DTLB PREFETCH     ACCESS:          0  HIT:          0  MISS:          0  iACCESS:          0  iHIT:          0  iMISS:          0  dACCESS:          0  dHIT:          0  dMISS:          0  itACCESS:          0  itHIT:          0  itMISS:          0  dtACCESS:          0  dtHIT:          0  dtMISS:          0
cpu0_DTLB WRITE        ACCESS:          0  HIT:          0  MISS:          0  iACCESS:          0  iHIT:          0  iMISS:          0  dACCESS:          0  dHIT:          0  dMISS:          0  itACCESS:          0  itHIT:          0  itMISS:          0  dtACCESS:          0  dtHIT:          0  dtMISS:          0
cpu0_DTLB TRANSLATION  ACCESS:          0  HIT:          0  MISS:          0  iACCESS:          0  iHIT:          0  iMISS:          0  dACCESS:          0  dHIT:          0  dMISS:          0  itACCESS:          0  itHIT:          0  itMISS:          0  dtACCESS:          0  dtHIT:          0  dtMISS:          0
cpu0_DTLB PREFETCH  REQUESTED:          0  ISSUED:          0  CROSSED:          0  USEFUL:          0  USELESS:          0
cpu0_DTLB AVERAGE iMISS LATENCY: 0 cycles
cpu0_DTLB AVERAGE dMISS LATENCY: 23.5499 cycles
cpu0_DTLB AVERAGE itMISS LATENCY: 0 cycles
cpu0_DTLB AVERAGE dtMISS LATENCY: 0 cycles
cpu0_DTLB PAGE CROSSINGS (TLB HIT):         0 
cpu0_DTLB PAGE CROSSINGS (TLB MISS):         0 
cpu0_DTLB AVERAGE MISS LATENCY: 23.5499 cycles
cpu0_STLB TOTAL       ACCESS:    2598201  HIT:    2240679  MISS:     357522  iACCESS:     455203  iHIT:     349228  iMISS:     105975  dACCESS:    2142998  dHIT:    1891451  dMISS:     251547  itACCESS:          0  itHIT:          0  itMISS:          0  dtACCESS:          0  dtHIT:          0  dtMISS:          0
cpu0_STLB LOAD         ACCESS:    2598201  HIT:    2240679  MISS:     357522  iACCESS:     455203  iHIT:     349228  iMISS:     105975  dACCESS:    2142998  dHIT:    1891451  dMISS:     251547  itACCESS:          0  itHIT:          0  itMISS:          0  dtACCESS:          0  dtHIT:          0  dtMISS:          0
cpu0_STLB RFO          ACCESS:          0  HIT:          0  MISS:          0  iACCESS:          0  iHIT:          0  iMISS:          0  dACCESS:          0  dHIT:          0  dMISS:          0  itACCESS:          0  itHIT:          0  itMISS:          0  dtACCESS:          0  dtHIT:          0  dtMISS:          0
cpu0_STLB PREFETCH     ACCESS:          0  HIT:          0  MISS:          0  iACCESS:          0  iHIT:          0  iMISS:          0  dACCESS:          0  dHIT:          0  dMISS:          0  itACCESS:          0  itHIT:          0  itMISS:          0  dtACCESS:          0  dtHIT:          0  dtMISS:          0
cpu0_STLB WRITE        ACCESS:          0  HIT:          0  MISS:          0  iACCESS:          0  iHIT:          0  iMISS:          0  dACCESS:          0  dHIT:          0  dMISS:          0  itACCESS:          0  itHIT:          0  itMISS:          0  dtACCESS:          0  dtHIT:          0  dtMISS:          0
cpu0_STLB TRANSLATION  ACCESS:          0  HIT:          0  MISS:          0  iACCESS:          0  iHIT:          0  iMISS:          0  dACCESS:          0  dHIT:          0  dMISS:          0  itACCESS:          0  itHIT:          0  itMISS:          0  dtACCESS:          0  dtHIT:          0  dtMISS:          0
cpu0_STLB PREFETCH  REQUESTED:          0  ISSUED:          0  CROSSED:          0  USEFUL:          0  USELESS:          0
cpu0_STLB AVERAGE iMISS LATENCY: 49.7744 cycles
cpu0_STLB AVERAGE dMISS LATENCY: 196.976 cycles
cpu0_STLB AVERAGE itMISS LATENCY: 0 cycles
cpu0_STLB AVERAGE dtMISS LATENCY: 0 cycles
cpu0_STLB PAGE CROSSINGS (TLB HIT):         0 
cpu0_STLB PAGE CROSSINGS (TLB MISS):         0 
cpu0_STLB AVERAGE MISS LATENCY: 246.75 cycles
cpu0_L1D TOTAL       ACCESS:   44157089  HIT:   38928189  MISS:    5228900  iACCESS:          0  iHIT:          0  iMISS:          0  dACCESS:   43631694  dHIT:   38894011  dMISS:    4737683  itACCESS:     118982  itHIT:      14036  itMISS:     104946  dtACCESS:     406413  dtHIT:      20142  dtMISS:     386271
cpu0_L1D LOAD         ACCESS:   19925147  HIT:   17819380  MISS:    2105767  iACCESS:          0  iHIT:          0  iMISS:          0  dACCESS:   19925147  dHIT:   17819380  dMISS:    2105767  itACCESS:          0  itHIT:          0  itMISS:          0  dtACCESS:          0  dtHIT:          0  dtMISS:          0
cpu0_L1D RFO          ACCESS:          0  HIT:          0  MISS:          0  iACCESS:          0  iHIT:          0  iMISS:          0  dACCESS:          0  dHIT:          0  dMISS:          0  itACCESS:          0  itHIT:          0  itMISS:          0  dtACCESS:          0  dtHIT:          0  dtMISS:          0
cpu0_L1D PREFETCH     ACCESS:   13576575  HIT:   11486927  MISS:    2089648  iACCESS:          0  iHIT:          0  iMISS:          0  dACCESS:   13576575  dHIT:   11486927  dMISS:    2089648  itACCESS:          0  itHIT:          0  itMISS:          0  dtACCESS:          0  dtHIT:          0  dtMISS:          0
cpu0_L1D WRITE        ACCESS:   10129972  HIT:    9587704  MISS:     542268  iACCESS:          0  iHIT:          0  iMISS:          0  dACCESS:   10129972  dHIT:    9587704  dMISS:     542268  itACCESS:          0  itHIT:          0  itMISS:          0  dtACCESS:          0  dtHIT:          0  dtMISS:          0
cpu0_L1D TRANSLATION  ACCESS:     525395  HIT:      34178  MISS:     491217  iACCESS:          0  iHIT:          0  iMISS:          0  dACCESS:          0  dHIT:          0  dMISS:          0  itACCESS:     118982  itHIT:      14036  itMISS:     104946  dtACCESS:     406413  dtHIT:      20142  dtMISS:     386271
cpu0_L1D PREFETCH  REQUESTED:   19925147  ISSUED:   18257752  CROSSED:          0  USEFUL:     356847  USELESS:     918158
cpu0_L1D AVERAGE iMISS LATENCY: 0 cycles
cpu0_L1D AVERAGE dMISS LATENCY: 50.7569 cycles
cpu0_L1D AVERAGE itMISS LATENCY: 3.21868 cycles
cpu0_L1D AVERAGE dtMISS LATENCY: 12.468 cycles
cpu0_L1D PAGE CROSSINGS (TLB HIT):         0 
cpu0_L1D PAGE CROSSINGS (TLB MISS):         0 
cpu0_L1D AVERAGE MISS LATENCY: 66.4435 cycles
cpu0_L2C TOTAL       ACCESS:    8455988  HIT:    4190783  MISS:    4265205  iACCESS:    3721422  iHIT:    2302569  iMISS:    1418853  dACCESS:    4270149  dHIT:    1830547  dMISS:    2439602  itACCESS:     104548  itHIT:      19276  itMISS:      85272  dtACCESS:     359869  dtHIT:      38391  dtMISS:     321478
cpu0_L2C LOAD         ACCESS:    2015984  HIT:    1007363  MISS:    1008621  iACCESS:     836699  iHIT:     541848  iMISS:     294851  dACCESS:    1179285  dHIT:     465515  dMISS:     713770  itACCESS:          0  itHIT:          0  itMISS:          0  dtACCESS:          0  dtHIT:          0  dtMISS:          0
cpu0_L2C RFO          ACCESS:     212421  HIT:      85385  MISS:     127036  iACCESS:          0  iHIT:          0  iMISS:          0  dACCESS:     212421  dHIT:      85385  dMISS:     127036  itACCESS:          0  itHIT:          0  itMISS:          0  dtACCESS:          0  dtHIT:          0  dtMISS:          0
cpu0_L2C PREFETCH     ACCESS:    5417595  HIT:    2698778  MISS:    2718817  iACCESS:    2884723  iHIT:    1760721  iMISS:    1124002  dACCESS:    2532872  dHIT:     938057  dMISS:    1594815  itACCESS:          0  itHIT:          0  itMISS:          0  dtACCESS:          0  dtHIT:          0  dtMISS:          0
cpu0_L2C WRITE        ACCESS:     345571  HIT:     341590  MISS:       3981  iACCESS:          0  iHIT:          0  iMISS:          0  dACCESS:     345571  dHIT:     341590  dMISS:       3981  itACCESS:          0  itHIT:          0  itMISS:          0  dtACCESS:          0  dtHIT:          0  dtMISS:          0
cpu0_L2C TRANSLATION  ACCESS:     464417  HIT:      57667  MISS:     406750  iACCESS:          0  iHIT:          0  iMISS:          0  dACCESS:          0  dHIT:          0  dMISS:          0  itACCESS:     104548  itHIT:      19276  itMISS:      85272  dtACCESS:     359869  dtHIT:      38391  dtMISS:     321478
cpu0_L2C PREFETCH  REQUESTED:    1504641  ISSUED:    1504636  CROSSED:          0  USEFUL:     355907  USELESS:     313720
cpu0_L2C AVERAGE iMISS LATENCY: 39.0022 cycles
cpu0_L2C AVERAGE dMISS LATENCY: 77.2952 cycles
cpu0_L2C AVERAGE itMISS LATENCY: 3.70464 cycles
cpu0_L2C AVERAGE dtMISS LATENCY: 14.4453 cycles
cpu0_L2C PAGE CROSSINGS (TLB HIT):         0 
cpu0_L2C PAGE CROSSINGS (TLB MISS):         0 
cpu0_L2C AVERAGE MISS LATENCY: 134.448 cycles
LLC TOTAL       ACCESS:    4265768  HIT:    1388768  MISS:    2877000  iACCESS:    1329090  iHIT:     442163  iMISS:     886927  dACCESS:    2529928  dHIT:     905691  dMISS:    1624237  itACCESS:      85272  itHIT:       6495  itMISS:      78777  dtACCESS:     321478  dtHIT:      34419  dtMISS:     287059
LLC LOAD         ACCESS:    1003972  HIT:     347291  MISS:     656681  iACCESS:     293691  iHIT:     103101  iMISS:     190590  dACCESS:     710281  dHIT:     244190  dMISS:     466091  itACCESS:          0  itHIT:          0  itMISS:          0  dtACCESS:          0  dtHIT:          0  dtMISS:          0
LLC RFO          ACCESS:     127030  HIT:      42050  MISS:      84980  iACCESS:          0  iHIT:          0  iMISS:          0  dACCESS:     127030  dHIT:      42050  dMISS:      84980  itACCESS:          0  itHIT:          0  itMISS:          0  dtACCESS:          0  dtHIT:          0  dtMISS:          0
LLC PREFETCH     ACCESS:    2517988  HIT:     758922  MISS:    1759066  iACCESS:    1035399  iHIT:     339062  iMISS:     696337  dACCESS:    1482589  dHIT:     419860  dMISS:    1062729  itACCESS:          0  itHIT:          0  itMISS:          0  dtACCESS:          0  dtHIT:          0  dtMISS:          0
LLC WRITE        ACCESS:     210028  HIT:     199591  MISS:      10437  iACCESS:          0  iHIT:          0  iMISS:          0  dACCESS:     210028  dHIT:     199591  dMISS:      10437  itACCESS:          0  itHIT:          0  itMISS:          0  dtACCESS:          0  dtHIT:          0  dtMISS:          0
LLC TRANSLATION  ACCESS:     406750  HIT:      40914  MISS:     365836  iACCESS:          0  iHIT:          0  iMISS:          0  dACCESS:          0  dHIT:          0  dMISS:          0  itACCESS:      85272  itHIT:       6495  itMISS:      78777  dtACCESS:     321478  dtHIT:      34419  dtMISS:     287059
LLC PREFETCH  REQUESTED:          0  ISSUED:          0  CROSSED:          0  USEFUL:          0  USELESS:          0
LLC AVERAGE iMISS LATENCY: 48.7262 cycles
LLC AVERAGE dMISS LATENCY: 99.5222 cycles
LLC AVERAGE itMISS LATENCY: 4.90437 cycles
LLC AVERAGE dtMISS LATENCY: 19.2064 cycles
LLC PAGE CROSSINGS (TLB HIT):         0 
LLC PAGE CROSSINGS (TLB MISS):         0 
LLC AVERAGE MISS LATENCY: 172.36 cycles

PageTableWalker TOTAL       ACCESS:     183094  
PageTableWalker AVERAGE LATENCY: 6.47645 cycles
PageTableWalker TOTAL LATENCY: 1185799 cycles

DRAM Statistics
Channel 0
 RQ ROW_BUFFER_HIT:     601041
  ROW_BUFFER_MISS:    2254281
 AVG DBUS CONGESTED CYCLE:    3.64597
 WQ ROW_BUFFER_HIT:      62088
  ROW_BUFFER_MISS:      51924  FULL:          0

