last_page:0x200000000000000
VMEM_RES_CAP:0x100000
PAGE_SIZE:4096
LOG2_PAGE_SIZE:12
LOG2_PAGE_TABLE_SIZE:9
page_table_levels:5
WARNING: physical memory size is smaller than virtual memory size
FDiP enabled with aggresivity 16

*** ChampSim Multicore Out-of-Order Simulator ***

Warmup Instructions: 50000000
Simulation Instructions: 100000000
Number of CPUs: 1
Small page size: 4096
Large page size: 2097152

CPU 0 Bimodal branch predictor
Basic BTB sets: 1024 ways: 8 indirect buffer size: 4096 RAS size: 64
Instruction page size distrubution: 0
Loading instruction page size distribution from /home/bsc/bsc018186/scratch/itp_asplos25_AE/dump/smt_srv540_ap_srv73_ap_1024i.pdst
Data page size distrubution: 0
Loading data page size distribution from /home/bsc/bsc018186/scratch/itp_asplos25_AE/dump/smt_srv540_ap_srv73_ap_1024i.pdst
cpu0_L2C IP-based stride prefetcher
cpu0_L1D next line prefetcher
cpu0_STLB using iTP with max lru@8
cpu0_STLB using iTP with instr@0 and data@2
Init sat counter with 3 bits (max:50).
cpu0_L1I next line prefetcher
Off-chip DRAM Size: 4 GiB Channels: 1 Width: 64-bit Data Rate: 3200 MT/s
Heartbeat CPU 0 instructions: 10000001 cycles: 2500135 heartbeat IPC: 3.99979 cumulative IPC: 3.99979 (Simulation time: 0 hr 0 min 36 sec) 
Heartbeat CPU 0 instructions: 20000001 cycles: 5000506 heartbeat IPC: 3.99941 cumulative IPC: 3.9996 (Simulation time: 0 hr 1 min 13 sec) 
Heartbeat CPU 0 instructions: 30000003 cycles: 7500913 heartbeat IPC: 3.99935 cumulative IPC: 3.99952 (Simulation time: 0 hr 1 min 50 sec) 
Heartbeat CPU 0 instructions: 40000002 cycles: 10001088 heartbeat IPC: 3.99972 cumulative IPC: 3.99957 (Simulation time: 0 hr 2 min 28 sec) 
Heartbeat CPU 0 instructions: 50000003 cycles: 12502213 heartbeat IPC: 3.99821 cumulative IPC: 3.9993 (Simulation time: 0 hr 3 min 7 sec) 
Warmup finished CPU 0 instructions: 50000003 cycles: 12502214 cumulative IPC: 3.9993 (Simulation time: 0 hr 3 min 7 sec) 

Warmup complete CPU 0 instructions: 50000003 cycles: 12502214 (Simulation time: 0 hr 3 min 7 sec) 

Heartbeat CPU 0 instructions: 60000001 cycles: 35390383 heartbeat IPC: 0.436907 cumulative IPC: 0.436907 (Simulation time: 0 hr 4 min 18 sec) 
Heartbeat CPU 0 instructions: 70000003 cycles: 55824977 heartbeat IPC: 0.489367 cumulative IPC: 0.461652 (Simulation time: 0 hr 5 min 25 sec) 
Heartbeat CPU 0 instructions: 80000002 cycles: 77712541 heartbeat IPC: 0.456881 cumulative IPC: 0.46005 (Simulation time: 0 hr 6 min 34 sec) 
Heartbeat CPU 0 instructions: 90000000 cycles: 106012826 heartbeat IPC: 0.353354 cumulative IPC: 0.427759 (Simulation time: 0 hr 7 min 53 sec) 
Heartbeat CPU 0 instructions: 100000003 cycles: 135698201 heartbeat IPC: 0.336867 cumulative IPC: 0.405858 (Simulation time: 0 hr 9 min 14 sec) 
Heartbeat CPU 0 instructions: 110000001 cycles: 163860140 heartbeat IPC: 0.35509 cumulative IPC: 0.396412 (Simulation time: 0 hr 10 min 34 sec) 
Heartbeat CPU 0 instructions: 120000001 cycles: 191701110 heartbeat IPC: 0.359183 cumulative IPC: 0.390628 (Simulation time: 0 hr 11 min 53 sec) 
Heartbeat CPU 0 instructions: 130000000 cycles: 208864837 heartbeat IPC: 0.582624 cumulative IPC: 0.40741 (Simulation time: 0 hr 13 min 3 sec) 
Heartbeat CPU 0 instructions: 140000002 cycles: 229158320 heartbeat IPC: 0.49277 cumulative IPC: 0.415405 (Simulation time: 0 hr 14 min 49 sec) 
Heartbeat CPU 0 instructions: 150000001 cycles: 256587450 heartbeat IPC: 0.364576 cumulative IPC: 0.409693 (Simulation time: 0 hr 16 min 45 sec) 
Simulation finished CPU 0 instructions: 100000003 cycles: 244085238 cumulative IPC: 0.409693 (Simulation time: 0 hr 16 min 45 sec) 

Simulation complete CPU 0 instructions: 100000003 cycles: 244085238 (Simulation time: 0 hr 16 min 45 sec) 


ChampSim completed all CPUs

Saving instructions large page distribution to /home/bsc/bsc018186/scratch/itp_asplos25_AE/dump/smt_srv540_ap_srv73_ap_1024i.pdst...
Saving data large page distribution to /home/bsc/bsc018186/scratch/itp_asplos25_AE/dump/smt_srv540_ap_srv73_ap_1024i.pdst...
=== Simulation ===
CPU 0 runs /gpfs/projects/bsc18/MN4/bsc18/romol/ChampSim/traces/qualcomm_srv/smt_srv540_ap_srv73_ap_1024i.champsimtrace.xz

Region of Interest Statistics

CPU 0 cumulative IPC: 0.409693 instructions: 100000003 cycles: 244085238
CPU 0 Branch Prediction Accuracy: 78.132% MPKI: 42.4346 Average ROB Occupancy at Mispredict: 11.3936
Branch type MPKI
BRANCH_DIRECT_JUMP: 1.07927
BRANCH_INDIRECT: 22.652
BRANCH_CONDITIONAL: 12.1235
BRANCH_DIRECT_CALL: 1.99652
BRANCH_INDIRECT_CALL: 1.67128
BRANCH_RETURN: 2.91218

Instructions large pages: 0
Instructions small pages: 11045
Large page distribution for instructions: 0%

Data large pages: 0
Data small pages: 9196
Large page distribution for data: 0%

cpu0_L1I TOTAL       ACCESS:   38315465  HIT:   30912530  MISS:    7402935  iACCESS:   38315465  iHIT:   30912530  iMISS:    7402935  dACCESS:          0  dHIT:          0  dMISS:          0  itACCESS:          0  itHIT:          0  itMISS:          0  dtACCESS:          0  dtHIT:          0  dtMISS:          0
cpu0_L1I LOAD         ACCESS:   10594819  HIT:    8568991  MISS:    2025828  iACCESS:   10594819  iHIT:    8568991  iMISS:    2025828  dACCESS:          0  dHIT:          0  dMISS:          0  itACCESS:          0  itHIT:          0  itMISS:          0  dtACCESS:          0  dtHIT:          0  dtMISS:          0
cpu0_L1I RFO          ACCESS:          0  HIT:          0  MISS:          0  iACCESS:          0  iHIT:          0  iMISS:          0  dACCESS:          0  dHIT:          0  dMISS:          0  itACCESS:          0  itHIT:          0  itMISS:          0  dtACCESS:          0  dtHIT:          0  dtMISS:          0
cpu0_L1I PREFETCH     ACCESS:   27720646  HIT:   22343539  MISS:    5377107  iACCESS:   27720646  iHIT:   22343539  iMISS:    5377107  dACCESS:          0  dHIT:          0  dMISS:          0  itACCESS:          0  itHIT:          0  itMISS:          0  dtACCESS:          0  dtHIT:          0  dtMISS:          0
cpu0_L1I WRITE        ACCESS:          0  HIT:          0  MISS:          0  iACCESS:          0  iHIT:          0  iMISS:          0  dACCESS:          0  dHIT:          0  dMISS:          0  itACCESS:          0  itHIT:          0  itMISS:          0  dtACCESS:          0  dtHIT:          0  dtMISS:          0
cpu0_L1I TRANSLATION  ACCESS:          0  HIT:          0  MISS:          0  iACCESS:          0  iHIT:          0  iMISS:          0  dACCESS:          0  dHIT:          0  dMISS:          0  itACCESS:          0  itHIT:          0  itMISS:          0  dtACCESS:          0  dtHIT:          0  dtMISS:          0
cpu0_L1I PREFETCH  REQUESTED:   29982829  ISSUED:   29981825  CROSSED:          0  USEFUL:    1768840  USELESS:     631050
cpu0_L1I AVERAGE iMISS LATENCY: 24.0781 cycles
cpu0_L1I AVERAGE dMISS LATENCY: 0 cycles
cpu0_L1I AVERAGE itMISS LATENCY: 0 cycles
cpu0_L1I AVERAGE dtMISS LATENCY: 0 cycles
cpu0_L1I PAGE CROSSINGS (TLB HIT):         0 
cpu0_L1I PAGE CROSSINGS (TLB MISS):         0 
cpu0_L1I AVERAGE MISS LATENCY: 24.0781 cycles
cpu0_ITLB TOTAL       ACCESS:   32224026  HIT:   30405705  MISS:    1818321  iACCESS:   32224026  iHIT:   30405705  iMISS:    1818321  dACCESS:          0  dHIT:          0  dMISS:          0  itACCESS:          0  itHIT:          0  itMISS:          0  dtACCESS:          0  dtHIT:          0  dtMISS:          0
cpu0_ITLB LOAD         ACCESS:   32224026  HIT:   30405705  MISS:    1818321  iACCESS:   32224026  iHIT:   30405705  iMISS:    1818321  dACCESS:          0  dHIT:          0  dMISS:          0  itACCESS:          0  itHIT:          0  itMISS:          0  dtACCESS:          0  dtHIT:          0  dtMISS:          0
cpu0_ITLB RFO          ACCESS:          0  HIT:          0  MISS:          0  iACCESS:          0  iHIT:          0  iMISS:          0  dACCESS:          0  dHIT:          0  dMISS:          0  itACCESS:          0  itHIT:          0  itMISS:          0  dtACCESS:          0  dtHIT:          0  dtMISS:          0
cpu0_ITLB PREFETCH     ACCESS:          0  HIT:          0  MISS:          0  iACCESS:          0  iHIT:          0  iMISS:          0  dACCESS:          0  dHIT:          0  dMISS:          0  itACCESS:          0  itHIT:          0  itMISS:          0  dtACCESS:          0  dtHIT:          0  dtMISS:          0
cpu0_ITLB WRITE        ACCESS:          0  HIT:          0  MISS:          0  iACCESS:          0  iHIT:          0  iMISS:          0  dACCESS:          0  dHIT:          0  dMISS:          0  itACCESS:          0  itHIT:          0  itMISS:          0  dtACCESS:          0  dtHIT:          0  dtMISS:          0
cpu0_ITLB TRANSLATION  ACCESS:          0  HIT:          0  MISS:          0  iACCESS:          0  iHIT:          0  iMISS:          0  dACCESS:          0  dHIT:          0  dMISS:          0  itACCESS:          0  itHIT:          0  itMISS:          0  dtACCESS:          0  dtHIT:          0  dtMISS:          0
cpu0_ITLB PREFETCH  REQUESTED:          0  ISSUED:          0  CROSSED:          0  USEFUL:     320279  USELESS:      67076
cpu0_ITLB AVERAGE iMISS LATENCY: 5.98413 cycles
cpu0_ITLB AVERAGE dMISS LATENCY: 0 cycles
cpu0_ITLB AVERAGE itMISS LATENCY: 0 cycles
cpu0_ITLB AVERAGE dtMISS LATENCY: 0 cycles
cpu0_ITLB PAGE CROSSINGS (TLB HIT):         0 
cpu0_ITLB PAGE CROSSINGS (TLB MISS):         0 
cpu0_ITLB AVERAGE MISS LATENCY: 5.98413 cycles
cpu0_DTLB TOTAL       ACCESS:   31238736  HIT:   25881121  MISS:    5357615  iACCESS:          0  iHIT:          0  iMISS:          0  dACCESS:   31238736  dHIT:   25881121  dMISS:    5357615  itACCESS:          0  itHIT:          0  itMISS:          0  dtACCESS:          0  dtHIT:          0  dtMISS:          0
cpu0_DTLB LOAD         ACCESS:   31238736  HIT:   25881121  MISS:    5357615  iACCESS:          0  iHIT:          0  iMISS:          0  dACCESS:   31238736  dHIT:   25881121  dMISS:    5357615  itACCESS:          0  itHIT:          0  itMISS:          0  dtACCESS:          0  dtHIT:          0  dtMISS:          0
cpu0_DTLB RFO          ACCESS:          0  HIT:          0  MISS:          0  iACCESS:          0  iHIT:          0  iMISS:          0  dACCESS:          0  dHIT:          0  dMISS:          0  itACCESS:          0  itHIT:          0  itMISS:          0  dtACCESS:          0  dtHIT:          0  dtMISS:          0
cpu0_DTLB PREFETCH     ACCESS:          0  HIT:          0  MISS:          0  iACCESS:          0  iHIT:          0  iMISS:          0  dACCESS:          0  dHIT:          0  dMISS:          0  itACCESS:          0  itHIT:          0  itMISS:          0  dtACCESS:          0  dtHIT:          0  dtMISS:          0
cpu0_DTLB WRITE        ACCESS:          0  HIT:          0  MISS:          0  iACCESS:          0  iHIT:          0  iMISS:          0  dACCESS:          0  dHIT:          0  dMISS:          0  itACCESS:          0  itHIT:          0  itMISS:          0  dtACCESS:          0  dtHIT:          0  dtMISS:          0
cpu0_DTLB TRANSLATION  ACCESS:          0  HIT:          0  MISS:          0  iACCESS:          0  iHIT:          0  iMISS:          0  dACCESS:          0  dHIT:          0  dMISS:          0  itACCESS:          0  itHIT:          0  itMISS:          0  dtACCESS:          0  dtHIT:          0  dtMISS:          0
cpu0_DTLB PREFETCH  REQUESTED:          0  ISSUED:          0  CROSSED:          0  USEFUL:          0  USELESS:          0
cpu0_DTLB AVERAGE iMISS LATENCY: 0 cycles
cpu0_DTLB AVERAGE dMISS LATENCY: 11.5305 cycles
cpu0_DTLB AVERAGE itMISS LATENCY: 0 cycles
cpu0_DTLB AVERAGE dtMISS LATENCY: 0 cycles
cpu0_DTLB PAGE CROSSINGS (TLB HIT):         0 
cpu0_DTLB PAGE CROSSINGS (TLB MISS):         0 
cpu0_DTLB AVERAGE MISS LATENCY: 11.5305 cycles
cpu0_STLB TOTAL       ACCESS:    3261587  HIT:    2977371  MISS:     284216  iACCESS:     387357  iHIT:     336405  iMISS:      50952  dACCESS:    2874230  dHIT:    2640966  dMISS:     233264  itACCESS:          0  itHIT:          0  itMISS:          0  dtACCESS:          0  dtHIT:          0  dtMISS:          0
cpu0_STLB LOAD         ACCESS:    3261587  HIT:    2977371  MISS:     284216  iACCESS:     387357  iHIT:     336405  iMISS:      50952  dACCESS:    2874230  dHIT:    2640966  dMISS:     233264  itACCESS:          0  itHIT:          0  itMISS:          0  dtACCESS:          0  dtHIT:          0  dtMISS:          0
cpu0_STLB RFO          ACCESS:          0  HIT:          0  MISS:          0  iACCESS:          0  iHIT:          0  iMISS:          0  dACCESS:          0  dHIT:          0  dMISS:          0  itACCESS:          0  itHIT:          0  itMISS:          0  dtACCESS:          0  dtHIT:          0  dtMISS:          0
cpu0_STLB PREFETCH     ACCESS:          0  HIT:          0  MISS:          0  iACCESS:          0  iHIT:          0  iMISS:          0  dACCESS:          0  dHIT:          0  dMISS:          0  itACCESS:          0  itHIT:          0  itMISS:          0  dtACCESS:          0  dtHIT:          0  dtMISS:          0
cpu0_STLB WRITE        ACCESS:          0  HIT:          0  MISS:          0  iACCESS:          0  iHIT:          0  iMISS:          0  dACCESS:          0  dHIT:          0  dMISS:          0  itACCESS:          0  itHIT:          0  itMISS:          0  dtACCESS:          0  dtHIT:          0  dtMISS:          0
cpu0_STLB TRANSLATION  ACCESS:          0  HIT:          0  MISS:          0  iACCESS:          0  iHIT:          0  iMISS:          0  dACCESS:          0  dHIT:          0  dMISS:          0  itACCESS:          0  itHIT:          0  itMISS:          0  dtACCESS:          0  dtHIT:          0  dtMISS:          0
cpu0_STLB PREFETCH  REQUESTED:          0  ISSUED:          0  CROSSED:          0  USEFUL:          0  USELESS:          0
cpu0_STLB AVERAGE iMISS LATENCY: 27.5563 cycles
cpu0_STLB AVERAGE dMISS LATENCY: 135.591 cycles
cpu0_STLB AVERAGE itMISS LATENCY: 0 cycles
cpu0_STLB AVERAGE dtMISS LATENCY: 0 cycles
cpu0_STLB PAGE CROSSINGS (TLB HIT):         0 
cpu0_STLB PAGE CROSSINGS (TLB MISS):         0 
cpu0_STLB AVERAGE MISS LATENCY: 163.147 cycles
cpu0_L1D TOTAL       ACCESS:   50105488  HIT:   40557575  MISS:    9547913  iACCESS:          0  iHIT:          0  iMISS:          0  dACCESS:   49633726  dHIT:   40536029  dMISS:    9097697  itACCESS:      66164  itHIT:       4491  itMISS:      61673  dtACCESS:     405598  dtHIT:      17055  dtMISS:     388543
cpu0_L1D LOAD         ACCESS:   24048280  HIT:   19217251  MISS:    4831029  iACCESS:          0  iHIT:          0  iMISS:          0  dACCESS:   24048280  dHIT:   19217251  dMISS:    4831029  itACCESS:          0  itHIT:          0  itMISS:          0  dtACCESS:          0  dtHIT:          0  dtMISS:          0
cpu0_L1D RFO          ACCESS:          0  HIT:          0  MISS:          0  iACCESS:          0  iHIT:          0  iMISS:          0  dACCESS:          0  dHIT:          0  dMISS:          0  itACCESS:          0  itHIT:          0  itMISS:          0  dtACCESS:          0  dtHIT:          0  dtMISS:          0
cpu0_L1D PREFETCH     ACCESS:   15755542  HIT:   12268556  MISS:    3486986  iACCESS:          0  iHIT:          0  iMISS:          0  dACCESS:   15755542  dHIT:   12268556  dMISS:    3486986  itACCESS:          0  itHIT:          0  itMISS:          0  dtACCESS:          0  dtHIT:          0  dtMISS:          0
cpu0_L1D WRITE        ACCESS:    9829904  HIT:    9050222  MISS:     779682  iACCESS:          0  iHIT:          0  iMISS:          0  dACCESS:    9829904  dHIT:    9050222  dMISS:     779682  itACCESS:          0  itHIT:          0  itMISS:          0  dtACCESS:          0  dtHIT:          0  dtMISS:          0
cpu0_L1D TRANSLATION  ACCESS:     471762  HIT:      21546  MISS:     450216  iACCESS:          0  iHIT:          0  iMISS:          0  dACCESS:          0  dHIT:          0  dMISS:          0  itACCESS:      66164  itHIT:       4491  itMISS:      61673  dtACCESS:     405598  dtHIT:      17055  dtMISS:     388543
cpu0_L1D PREFETCH  REQUESTED:   24048280  ISSUED:   19633873  CROSSED:          0  USEFUL:     339918  USELESS:    1046966
cpu0_L1D AVERAGE iMISS LATENCY: 0 cycles
cpu0_L1D AVERAGE dMISS LATENCY: 30.4458 cycles
cpu0_L1D AVERAGE itMISS LATENCY: 0.757248 cycles
cpu0_L1D AVERAGE dtMISS LATENCY: 3.61237 cycles
cpu0_L1D PAGE CROSSINGS (TLB HIT):         0 
cpu0_L1D PAGE CROSSINGS (TLB MISS):         0 
cpu0_L1D AVERAGE MISS LATENCY: 34.8154 cycles
cpu0_L2C TOTAL       ACCESS:    9060231  HIT:    1916375  MISS:    7143856  iACCESS:    3056112  iHIT:     626337  iMISS:    2429775  dACCESS:    5620908  dHIT:    1145023  dMISS:    4475885  itACCESS:      54830  itHIT:      13270  itMISS:      41560  dtACCESS:     328381  dtHIT:     131745  dtMISS:     196636
cpu0_L2C LOAD         ACCESS:    3311508  HIT:     717084  MISS:    2594424  iACCESS:     683324  iHIT:      89828  iMISS:     593496  dACCESS:    2628184  dHIT:     627256  dMISS:    2000928  itACCESS:          0  itHIT:          0  itMISS:          0  dtACCESS:          0  dtHIT:          0  dtMISS:          0
cpu0_L2C RFO          ACCESS:     237408  HIT:      45816  MISS:     191592  iACCESS:          0  iHIT:          0  iMISS:          0  dACCESS:     237408  dHIT:      45816  dMISS:     191592  itACCESS:          0  itHIT:          0  itMISS:          0  dtACCESS:          0  dtHIT:          0  dtMISS:          0
cpu0_L2C PREFETCH     ACCESS:    4791648  HIT:     896481  MISS:    3895167  iACCESS:    2372788  iHIT:     536509  iMISS:    1836279  dACCESS:    2418860  dHIT:     359972  dMISS:    2058888  itACCESS:          0  itHIT:          0  itMISS:          0  dtACCESS:          0  dtHIT:          0  dtMISS:          0
cpu0_L2C WRITE        ACCESS:     336456  HIT:     111979  MISS:     224477  iACCESS:          0  iHIT:          0  iMISS:          0  dACCESS:     336456  dHIT:     111979  dMISS:     224477  itACCESS:          0  itHIT:          0  itMISS:          0  dtACCESS:          0  dtHIT:          0  dtMISS:          0
cpu0_L2C TRANSLATION  ACCESS:     383211  HIT:     145015  MISS:     238196  iACCESS:          0  iHIT:          0  iMISS:          0  dACCESS:          0  dHIT:          0  dMISS:          0  itACCESS:      54830  itHIT:      13270  itMISS:      41560  dtACCESS:     328381  dtHIT:     131745  dtMISS:     196636
cpu0_L2C PREFETCH  REQUESTED:    1215798  ISSUED:    1215792  CROSSED:          0  USEFUL:     317747  USELESS:     391610
cpu0_L2C AVERAGE iMISS LATENCY: 21.3004 cycles
cpu0_L2C AVERAGE dMISS LATENCY: 44.8391 cycles
cpu0_L2C AVERAGE itMISS LATENCY: 0.936973 cycles
cpu0_L2C AVERAGE dtMISS LATENCY: 4.38471 cycles
cpu0_L2C PAGE CROSSINGS (TLB HIT):         0 
cpu0_L2C PAGE CROSSINGS (TLB MISS):         0 
cpu0_L2C AVERAGE MISS LATENCY: 71.4611 cycles
LLC TOTAL       ACCESS:    6994190  HIT:    4801476  MISS:    2192714  iACCESS:    2361959  iHIT:    1693529  iMISS:     668430  dACCESS:    4394035  dHIT:    3046083  dMISS:    1347952  itACCESS:      41560  itHIT:       8454  itMISS:      33106  dtACCESS:     196636  dtHIT:      53410  dtMISS:     143226
LLC LOAD         ACCESS:    2587944  HIT:    2048520  MISS:     539424  iACCESS:     592424  iHIT:     452108  iMISS:     140316  dACCESS:    1995520  dHIT:    1596412  dMISS:     399108  itACCESS:          0  itHIT:          0  itMISS:          0  dtACCESS:          0  dtHIT:          0  dtMISS:          0
LLC RFO          ACCESS:     191557  HIT:      99248  MISS:      92309  iACCESS:          0  iHIT:          0  iMISS:          0  dACCESS:     191557  dHIT:      99248  dMISS:      92309  itACCESS:          0  itHIT:          0  itMISS:          0  dtACCESS:          0  dtHIT:          0  dtMISS:          0
LLC PREFETCH     ACCESS:    3719220  HIT:    2340795  MISS:    1378425  iACCESS:    1769535  iHIT:    1241421  iMISS:     528114  dACCESS:    1949685  dHIT:    1099374  dMISS:     850311  itACCESS:          0  itHIT:          0  itMISS:          0  dtACCESS:          0  dtHIT:          0  dtMISS:          0
LLC WRITE        ACCESS:     257273  HIT:     251049  MISS:       6224  iACCESS:          0  iHIT:          0  iMISS:          0  dACCESS:     257273  dHIT:     251049  dMISS:       6224  itACCESS:          0  itHIT:          0  itMISS:          0  dtACCESS:          0  dtHIT:          0  dtMISS:          0
LLC TRANSLATION  ACCESS:     238196  HIT:      61864  MISS:     176332  iACCESS:          0  iHIT:          0  iMISS:          0  dACCESS:          0  dHIT:          0  dMISS:          0  itACCESS:      41560  itHIT:       8454  itMISS:      33106  dtACCESS:     196636  dtHIT:      53410  dtMISS:     143226
LLC PREFETCH  REQUESTED:          0  ISSUED:          0  CROSSED:          0  USEFUL:          0  USELESS:          0
LLC AVERAGE iMISS LATENCY: 48.4842 cycles
LLC AVERAGE dMISS LATENCY: 110.385 cycles
LLC AVERAGE itMISS LATENCY: 2.67879 cycles
LLC AVERAGE dtMISS LATENCY: 12.522 cycles
LLC PAGE CROSSINGS (TLB HIT):         0 
LLC PAGE CROSSINGS (TLB MISS):         0 
LLC AVERAGE MISS LATENCY: 174.07 cycles

PageTableWalker TOTAL       ACCESS:     185870  
PageTableWalker AVERAGE LATENCY: 6.18892 cycles
PageTableWalker TOTAL LATENCY: 1150333 cycles

DRAM Statistics
Channel 0
 RQ ROW_BUFFER_HIT:     476307
  ROW_BUFFER_MISS:    1694051
 AVG DBUS CONGESTED CYCLE:    3.65951
 WQ ROW_BUFFER_HIT:      54301
  ROW_BUFFER_MISS:      60174  FULL:          0

