last_page:0x200000000000000
VMEM_RES_CAP:0x100000
PAGE_SIZE:4096
LOG2_PAGE_SIZE:12
LOG2_PAGE_TABLE_SIZE:9
page_table_levels:5
WARNING: physical memory size is smaller than virtual memory size
FDiP enabled with aggresivity 16

*** ChampSim Multicore Out-of-Order Simulator ***

Warmup Instructions: 50000000
Simulation Instructions: 100000000
Number of CPUs: 1
Small page size: 4096
Large page size: 2097152

CPU 0 Bimodal branch predictor
Basic BTB sets: 1024 ways: 8 indirect buffer size: 4096 RAS size: 64
Instruction page size distrubution: 0
Loading instruction page size distribution from /home/bsc/bsc018186/scratch/itp_asplos25_AE/dump/smt_srv12_ap_srv495_ap_1024i.pdst
Data page size distrubution: 0
Loading data page size distribution from /home/bsc/bsc018186/scratch/itp_asplos25_AE/dump/smt_srv12_ap_srv495_ap_1024i.pdst
cpu0_L2C IP-based stride prefetcher
cpu0_L1D next line prefetcher
cpu0_STLB using iTP with max lru@8
cpu0_STLB using iTP with instr@0 and data@2
Init sat counter with 3 bits (max:50).
cpu0_L1I next line prefetcher
Off-chip DRAM Size: 4 GiB Channels: 1 Width: 64-bit Data Rate: 3200 MT/s
Heartbeat CPU 0 instructions: 10000001 cycles: 2500444 heartbeat IPC: 3.9993 cumulative IPC: 3.9993 (Simulation time: 0 hr 0 min 35 sec) 
Heartbeat CPU 0 instructions: 20000003 cycles: 5000492 heartbeat IPC: 3.99993 cumulative IPC: 3.99961 (Simulation time: 0 hr 1 min 13 sec) 
Heartbeat CPU 0 instructions: 30000001 cycles: 7501355 heartbeat IPC: 3.99862 cumulative IPC: 3.99928 (Simulation time: 0 hr 1 min 52 sec) 
Heartbeat CPU 0 instructions: 40000003 cycles: 10001432 heartbeat IPC: 3.99988 cumulative IPC: 3.99943 (Simulation time: 0 hr 2 min 31 sec) 
Heartbeat CPU 0 instructions: 50000003 cycles: 12501542 heartbeat IPC: 3.99983 cumulative IPC: 3.99951 (Simulation time: 0 hr 3 min 10 sec) 
Warmup finished CPU 0 instructions: 50000003 cycles: 12501543 cumulative IPC: 3.99951 (Simulation time: 0 hr 3 min 10 sec) 

Warmup complete CPU 0 instructions: 50000003 cycles: 12501543 (Simulation time: 0 hr 3 min 10 sec) 

Heartbeat CPU 0 instructions: 60000001 cycles: 41888013 heartbeat IPC: 0.340293 cumulative IPC: 0.340293 (Simulation time: 0 hr 4 min 31 sec) 
Heartbeat CPU 0 instructions: 70000003 cycles: 70631790 heartbeat IPC: 0.347902 cumulative IPC: 0.344055 (Simulation time: 0 hr 5 min 51 sec) 
Heartbeat CPU 0 instructions: 80000000 cycles: 100140385 heartbeat IPC: 0.338885 cumulative IPC: 0.342314 (Simulation time: 0 hr 7 min 12 sec) 
Heartbeat CPU 0 instructions: 90000000 cycles: 126799008 heartbeat IPC: 0.375114 cumulative IPC: 0.349964 (Simulation time: 0 hr 8 min 29 sec) 
Heartbeat CPU 0 instructions: 100000001 cycles: 155234932 heartbeat IPC: 0.351668 cumulative IPC: 0.350304 (Simulation time: 0 hr 9 min 49 sec) 
Heartbeat CPU 0 instructions: 110000000 cycles: 184313802 heartbeat IPC: 0.343893 cumulative IPC: 0.349219 (Simulation time: 0 hr 11 min 10 sec) 
Heartbeat CPU 0 instructions: 120000004 cycles: 212780497 heartbeat IPC: 0.351288 cumulative IPC: 0.349513 (Simulation time: 0 hr 12 min 30 sec) 
Heartbeat CPU 0 instructions: 130000002 cycles: 241316833 heartbeat IPC: 0.350431 cumulative IPC: 0.349627 (Simulation time: 0 hr 13 min 51 sec) 
Heartbeat CPU 0 instructions: 140000000 cycles: 269931679 heartbeat IPC: 0.349469 cumulative IPC: 0.34961 (Simulation time: 0 hr 15 min 11 sec) 
Heartbeat CPU 0 instructions: 150000002 cycles: 298416187 heartbeat IPC: 0.351069 cumulative IPC: 0.349755 (Simulation time: 0 hr 16 min 31 sec) 
Simulation finished CPU 0 instructions: 100000004 cycles: 285914646 cumulative IPC: 0.349755 (Simulation time: 0 hr 16 min 31 sec) 

Simulation complete CPU 0 instructions: 100000004 cycles: 285914646 (Simulation time: 0 hr 16 min 31 sec) 


ChampSim completed all CPUs

Saving instructions large page distribution to /home/bsc/bsc018186/scratch/itp_asplos25_AE/dump/smt_srv12_ap_srv495_ap_1024i.pdst...
Saving data large page distribution to /home/bsc/bsc018186/scratch/itp_asplos25_AE/dump/smt_srv12_ap_srv495_ap_1024i.pdst...
=== Simulation ===
CPU 0 runs /gpfs/projects/bsc18/MN4/bsc18/romol/ChampSim/traces/qualcomm_srv/smt_srv12_ap_srv495_ap_1024i.champsimtrace.xz

Region of Interest Statistics

CPU 0 cumulative IPC: 0.349755 instructions: 100000004 cycles: 285914646
CPU 0 Branch Prediction Accuracy: 74.6867% MPKI: 45.8673 Average ROB Occupancy at Mispredict: 10.3264
Branch type MPKI
BRANCH_DIRECT_JUMP: 1.43963
BRANCH_INDIRECT: 23.3813
BRANCH_CONDITIONAL: 13.5832
BRANCH_DIRECT_CALL: 2.79
BRANCH_INDIRECT_CALL: 1.12068
BRANCH_RETURN: 3.55247

Instructions large pages: 0
Instructions small pages: 11363
Large page distribution for instructions: 0%

Data large pages: 0
Data small pages: 9536
Large page distribution for data: 0%

cpu0_L1I TOTAL       ACCESS:   39629108  HIT:   30385799  MISS:    9243309  iACCESS:   39629108  iHIT:   30385799  iMISS:    9243309  dACCESS:          0  dHIT:          0  dMISS:          0  itACCESS:          0  itHIT:          0  itMISS:          0  dtACCESS:          0  dtHIT:          0  dtMISS:          0
cpu0_L1I LOAD         ACCESS:   11763965  HIT:    9262252  MISS:    2501713  iACCESS:   11763965  iHIT:    9262252  iMISS:    2501713  dACCESS:          0  dHIT:          0  dMISS:          0  itACCESS:          0  itHIT:          0  itMISS:          0  dtACCESS:          0  dtHIT:          0  dtMISS:          0
cpu0_L1I RFO          ACCESS:          0  HIT:          0  MISS:          0  iACCESS:          0  iHIT:          0  iMISS:          0  dACCESS:          0  dHIT:          0  dMISS:          0  itACCESS:          0  itHIT:          0  itMISS:          0  dtACCESS:          0  dtHIT:          0  dtMISS:          0
cpu0_L1I PREFETCH     ACCESS:   27865143  HIT:   21123547  MISS:    6741596  iACCESS:   27865143  iHIT:   21123547  iMISS:    6741596  dACCESS:          0  dHIT:          0  dMISS:          0  itACCESS:          0  itHIT:          0  itMISS:          0  dtACCESS:          0  dtHIT:          0  dtMISS:          0
cpu0_L1I WRITE        ACCESS:          0  HIT:          0  MISS:          0  iACCESS:          0  iHIT:          0  iMISS:          0  dACCESS:          0  dHIT:          0  dMISS:          0  itACCESS:          0  itHIT:          0  itMISS:          0  dtACCESS:          0  dtHIT:          0  dtMISS:          0
cpu0_L1I TRANSLATION  ACCESS:          0  HIT:          0  MISS:          0  iACCESS:          0  iHIT:          0  iMISS:          0  dACCESS:          0  dHIT:          0  dMISS:          0  itACCESS:          0  itHIT:          0  itMISS:          0  dtACCESS:          0  dtHIT:          0  dtMISS:          0
cpu0_L1I PREFETCH  REQUESTED:   30404896  ISSUED:   30403495  CROSSED:          0  USEFUL:    2227143  USELESS:     773746
cpu0_L1I AVERAGE iMISS LATENCY: 25.2914 cycles
cpu0_L1I AVERAGE dMISS LATENCY: 0 cycles
cpu0_L1I AVERAGE itMISS LATENCY: 0 cycles
cpu0_L1I AVERAGE dtMISS LATENCY: 0 cycles
cpu0_L1I PAGE CROSSINGS (TLB HIT):         0 
cpu0_L1I PAGE CROSSINGS (TLB MISS):         0 
cpu0_L1I AVERAGE MISS LATENCY: 25.2914 cycles
cpu0_ITLB TOTAL       ACCESS:   33416831  HIT:   31173227  MISS:    2243604  iACCESS:   33416831  iHIT:   31173227  iMISS:    2243604  dACCESS:          0  dHIT:          0  dMISS:          0  itACCESS:          0  itHIT:          0  itMISS:          0  dtACCESS:          0  dtHIT:          0  dtMISS:          0
cpu0_ITLB LOAD         ACCESS:   33416831  HIT:   31173227  MISS:    2243604  iACCESS:   33416831  iHIT:   31173227  iMISS:    2243604  dACCESS:          0  dHIT:          0  dMISS:          0  itACCESS:          0  itHIT:          0  itMISS:          0  dtACCESS:          0  dtHIT:          0  dtMISS:          0
cpu0_ITLB RFO          ACCESS:          0  HIT:          0  MISS:          0  iACCESS:          0  iHIT:          0  iMISS:          0  dACCESS:          0  dHIT:          0  dMISS:          0  itACCESS:          0  itHIT:          0  itMISS:          0  dtACCESS:          0  dtHIT:          0  dtMISS:          0
cpu0_ITLB PREFETCH     ACCESS:          0  HIT:          0  MISS:          0  iACCESS:          0  iHIT:          0  iMISS:          0  dACCESS:          0  dHIT:          0  dMISS:          0  itACCESS:          0  itHIT:          0  itMISS:          0  dtACCESS:          0  dtHIT:          0  dtMISS:          0
cpu0_ITLB WRITE        ACCESS:          0  HIT:          0  MISS:          0  iACCESS:          0  iHIT:          0  iMISS:          0  dACCESS:          0  dHIT:          0  dMISS:          0  itACCESS:          0  itHIT:          0  itMISS:          0  dtACCESS:          0  dtHIT:          0  dtMISS:          0
cpu0_ITLB TRANSLATION  ACCESS:          0  HIT:          0  MISS:          0  iACCESS:          0  iHIT:          0  iMISS:          0  dACCESS:          0  dHIT:          0  dMISS:          0  itACCESS:          0  itHIT:          0  itMISS:          0  dtACCESS:          0  dtHIT:          0  dtMISS:          0
cpu0_ITLB PREFETCH  REQUESTED:          0  ISSUED:          0  CROSSED:          0  USEFUL:     396911  USELESS:      80519
cpu0_ITLB AVERAGE iMISS LATENCY: 6.07317 cycles
cpu0_ITLB AVERAGE dMISS LATENCY: 0 cycles
cpu0_ITLB AVERAGE itMISS LATENCY: 0 cycles
cpu0_ITLB AVERAGE dtMISS LATENCY: 0 cycles
cpu0_ITLB PAGE CROSSINGS (TLB HIT):         0 
cpu0_ITLB PAGE CROSSINGS (TLB MISS):         0 
cpu0_ITLB AVERAGE MISS LATENCY: 6.07317 cycles
cpu0_DTLB TOTAL       ACCESS:   29001475  HIT:   25459372  MISS:    3542103  iACCESS:          0  iHIT:          0  iMISS:          0  dACCESS:   29001475  dHIT:   25459372  dMISS:    3542103  itACCESS:          0  itHIT:          0  itMISS:          0  dtACCESS:          0  dtHIT:          0  dtMISS:          0
cpu0_DTLB LOAD         ACCESS:   29001475  HIT:   25459372  MISS:    3542103  iACCESS:          0  iHIT:          0  iMISS:          0  dACCESS:   29001475  dHIT:   25459372  dMISS:    3542103  itACCESS:          0  itHIT:          0  itMISS:          0  dtACCESS:          0  dtHIT:          0  dtMISS:          0
cpu0_DTLB RFO          ACCESS:          0  HIT:          0  MISS:          0  iACCESS:          0  iHIT:          0  iMISS:          0  dACCESS:          0  dHIT:          0  dMISS:          0  itACCESS:          0  itHIT:          0  itMISS:          0  dtACCESS:          0  dtHIT:          0  dtMISS:          0
cpu0_DTLB PREFETCH     ACCESS:          0  HIT:          0  MISS:          0  iACCESS:          0  iHIT:          0  iMISS:          0  dACCESS:          0  dHIT:          0  dMISS:          0  itACCESS:          0  itHIT:          0  itMISS:          0  dtACCESS:          0  dtHIT:          0  dtMISS:          0
cpu0_DTLB WRITE        ACCESS:          0  HIT:          0  MISS:          0  iACCESS:          0  iHIT:          0  iMISS:          0  dACCESS:          0  dHIT:          0  dMISS:          0  itACCESS:          0  itHIT:          0  itMISS:          0  dtACCESS:          0  dtHIT:          0  dtMISS:          0
cpu0_DTLB TRANSLATION  ACCESS:          0  HIT:          0  MISS:          0  iACCESS:          0  iHIT:          0  iMISS:          0  dACCESS:          0  dHIT:          0  dMISS:          0  itACCESS:          0  itHIT:          0  itMISS:          0  dtACCESS:          0  dtHIT:          0  dtMISS:          0
cpu0_DTLB PREFETCH  REQUESTED:          0  ISSUED:          0  CROSSED:          0  USEFUL:          0  USELESS:          0
cpu0_DTLB AVERAGE iMISS LATENCY: 0 cycles
cpu0_DTLB AVERAGE dMISS LATENCY: 19.5468 cycles
cpu0_DTLB AVERAGE itMISS LATENCY: 0 cycles
cpu0_DTLB AVERAGE dtMISS LATENCY: 0 cycles
cpu0_DTLB PAGE CROSSINGS (TLB HIT):         0 
cpu0_DTLB PAGE CROSSINGS (TLB MISS):         0 
cpu0_DTLB AVERAGE MISS LATENCY: 19.5468 cycles
cpu0_STLB TOTAL       ACCESS:    2561011  HIT:    2180612  MISS:     380399  iACCESS:     477440  iHIT:     413030  iMISS:      64410  dACCESS:    2083571  dHIT:    1767582  dMISS:     315989  itACCESS:          0  itHIT:          0  itMISS:          0  dtACCESS:          0  dtHIT:          0  dtMISS:          0
cpu0_STLB LOAD         ACCESS:    2561011  HIT:    2180612  MISS:     380399  iACCESS:     477440  iHIT:     413030  iMISS:      64410  dACCESS:    2083571  dHIT:    1767582  dMISS:     315989  itACCESS:          0  itHIT:          0  itMISS:          0  dtACCESS:          0  dtHIT:          0  dtMISS:          0
cpu0_STLB RFO          ACCESS:          0  HIT:          0  MISS:          0  iACCESS:          0  iHIT:          0  iMISS:          0  dACCESS:          0  dHIT:          0  dMISS:          0  itACCESS:          0  itHIT:          0  itMISS:          0  dtACCESS:          0  dtHIT:          0  dtMISS:          0
cpu0_STLB PREFETCH     ACCESS:          0  HIT:          0  MISS:          0  iACCESS:          0  iHIT:          0  iMISS:          0  dACCESS:          0  dHIT:          0  dMISS:          0  itACCESS:          0  itHIT:          0  itMISS:          0  dtACCESS:          0  dtHIT:          0  dtMISS:          0
cpu0_STLB WRITE        ACCESS:          0  HIT:          0  MISS:          0  iACCESS:          0  iHIT:          0  iMISS:          0  dACCESS:          0  dHIT:          0  dMISS:          0  itACCESS:          0  itHIT:          0  itMISS:          0  dtACCESS:          0  dtHIT:          0  dtMISS:          0
cpu0_STLB TRANSLATION  ACCESS:          0  HIT:          0  MISS:          0  iACCESS:          0  iHIT:          0  iMISS:          0  dACCESS:          0  dHIT:          0  dMISS:          0  itACCESS:          0  itHIT:          0  itMISS:          0  dtACCESS:          0  dtHIT:          0  dtMISS:          0
cpu0_STLB PREFETCH  REQUESTED:          0  ISSUED:          0  CROSSED:          0  USEFUL:          0  USELESS:          0
cpu0_STLB AVERAGE iMISS LATENCY: 25.9374 cycles
cpu0_STLB AVERAGE dMISS LATENCY: 137.846 cycles
cpu0_STLB AVERAGE itMISS LATENCY: 0 cycles
cpu0_STLB AVERAGE dtMISS LATENCY: 0 cycles
cpu0_STLB PAGE CROSSINGS (TLB HIT):         0 
cpu0_STLB PAGE CROSSINGS (TLB MISS):         0 
cpu0_STLB AVERAGE MISS LATENCY: 163.783 cycles
cpu0_L1D TOTAL       ACCESS:   45169097  HIT:   39343393  MISS:    5825704  iACCESS:          0  iHIT:          0  iMISS:          0  dACCESS:   44584805  dHIT:   39313845  dMISS:    5270960  itACCESS:      75584  itHIT:       6185  itMISS:      69399  dtACCESS:     508708  dtHIT:      23363  dtMISS:     485345
cpu0_L1D LOAD         ACCESS:   20371592  HIT:   18016158  MISS:    2355434  iACCESS:          0  iHIT:          0  iMISS:          0  dACCESS:   20371592  dHIT:   18016158  dMISS:    2355434  itACCESS:          0  itHIT:          0  itMISS:          0  dtACCESS:          0  dtHIT:          0  dtMISS:          0
cpu0_L1D RFO          ACCESS:          0  HIT:          0  MISS:          0  iACCESS:          0  iHIT:          0  iMISS:          0  dACCESS:          0  dHIT:          0  dMISS:          0  itACCESS:          0  itHIT:          0  itMISS:          0  dtACCESS:          0  dtHIT:          0  dtMISS:          0
cpu0_L1D PREFETCH     ACCESS:   14041222  HIT:   11707531  MISS:    2333691  iACCESS:          0  iHIT:          0  iMISS:          0  dACCESS:   14041222  dHIT:   11707531  dMISS:    2333691  itACCESS:          0  itHIT:          0  itMISS:          0  dtACCESS:          0  dtHIT:          0  dtMISS:          0
cpu0_L1D WRITE        ACCESS:   10171991  HIT:    9590156  MISS:     581835  iACCESS:          0  iHIT:          0  iMISS:          0  dACCESS:   10171991  dHIT:    9590156  dMISS:     581835  itACCESS:          0  itHIT:          0  itMISS:          0  dtACCESS:          0  dtHIT:          0  dtMISS:          0
cpu0_L1D TRANSLATION  ACCESS:     584292  HIT:      29548  MISS:     554744  iACCESS:          0  iHIT:          0  iMISS:          0  dACCESS:          0  dHIT:          0  dMISS:          0  itACCESS:      75584  itHIT:       6185  itMISS:      69399  dtACCESS:     508708  dtHIT:      23363  dtMISS:     485345
cpu0_L1D PREFETCH  REQUESTED:   20371592  ISSUED:   18594865  CROSSED:          0  USEFUL:     364721  USELESS:     935431
cpu0_L1D AVERAGE iMISS LATENCY: 0 cycles
cpu0_L1D AVERAGE dMISS LATENCY: 51.1079 cycles
cpu0_L1D AVERAGE itMISS LATENCY: 1.56647 cycles
cpu0_L1D AVERAGE dtMISS LATENCY: 8.08831 cycles
cpu0_L1D PAGE CROSSINGS (TLB HIT):         0 
cpu0_L1D PAGE CROSSINGS (TLB MISS):         0 
cpu0_L1D AVERAGE MISS LATENCY: 60.7626 cycles
cpu0_L2C TOTAL       ACCESS:    8710111  HIT:    1516079  MISS:    7194032  iACCESS:    3807040  iHIT:     772157  iMISS:    3034883  dACCESS:    4380982  dHIT:     538059  dMISS:    3842923  itACCESS:      68990  itHIT:      17865  itMISS:      51125  dtACCESS:     453099  dtHIT:     187998  dtMISS:     265101
cpu0_L2C LOAD         ACCESS:    2052598  HIT:     200196  MISS:    1852402  iACCESS:     841755  iHIT:     107021  iMISS:     734734  dACCESS:    1210843  dHIT:      93175  dMISS:    1117668  itACCESS:          0  itHIT:          0  itMISS:          0  dtACCESS:          0  dtHIT:          0  dtMISS:          0
cpu0_L2C RFO          ACCESS:     215409  HIT:      26779  MISS:     188630  iACCESS:          0  iHIT:          0  iMISS:          0  dACCESS:     215409  dHIT:      26779  dMISS:     188630  itACCESS:          0  itHIT:          0  itMISS:          0  dtACCESS:          0  dtHIT:          0  dtMISS:          0
cpu0_L2C PREFETCH     ACCESS:    5579620  HIT:     985251  MISS:    4594369  iACCESS:    2965285  iHIT:     665136  iMISS:    2300149  dACCESS:    2614335  dHIT:     320115  dMISS:    2294220  itACCESS:          0  itHIT:          0  itMISS:          0  dtACCESS:          0  dtHIT:          0  dtMISS:          0
cpu0_L2C WRITE        ACCESS:     340395  HIT:      97990  MISS:     242405  iACCESS:          0  iHIT:          0  iMISS:          0  dACCESS:     340395  dHIT:      97990  dMISS:     242405  itACCESS:          0  itHIT:          0  itMISS:          0  dtACCESS:          0  dtHIT:          0  dtMISS:          0
cpu0_L2C TRANSLATION  ACCESS:     522089  HIT:     205863  MISS:     316226  iACCESS:          0  iHIT:          0  iMISS:          0  dACCESS:          0  dHIT:          0  dMISS:          0  itACCESS:      68990  itHIT:      17865  itMISS:      51125  dtACCESS:     453099  dtHIT:     187998  dtMISS:     265101
cpu0_L2C PREFETCH  REQUESTED:    1551034  ISSUED:    1551030  CROSSED:          0  USEFUL:     419757  USELESS:     500707
cpu0_L2C AVERAGE iMISS LATENCY: 28.0292 cycles
cpu0_L2C AVERAGE dMISS LATENCY: 51.5018 cycles
cpu0_L2C AVERAGE itMISS LATENCY: 1.1748 cycles
cpu0_L2C AVERAGE dtMISS LATENCY: 5.94337 cycles
cpu0_L2C PAGE CROSSINGS (TLB HIT):         0 
cpu0_L2C PAGE CROSSINGS (TLB MISS):         0 
cpu0_L2C AVERAGE MISS LATENCY: 86.6492 cycles
LLC TOTAL       ACCESS:    6992798  HIT:    4122839  MISS:    2869959  iACCESS:    2939235  iHIT:    2022211  iMISS:     917024  dACCESS:    3737337  dHIT:    2022443  dMISS:    1714894  itACCESS:      51125  itHIT:       9407  itMISS:      41718  dtACCESS:     265101  dtHIT:      68778  dtMISS:     196323
LLC LOAD         ACCESS:    1845328  HIT:    1162208  MISS:     683120  iACCESS:     733344  iHIT:     542766  iMISS:     190578  dACCESS:    1111984  dHIT:     619442  dMISS:     492542  itACCESS:          0  itHIT:          0  itMISS:          0  dtACCESS:          0  dtHIT:          0  dtMISS:          0
LLC RFO          ACCESS:     188585  HIT:      93054  MISS:      95531  iACCESS:          0  iHIT:          0  iMISS:          0  dACCESS:     188585  dHIT:      93054  dMISS:      95531  itACCESS:          0  itHIT:          0  itMISS:          0  dtACCESS:          0  dtHIT:          0  dtMISS:          0
LLC PREFETCH     ACCESS:    4370756  HIT:    2524235  MISS:    1846521  iACCESS:    2205891  iHIT:    1479445  iMISS:     726446  dACCESS:    2164865  dHIT:    1044790  dMISS:    1120075  itACCESS:          0  itHIT:          0  itMISS:          0  dtACCESS:          0  dtHIT:          0  dtMISS:          0
LLC WRITE        ACCESS:     271903  HIT:     265157  MISS:       6746  iACCESS:          0  iHIT:          0  iMISS:          0  dACCESS:     271903  dHIT:     265157  dMISS:       6746  itACCESS:          0  itHIT:          0  itMISS:          0  dtACCESS:          0  dtHIT:          0  dtMISS:          0
LLC TRANSLATION  ACCESS:     316226  HIT:      78185  MISS:     238041  iACCESS:          0  iHIT:          0  iMISS:          0  dACCESS:          0  dHIT:          0  dMISS:          0  itACCESS:      51125  itHIT:       9407  itMISS:      41718  dtACCESS:     265101  dtHIT:      68778  dtMISS:     196323
LLC PREFETCH  REQUESTED:          0  ISSUED:          0  CROSSED:          0  USEFUL:          0  USELESS:          0
LLC AVERAGE iMISS LATENCY: 50.3608 cycles
LLC AVERAGE dMISS LATENCY: 106.507 cycles
LLC AVERAGE itMISS LATENCY: 2.5932 cycles
LLC AVERAGE dtMISS LATENCY: 13.0804 cycles
LLC PAGE CROSSINGS (TLB HIT):         0 
LLC PAGE CROSSINGS (TLB MISS):         0 
LLC AVERAGE MISS LATENCY: 172.541 cycles

PageTableWalker TOTAL       ACCESS:     180912  
PageTableWalker AVERAGE LATENCY: 6.16814 cycles
PageTableWalker TOTAL LATENCY: 1115889 cycles

DRAM Statistics
Channel 0
 RQ ROW_BUFFER_HIT:     642474
  ROW_BUFFER_MISS:    2201378
 AVG DBUS CONGESTED CYCLE:    3.65808
 WQ ROW_BUFFER_HIT:      66921
  ROW_BUFFER_MISS:      63724  FULL:          0

