last_page:0x200000000000000
VMEM_RES_CAP:0x100000
PAGE_SIZE:4096
LOG2_PAGE_SIZE:12
LOG2_PAGE_TABLE_SIZE:9
page_table_levels:5
WARNING: physical memory size is smaller than virtual memory size
FDiP enabled with aggresivity 16

*** ChampSim Multicore Out-of-Order Simulator ***

Warmup Instructions: 50000000
Simulation Instructions: 100000000
Number of CPUs: 1
Small page size: 4096
Large page size: 2097152

CPU 0 Bimodal branch predictor
Basic BTB sets: 1024 ways: 8 indirect buffer size: 4096 RAS size: 64
Instruction page size distrubution: 0
Loading instruction page size distribution from /home/bsc/bsc018186/scratch/itp_asplos25_AE/dump/smt_srv85_ap_srv224_ap_1024i.pdst
Data page size distrubution: 0
Loading data page size distribution from /home/bsc/bsc018186/scratch/itp_asplos25_AE/dump/smt_srv85_ap_srv224_ap_1024i.pdst
cpu0_L2C IP-based stride prefetcher
cpu0_L2C is using PTP replacement policy:
	TLB_STRESS_THRESHOLD:0
	PTE_EVICTION_RATIO:0
cpu0_L1D next line prefetcher
CHiRPing...
cpu0_L1I next line prefetcher
Off-chip DRAM Size: 4 GiB Channels: 1 Width: 64-bit Data Rate: 3200 MT/s
Heartbeat CPU 0 instructions: 10000003 cycles: 2500412 heartbeat IPC: 3.99935 cumulative IPC: 3.99935 (Simulation time: 0 hr 0 min 36 sec) 
Heartbeat CPU 0 instructions: 20000000 cycles: 5000893 heartbeat IPC: 3.99923 cumulative IPC: 3.99929 (Simulation time: 0 hr 1 min 15 sec) 
Heartbeat CPU 0 instructions: 30000001 cycles: 7501285 heartbeat IPC: 3.99938 cumulative IPC: 3.99932 (Simulation time: 0 hr 1 min 53 sec) 
Heartbeat CPU 0 instructions: 40000003 cycles: 10046318 heartbeat IPC: 3.92923 cumulative IPC: 3.98156 (Simulation time: 0 hr 2 min 32 sec) 
Heartbeat CPU 0 instructions: 50000003 cycles: 12610953 heartbeat IPC: 3.8992 cumulative IPC: 3.96481 (Simulation time: 0 hr 3 min 13 sec) 
Warmup finished CPU 0 instructions: 50000003 cycles: 12610954 cumulative IPC: 3.96481 (Simulation time: 0 hr 3 min 13 sec) 

Warmup complete CPU 0 instructions: 50000003 cycles: 12610954 (Simulation time: 0 hr 3 min 13 sec) 

Heartbeat CPU 0 instructions: 60000002 cycles: 28852242 heartbeat IPC: 0.615715 cumulative IPC: 0.615715 (Simulation time: 0 hr 4 min 19 sec) 
Heartbeat CPU 0 instructions: 70000003 cycles: 57986782 heartbeat IPC: 0.343236 cumulative IPC: 0.440764 (Simulation time: 0 hr 5 min 40 sec) 
Heartbeat CPU 0 instructions: 80000003 cycles: 87187253 heartbeat IPC: 0.342461 cumulative IPC: 0.402273 (Simulation time: 0 hr 7 min 1 sec) 
Heartbeat CPU 0 instructions: 90000002 cycles: 117510345 heartbeat IPC: 0.329782 cumulative IPC: 0.381318 (Simulation time: 0 hr 8 min 23 sec) 
Heartbeat CPU 0 instructions: 100000000 cycles: 147347853 heartbeat IPC: 0.335149 cumulative IPC: 0.371094 (Simulation time: 0 hr 9 min 45 sec) 
Heartbeat CPU 0 instructions: 110000002 cycles: 177251238 heartbeat IPC: 0.334411 cumulative IPC: 0.364431 (Simulation time: 0 hr 11 min 7 sec) 
Heartbeat CPU 0 instructions: 120000000 cycles: 206598905 heartbeat IPC: 0.340743 cumulative IPC: 0.360848 (Simulation time: 0 hr 12 min 29 sec) 
Heartbeat CPU 0 instructions: 130000000 cycles: 236500702 heartbeat IPC: 0.334429 cumulative IPC: 0.357319 (Simulation time: 0 hr 13 min 51 sec) 
Heartbeat CPU 0 instructions: 140000004 cycles: 266040900 heartbeat IPC: 0.338522 cumulative IPC: 0.355128 (Simulation time: 0 hr 15 min 12 sec) 
Heartbeat CPU 0 instructions: 150000004 cycles: 295808262 heartbeat IPC: 0.335939 cumulative IPC: 0.353111 (Simulation time: 0 hr 16 min 34 sec) 
Simulation finished CPU 0 instructions: 100000001 cycles: 283197309 cumulative IPC: 0.353111 (Simulation time: 0 hr 16 min 34 sec) 

Simulation complete CPU 0 instructions: 100000001 cycles: 283197309 (Simulation time: 0 hr 16 min 35 sec) 


ChampSim completed all CPUs

Saving instructions large page distribution to /home/bsc/bsc018186/scratch/itp_asplos25_AE/dump/smt_srv85_ap_srv224_ap_1024i.pdst...
Saving data large page distribution to /home/bsc/bsc018186/scratch/itp_asplos25_AE/dump/smt_srv85_ap_srv224_ap_1024i.pdst...
=== Simulation ===
CPU 0 runs /gpfs/projects/bsc18/MN4/bsc18/romol/ChampSim/traces/qualcomm_srv/smt_srv85_ap_srv224_ap_1024i.champsimtrace.xz

Region of Interest Statistics

CPU 0 cumulative IPC: 0.353111 instructions: 100000001 cycles: 283197309
CPU 0 Branch Prediction Accuracy: 76.6953% MPKI: 43.2278 Average ROB Occupancy at Mispredict: 11.4415
Branch type MPKI
BRANCH_DIRECT_JUMP: 1.27519
BRANCH_INDIRECT: 22.7787
BRANCH_CONDITIONAL: 12.4532
BRANCH_DIRECT_CALL: 2.38578
BRANCH_INDIRECT_CALL: 1.01003
BRANCH_RETURN: 3.32498

Instructions large pages: 0
Instructions small pages: 13556
Large page distribution for instructions: 0%

Data large pages: 0
Data small pages: 12167
Large page distribution for data: 0%

cpu0_L1I TOTAL       ACCESS:   39600498  HIT:   31407034  MISS:    8193464  iACCESS:   39600498  iHIT:   31407034  iMISS:    8193464  dACCESS:          0  dHIT:          0  dMISS:          0  itACCESS:          0  itHIT:          0  itMISS:          0  dtACCESS:          0  dtHIT:          0  dtMISS:          0
cpu0_L1I LOAD         ACCESS:   11672755  HIT:    9439071  MISS:    2233684  iACCESS:   11672755  iHIT:    9439071  iMISS:    2233684  dACCESS:          0  dHIT:          0  dMISS:          0  itACCESS:          0  itHIT:          0  itMISS:          0  dtACCESS:          0  dtHIT:          0  dtMISS:          0
cpu0_L1I RFO          ACCESS:          0  HIT:          0  MISS:          0  iACCESS:          0  iHIT:          0  iMISS:          0  dACCESS:          0  dHIT:          0  dMISS:          0  itACCESS:          0  itHIT:          0  itMISS:          0  dtACCESS:          0  dtHIT:          0  dtMISS:          0
cpu0_L1I PREFETCH     ACCESS:   27927743  HIT:   21967963  MISS:    5959780  iACCESS:   27927743  iHIT:   21967963  iMISS:    5959780  dACCESS:          0  dHIT:          0  dMISS:          0  itACCESS:          0  itHIT:          0  itMISS:          0  dtACCESS:          0  dtHIT:          0  dtMISS:          0
cpu0_L1I WRITE        ACCESS:          0  HIT:          0  MISS:          0  iACCESS:          0  iHIT:          0  iMISS:          0  dACCESS:          0  dHIT:          0  dMISS:          0  itACCESS:          0  itHIT:          0  itMISS:          0  dtACCESS:          0  dtHIT:          0  dtMISS:          0
cpu0_L1I TRANSLATION  ACCESS:          0  HIT:          0  MISS:          0  iACCESS:          0  iHIT:          0  iMISS:          0  dACCESS:          0  dHIT:          0  dMISS:          0  itACCESS:          0  itHIT:          0  itMISS:          0  dtACCESS:          0  dtHIT:          0  dtMISS:          0
cpu0_L1I PREFETCH  REQUESTED:   30731923  ISSUED:   30731916  CROSSED:          0  USEFUL:    2081542  USELESS:     714154
cpu0_L1I AVERAGE iMISS LATENCY: 23.5369 cycles
cpu0_L1I AVERAGE dMISS LATENCY: 0 cycles
cpu0_L1I AVERAGE itMISS LATENCY: 0 cycles
cpu0_L1I AVERAGE dtMISS LATENCY: 0 cycles
cpu0_L1I PAGE CROSSINGS (TLB HIT):         0 
cpu0_L1I PAGE CROSSINGS (TLB MISS):         0 
cpu0_L1I AVERAGE MISS LATENCY: 23.5369 cycles
cpu0_ITLB TOTAL       ACCESS:   33348239  HIT:   31262041  MISS:    2086198  iACCESS:   33348239  iHIT:   31262041  iMISS:    2086198  dACCESS:          0  dHIT:          0  dMISS:          0  itACCESS:          0  itHIT:          0  itMISS:          0  dtACCESS:          0  dtHIT:          0  dtMISS:          0
cpu0_ITLB LOAD         ACCESS:   33348239  HIT:   31262041  MISS:    2086198  iACCESS:   33348239  iHIT:   31262041  iMISS:    2086198  dACCESS:          0  dHIT:          0  dMISS:          0  itACCESS:          0  itHIT:          0  itMISS:          0  dtACCESS:          0  dtHIT:          0  dtMISS:          0
cpu0_ITLB RFO          ACCESS:          0  HIT:          0  MISS:          0  iACCESS:          0  iHIT:          0  iMISS:          0  dACCESS:          0  dHIT:          0  dMISS:          0  itACCESS:          0  itHIT:          0  itMISS:          0  dtACCESS:          0  dtHIT:          0  dtMISS:          0
cpu0_ITLB PREFETCH     ACCESS:          0  HIT:          0  MISS:          0  iACCESS:          0  iHIT:          0  iMISS:          0  dACCESS:          0  dHIT:          0  dMISS:          0  itACCESS:          0  itHIT:          0  itMISS:          0  dtACCESS:          0  dtHIT:          0  dtMISS:          0
cpu0_ITLB WRITE        ACCESS:          0  HIT:          0  MISS:          0  iACCESS:          0  iHIT:          0  iMISS:          0  dACCESS:          0  dHIT:          0  dMISS:          0  itACCESS:          0  itHIT:          0  itMISS:          0  dtACCESS:          0  dtHIT:          0  dtMISS:          0
cpu0_ITLB TRANSLATION  ACCESS:          0  HIT:          0  MISS:          0  iACCESS:          0  iHIT:          0  iMISS:          0  dACCESS:          0  dHIT:          0  dMISS:          0  itACCESS:          0  itHIT:          0  itMISS:          0  dtACCESS:          0  dtHIT:          0  dtMISS:          0
cpu0_ITLB PREFETCH  REQUESTED:          0  ISSUED:          0  CROSSED:          0  USEFUL:     363092  USELESS:      74877
cpu0_ITLB AVERAGE iMISS LATENCY: 9.99382 cycles
cpu0_ITLB AVERAGE dMISS LATENCY: 0 cycles
cpu0_ITLB AVERAGE itMISS LATENCY: 0 cycles
cpu0_ITLB AVERAGE dtMISS LATENCY: 0 cycles
cpu0_ITLB PAGE CROSSINGS (TLB HIT):         0 
cpu0_ITLB PAGE CROSSINGS (TLB MISS):         0 
cpu0_ITLB AVERAGE MISS LATENCY: 9.99382 cycles
cpu0_DTLB TOTAL       ACCESS:   29677973  HIT:   24903741  MISS:    4774232  iACCESS:          0  iHIT:          0  iMISS:          0  dACCESS:   29677973  dHIT:   24903741  dMISS:    4774232  itACCESS:          0  itHIT:          0  itMISS:          0  dtACCESS:          0  dtHIT:          0  dtMISS:          0
cpu0_DTLB LOAD         ACCESS:   29677973  HIT:   24903741  MISS:    4774232  iACCESS:          0  iHIT:          0  iMISS:          0  dACCESS:   29677973  dHIT:   24903741  dMISS:    4774232  itACCESS:          0  itHIT:          0  itMISS:          0  dtACCESS:          0  dtHIT:          0  dtMISS:          0
cpu0_DTLB RFO          ACCESS:          0  HIT:          0  MISS:          0  iACCESS:          0  iHIT:          0  iMISS:          0  dACCESS:          0  dHIT:          0  dMISS:          0  itACCESS:          0  itHIT:          0  itMISS:          0  dtACCESS:          0  dtHIT:          0  dtMISS:          0
cpu0_DTLB PREFETCH     ACCESS:          0  HIT:          0  MISS:          0  iACCESS:          0  iHIT:          0  iMISS:          0  dACCESS:          0  dHIT:          0  dMISS:          0  itACCESS:          0  itHIT:          0  itMISS:          0  dtACCESS:          0  dtHIT:          0  dtMISS:          0
cpu0_DTLB WRITE        ACCESS:          0  HIT:          0  MISS:          0  iACCESS:          0  iHIT:          0  iMISS:          0  dACCESS:          0  dHIT:          0  dMISS:          0  itACCESS:          0  itHIT:          0  itMISS:          0  dtACCESS:          0  dtHIT:          0  dtMISS:          0
cpu0_DTLB TRANSLATION  ACCESS:          0  HIT:          0  MISS:          0  iACCESS:          0  iHIT:          0  iMISS:          0  dACCESS:          0  dHIT:          0  dMISS:          0  itACCESS:          0  itHIT:          0  itMISS:          0  dtACCESS:          0  dtHIT:          0  dtMISS:          0
cpu0_DTLB PREFETCH  REQUESTED:          0  ISSUED:          0  CROSSED:          0  USEFUL:          0  USELESS:          0
cpu0_DTLB AVERAGE iMISS LATENCY: 0 cycles
cpu0_DTLB AVERAGE dMISS LATENCY: 18.6997 cycles
cpu0_DTLB AVERAGE itMISS LATENCY: 0 cycles
cpu0_DTLB AVERAGE dtMISS LATENCY: 0 cycles
cpu0_DTLB PAGE CROSSINGS (TLB HIT):         0 
cpu0_DTLB PAGE CROSSINGS (TLB MISS):         0 
cpu0_DTLB AVERAGE MISS LATENCY: 18.6997 cycles
cpu0_STLB TOTAL       ACCESS:    3064202  HIT:    2713105  MISS:     351097  iACCESS:     437978  iHIT:     333472  iMISS:     104506  dACCESS:    2626224  dHIT:    2379633  dMISS:     246591  itACCESS:          0  itHIT:          0  itMISS:          0  dtACCESS:          0  dtHIT:          0  dtMISS:          0
cpu0_STLB LOAD         ACCESS:    3064202  HIT:    2713105  MISS:     351097  iACCESS:     437978  iHIT:     333472  iMISS:     104506  dACCESS:    2626224  dHIT:    2379633  dMISS:     246591  itACCESS:          0  itHIT:          0  itMISS:          0  dtACCESS:          0  dtHIT:          0  dtMISS:          0
cpu0_STLB RFO          ACCESS:          0  HIT:          0  MISS:          0  iACCESS:          0  iHIT:          0  iMISS:          0  dACCESS:          0  dHIT:          0  dMISS:          0  itACCESS:          0  itHIT:          0  itMISS:          0  dtACCESS:          0  dtHIT:          0  dtMISS:          0
cpu0_STLB PREFETCH     ACCESS:          0  HIT:          0  MISS:          0  iACCESS:          0  iHIT:          0  iMISS:          0  dACCESS:          0  dHIT:          0  dMISS:          0  itACCESS:          0  itHIT:          0  itMISS:          0  dtACCESS:          0  dtHIT:          0  dtMISS:          0
cpu0_STLB WRITE        ACCESS:          0  HIT:          0  MISS:          0  iACCESS:          0  iHIT:          0  iMISS:          0  dACCESS:          0  dHIT:          0  dMISS:          0  itACCESS:          0  itHIT:          0  itMISS:          0  dtACCESS:          0  dtHIT:          0  dtMISS:          0
cpu0_STLB TRANSLATION  ACCESS:          0  HIT:          0  MISS:          0  iACCESS:          0  iHIT:          0  iMISS:          0  dACCESS:          0  dHIT:          0  dMISS:          0  itACCESS:          0  itHIT:          0  itMISS:          0  dtACCESS:          0  dtHIT:          0  dtMISS:          0
cpu0_STLB PREFETCH  REQUESTED:          0  ISSUED:          0  CROSSED:          0  USEFUL:          0  USELESS:          0
cpu0_STLB AVERAGE iMISS LATENCY: 49.412 cycles
cpu0_STLB AVERAGE dMISS LATENCY: 193.926 cycles
cpu0_STLB AVERAGE itMISS LATENCY: 0 cycles
cpu0_STLB AVERAGE dtMISS LATENCY: 0 cycles
cpu0_STLB PAGE CROSSINGS (TLB HIT):         0 
cpu0_STLB PAGE CROSSINGS (TLB MISS):         0 
cpu0_STLB AVERAGE MISS LATENCY: 243.338 cycles
cpu0_L1D TOTAL       ACCESS:   45825906  HIT:   39505596  MISS:    6320310  iACCESS:          0  iHIT:          0  iMISS:          0  dACCESS:   45309681  dHIT:   39475129  dMISS:    5834552  itACCESS:     117669  itHIT:      12616  itMISS:     105053  dtACCESS:     398556  dtHIT:      17851  dtMISS:     380705
cpu0_L1D LOAD         ACCESS:   21148160  HIT:   18190432  MISS:    2957728  iACCESS:          0  iHIT:          0  iMISS:          0  dACCESS:   21148160  dHIT:   18190432  dMISS:    2957728  itACCESS:          0  itHIT:          0  itMISS:          0  dtACCESS:          0  dtHIT:          0  dtMISS:          0
cpu0_L1D RFO          ACCESS:          0  HIT:          0  MISS:          0  iACCESS:          0  iHIT:          0  iMISS:          0  dACCESS:          0  dHIT:          0  dMISS:          0  itACCESS:          0  itHIT:          0  itMISS:          0  dtACCESS:          0  dtHIT:          0  dtMISS:          0
cpu0_L1D PREFETCH     ACCESS:   14133941  HIT:   11812295  MISS:    2321646  iACCESS:          0  iHIT:          0  iMISS:          0  dACCESS:   14133941  dHIT:   11812295  dMISS:    2321646  itACCESS:          0  itHIT:          0  itMISS:          0  dtACCESS:          0  dtHIT:          0  dtMISS:          0
cpu0_L1D WRITE        ACCESS:   10027580  HIT:    9472402  MISS:     555178  iACCESS:          0  iHIT:          0  iMISS:          0  dACCESS:   10027580  dHIT:    9472402  dMISS:     555178  itACCESS:          0  itHIT:          0  itMISS:          0  dtACCESS:          0  dtHIT:          0  dtMISS:          0
cpu0_L1D TRANSLATION  ACCESS:     516225  HIT:      30467  MISS:     485758  iACCESS:          0  iHIT:          0  iMISS:          0  dACCESS:          0  dHIT:          0  dMISS:          0  itACCESS:     117669  itHIT:      12616  itMISS:     105053  dtACCESS:     398556  dtHIT:      17851  dtMISS:     380705
cpu0_L1D PREFETCH  REQUESTED:   21148160  ISSUED:   18678502  CROSSED:          0  USEFUL:     340218  USELESS:    1025022
cpu0_L1D AVERAGE iMISS LATENCY: 0 cycles
cpu0_L1D AVERAGE dMISS LATENCY: 42.5063 cycles
cpu0_L1D AVERAGE itMISS LATENCY: 2.58784 cycles
cpu0_L1D AVERAGE dtMISS LATENCY: 9.96034 cycles
cpu0_L1D PAGE CROSSINGS (TLB HIT):         0 
cpu0_L1D PAGE CROSSINGS (TLB MISS):         0 
cpu0_L1D AVERAGE MISS LATENCY: 55.0545 cycles
cpu0_L2C TOTAL       ACCESS:    9036775  HIT:    4794394  MISS:    4242381  iACCESS:    3551474  iHIT:    2141071  iMISS:    1410403  dACCESS:    5026748  dHIT:    2592262  dMISS:    2434486  itACCESS:     104389  itHIT:      19946  itMISS:      84443  dtACCESS:     354164  dtHIT:      41115  dtMISS:     313049
cpu0_L2C LOAD         ACCESS:    2684352  HIT:    1643426  MISS:    1040926  iACCESS:     791951  iHIT:     495510  iMISS:     296441  dACCESS:    1892401  dHIT:    1147916  dMISS:     744485  itACCESS:          0  itHIT:          0  itMISS:          0  dtACCESS:          0  dtHIT:          0  dtMISS:          0
cpu0_L2C RFO          ACCESS:     214898  HIT:      91965  MISS:     122933  iACCESS:          0  iHIT:          0  iMISS:          0  dACCESS:     214898  dHIT:      91965  dMISS:     122933  itACCESS:          0  itHIT:          0  itMISS:          0  dtACCESS:          0  dtHIT:          0  dtMISS:          0
cpu0_L2C PREFETCH     ACCESS:    5344729  HIT:    2676461  MISS:    2668268  iACCESS:    2759523  iHIT:    1645561  iMISS:    1113962  dACCESS:    2585206  dHIT:    1030900  dMISS:    1554306  itACCESS:          0  itHIT:          0  itMISS:          0  dtACCESS:          0  dtHIT:          0  dtMISS:          0
cpu0_L2C WRITE        ACCESS:     334243  HIT:     321481  MISS:      12762  iACCESS:          0  iHIT:          0  iMISS:          0  dACCESS:     334243  dHIT:     321481  dMISS:      12762  itACCESS:          0  itHIT:          0  itMISS:          0  dtACCESS:          0  dtHIT:          0  dtMISS:          0
cpu0_L2C TRANSLATION  ACCESS:     458553  HIT:      61061  MISS:     397492  iACCESS:          0  iHIT:          0  iMISS:          0  dACCESS:          0  dHIT:          0  dMISS:          0  itACCESS:     104389  itHIT:      19946  itMISS:      84443  dtACCESS:     354164  dtHIT:      41115  dtMISS:     313049
cpu0_L2C PREFETCH  REQUESTED:    1444198  ISSUED:    1444171  CROSSED:          0  USEFUL:     339513  USELESS:     305656
cpu0_L2C AVERAGE iMISS LATENCY: 38.4156 cycles
cpu0_L2C AVERAGE dMISS LATENCY: 75.3838 cycles
cpu0_L2C AVERAGE itMISS LATENCY: 3.61329 cycles
cpu0_L2C AVERAGE dtMISS LATENCY: 14.009 cycles
cpu0_L2C PAGE CROSSINGS (TLB HIT):         0 
cpu0_L2C PAGE CROSSINGS (TLB MISS):         0 
cpu0_L2C AVERAGE MISS LATENCY: 131.422 cycles
LLC TOTAL       ACCESS:    4234247  HIT:    1430339  MISS:    2803908  iACCESS:    1324406  iHIT:     455948  iMISS:     868458  dACCESS:    2512349  dHIT:     931956  dMISS:    1580393  itACCESS:      84443  itHIT:       7328  itMISS:      77115  dtACCESS:     313049  dtHIT:      35107  dtMISS:     277942
LLC LOAD         ACCESS:    1035349  HIT:     391829  MISS:     643520  iACCESS:     295024  iHIT:     109800  iMISS:     185224  dACCESS:     740325  dHIT:     282029  dMISS:     458296  itACCESS:          0  itHIT:          0  itMISS:          0  dtACCESS:          0  dtHIT:          0  dtMISS:          0
LLC RFO          ACCESS:     122925  HIT:      41650  MISS:      81275  iACCESS:          0  iHIT:          0  iMISS:          0  dACCESS:     122925  dHIT:      41650  dMISS:      81275  itACCESS:          0  itHIT:          0  itMISS:          0  dtACCESS:          0  dtHIT:          0  dtMISS:          0
LLC PREFETCH     ACCESS:    2474197  HIT:     759873  MISS:    1714324  iACCESS:    1029382  iHIT:     346148  iMISS:     683234  dACCESS:    1444815  dHIT:     413725  dMISS:    1031090  itACCESS:          0  itHIT:          0  itMISS:          0  dtACCESS:          0  dtHIT:          0  dtMISS:          0
LLC WRITE        ACCESS:     204284  HIT:     194552  MISS:       9732  iACCESS:          0  iHIT:          0  iMISS:          0  dACCESS:     204284  dHIT:     194552  dMISS:       9732  itACCESS:          0  itHIT:          0  itMISS:          0  dtACCESS:          0  dtHIT:          0  dtMISS:          0
LLC TRANSLATION  ACCESS:     397492  HIT:      42435  MISS:     355057  iACCESS:          0  iHIT:          0  iMISS:          0  dACCESS:          0  dHIT:          0  dMISS:          0  itACCESS:      84443  itHIT:       7328  itMISS:      77115  dtACCESS:     313049  dtHIT:      35107  dtMISS:     277942
LLC PREFETCH  REQUESTED:          0  ISSUED:          0  CROSSED:          0  USEFUL:          0  USELESS:          0
LLC AVERAGE iMISS LATENCY: 48.8189 cycles
LLC AVERAGE dMISS LATENCY: 98.5299 cycles
LLC AVERAGE itMISS LATENCY: 4.86978 cycles
LLC AVERAGE dtMISS LATENCY: 18.9892 cycles
LLC PAGE CROSSINGS (TLB HIT):         0 
LLC PAGE CROSSINGS (TLB MISS):         0 
LLC AVERAGE MISS LATENCY: 171.208 cycles

PageTableWalker TOTAL       ACCESS:     167676  
PageTableWalker AVERAGE LATENCY: 6.42119 cycles
PageTableWalker TOTAL LATENCY: 1076678 cycles

DRAM Statistics
Channel 0
 RQ ROW_BUFFER_HIT:     600210
  ROW_BUFFER_MISS:    2184040
 AVG DBUS CONGESTED CYCLE:    3.64869
 WQ ROW_BUFFER_HIT:      60645
  ROW_BUFFER_MISS:      52278  FULL:          0

