last_page:0x200000000000000
VMEM_RES_CAP:0x100000
PAGE_SIZE:4096
LOG2_PAGE_SIZE:12
LOG2_PAGE_TABLE_SIZE:9
page_table_levels:5
WARNING: physical memory size is smaller than virtual memory size
FDiP enabled with aggresivity 16

*** ChampSim Multicore Out-of-Order Simulator ***

Warmup Instructions: 50000000
Simulation Instructions: 100000000
Number of CPUs: 1
Small page size: 4096
Large page size: 2097152

CPU 0 Bimodal branch predictor
Basic BTB sets: 1024 ways: 8 indirect buffer size: 4096 RAS size: 64
Instruction page size distrubution: 0
Loading instruction page size distribution from /home/bsc/bsc018186/scratch/itp_asplos25_AE/dump/smt_srv85_ap_srv551_ap_1024i.pdst
Data page size distrubution: 0
Loading data page size distribution from /home/bsc/bsc018186/scratch/itp_asplos25_AE/dump/smt_srv85_ap_srv551_ap_1024i.pdst
cpu0_L2C IP-based stride prefetcher
cpu0_L2C is using PTP replacement policy:
	TLB_STRESS_THRESHOLD:0
	PTE_EVICTION_RATIO:0
cpu0_L1D next line prefetcher
CHiRPing...
cpu0_L1I next line prefetcher
Off-chip DRAM Size: 4 GiB Channels: 1 Width: 64-bit Data Rate: 3200 MT/s
Heartbeat CPU 0 instructions: 10000000 cycles: 2500373 heartbeat IPC: 3.99941 cumulative IPC: 3.99941 (Simulation time: 0 hr 0 min 36 sec) 
Heartbeat CPU 0 instructions: 20000000 cycles: 5000691 heartbeat IPC: 3.9995 cumulative IPC: 3.99945 (Simulation time: 0 hr 1 min 14 sec) 
Heartbeat CPU 0 instructions: 30000002 cycles: 7501076 heartbeat IPC: 3.99939 cumulative IPC: 3.99943 (Simulation time: 0 hr 1 min 53 sec) 
Heartbeat CPU 0 instructions: 40000000 cycles: 10001562 heartbeat IPC: 3.99923 cumulative IPC: 3.99938 (Simulation time: 0 hr 2 min 31 sec) 
Heartbeat CPU 0 instructions: 50000000 cycles: 12502180 heartbeat IPC: 3.99902 cumulative IPC: 3.99931 (Simulation time: 0 hr 3 min 10 sec) 
Warmup finished CPU 0 instructions: 50000000 cycles: 12502181 cumulative IPC: 3.99931 (Simulation time: 0 hr 3 min 10 sec) 

Warmup complete CPU 0 instructions: 50000000 cycles: 12502181 (Simulation time: 0 hr 3 min 10 sec) 

Heartbeat CPU 0 instructions: 60000000 cycles: 43225210 heartbeat IPC: 0.325489 cumulative IPC: 0.325489 (Simulation time: 0 hr 4 min 33 sec) 
Heartbeat CPU 0 instructions: 70000000 cycles: 74703815 heartbeat IPC: 0.317677 cumulative IPC: 0.321535 (Simulation time: 0 hr 5 min 56 sec) 
Heartbeat CPU 0 instructions: 80000002 cycles: 105002573 heartbeat IPC: 0.330047 cumulative IPC: 0.324323 (Simulation time: 0 hr 7 min 18 sec) 
Heartbeat CPU 0 instructions: 90000002 cycles: 135860313 heartbeat IPC: 0.324068 cumulative IPC: 0.32426 (Simulation time: 0 hr 8 min 41 sec) 
Heartbeat CPU 0 instructions: 100000000 cycles: 167146631 heartbeat IPC: 0.319629 cumulative IPC: 0.323323 (Simulation time: 0 hr 10 min 4 sec) 
Heartbeat CPU 0 instructions: 110000000 cycles: 196960950 heartbeat IPC: 0.33541 cumulative IPC: 0.325276 (Simulation time: 0 hr 11 min 25 sec) 
Heartbeat CPU 0 instructions: 120000000 cycles: 222755144 heartbeat IPC: 0.387685 cumulative IPC: 0.332933 (Simulation time: 0 hr 12 min 42 sec) 
Heartbeat CPU 0 instructions: 130000001 cycles: 240030273 heartbeat IPC: 0.578867 cumulative IPC: 0.351605 (Simulation time: 0 hr 13 min 50 sec) 
Heartbeat CPU 0 instructions: 140000003 cycles: 258046179 heartbeat IPC: 0.555066 cumulative IPC: 0.366534 (Simulation time: 0 hr 14 min 57 sec) 
Heartbeat CPU 0 instructions: 150000000 cycles: 290652322 heartbeat IPC: 0.306691 cumulative IPC: 0.359519 (Simulation time: 0 hr 16 min 23 sec) 
Simulation finished CPU 0 instructions: 100000000 cycles: 278150142 cumulative IPC: 0.359519 (Simulation time: 0 hr 16 min 23 sec) 

Simulation complete CPU 0 instructions: 100000000 cycles: 278150142 (Simulation time: 0 hr 16 min 23 sec) 


ChampSim completed all CPUs

Saving instructions large page distribution to /home/bsc/bsc018186/scratch/itp_asplos25_AE/dump/smt_srv85_ap_srv551_ap_1024i.pdst...
Saving data large page distribution to /home/bsc/bsc018186/scratch/itp_asplos25_AE/dump/smt_srv85_ap_srv551_ap_1024i.pdst...
=== Simulation ===
CPU 0 runs /gpfs/projects/bsc18/MN4/bsc18/romol/ChampSim/traces/qualcomm_srv/smt_srv85_ap_srv551_ap_1024i.champsimtrace.xz

Region of Interest Statistics

CPU 0 cumulative IPC: 0.359519 instructions: 100000000 cycles: 278150142
CPU 0 Branch Prediction Accuracy: 77.8805% MPKI: 42.6554 Average ROB Occupancy at Mispredict: 11.2513
Branch type MPKI
BRANCH_DIRECT_JUMP: 1.24168
BRANCH_INDIRECT: 23.0029
BRANCH_CONDITIONAL: 11.689
BRANCH_DIRECT_CALL: 2.35969
BRANCH_INDIRECT_CALL: 1.06194
BRANCH_RETURN: 3.30025

Instructions large pages: 0
Instructions small pages: 10447
Large page distribution for instructions: 0%

Data large pages: 0
Data small pages: 8982
Large page distribution for data: 0%

cpu0_L1I TOTAL       ACCESS:   39761808  HIT:   32008430  MISS:    7753378  iACCESS:   39761808  iHIT:   32008430  iMISS:    7753378  dACCESS:          0  dHIT:          0  dMISS:          0  itACCESS:          0  itHIT:          0  itMISS:          0  dtACCESS:          0  dtHIT:          0  dtMISS:          0
cpu0_L1I LOAD         ACCESS:   11357215  HIT:    9246184  MISS:    2111031  iACCESS:   11357215  iHIT:    9246184  iMISS:    2111031  dACCESS:          0  dHIT:          0  dMISS:          0  itACCESS:          0  itHIT:          0  itMISS:          0  dtACCESS:          0  dtHIT:          0  dtMISS:          0
cpu0_L1I RFO          ACCESS:          0  HIT:          0  MISS:          0  iACCESS:          0  iHIT:          0  iMISS:          0  dACCESS:          0  dHIT:          0  dMISS:          0  itACCESS:          0  itHIT:          0  itMISS:          0  dtACCESS:          0  dtHIT:          0  dtMISS:          0
cpu0_L1I PREFETCH     ACCESS:   28404593  HIT:   22762246  MISS:    5642347  iACCESS:   28404593  iHIT:   22762246  iMISS:    5642347  dACCESS:          0  dHIT:          0  dMISS:          0  itACCESS:          0  itHIT:          0  itMISS:          0  dtACCESS:          0  dtHIT:          0  dtMISS:          0
cpu0_L1I WRITE        ACCESS:          0  HIT:          0  MISS:          0  iACCESS:          0  iHIT:          0  iMISS:          0  dACCESS:          0  dHIT:          0  dMISS:          0  itACCESS:          0  itHIT:          0  itMISS:          0  dtACCESS:          0  dtHIT:          0  dtMISS:          0
cpu0_L1I TRANSLATION  ACCESS:          0  HIT:          0  MISS:          0  iACCESS:          0  iHIT:          0  iMISS:          0  dACCESS:          0  dHIT:          0  dMISS:          0  itACCESS:          0  itHIT:          0  itMISS:          0  dtACCESS:          0  dtHIT:          0  dtMISS:          0
cpu0_L1I PREFETCH  REQUESTED:   31086108  ISSUED:   31086026  CROSSED:          0  USEFUL:    1970617  USELESS:     685742
cpu0_L1I AVERAGE iMISS LATENCY: 24.5679 cycles
cpu0_L1I AVERAGE dMISS LATENCY: 0 cycles
cpu0_L1I AVERAGE itMISS LATENCY: 0 cycles
cpu0_L1I AVERAGE dtMISS LATENCY: 0 cycles
cpu0_L1I PAGE CROSSINGS (TLB HIT):         0 
cpu0_L1I PAGE CROSSINGS (TLB MISS):         0 
cpu0_L1I AVERAGE MISS LATENCY: 24.5679 cycles
cpu0_ITLB TOTAL       ACCESS:   33467518  HIT:   31481009  MISS:    1986509  iACCESS:   33467518  iHIT:   31481009  iMISS:    1986509  dACCESS:          0  dHIT:          0  dMISS:          0  itACCESS:          0  itHIT:          0  itMISS:          0  dtACCESS:          0  dtHIT:          0  dtMISS:          0
cpu0_ITLB LOAD         ACCESS:   33467518  HIT:   31481009  MISS:    1986509  iACCESS:   33467518  iHIT:   31481009  iMISS:    1986509  dACCESS:          0  dHIT:          0  dMISS:          0  itACCESS:          0  itHIT:          0  itMISS:          0  dtACCESS:          0  dtHIT:          0  dtMISS:          0
cpu0_ITLB RFO          ACCESS:          0  HIT:          0  MISS:          0  iACCESS:          0  iHIT:          0  iMISS:          0  dACCESS:          0  dHIT:          0  dMISS:          0  itACCESS:          0  itHIT:          0  itMISS:          0  dtACCESS:          0  dtHIT:          0  dtMISS:          0
cpu0_ITLB PREFETCH     ACCESS:          0  HIT:          0  MISS:          0  iACCESS:          0  iHIT:          0  iMISS:          0  dACCESS:          0  dHIT:          0  dMISS:          0  itACCESS:          0  itHIT:          0  itMISS:          0  dtACCESS:          0  dtHIT:          0  dtMISS:          0
cpu0_ITLB WRITE        ACCESS:          0  HIT:          0  MISS:          0  iACCESS:          0  iHIT:          0  iMISS:          0  dACCESS:          0  dHIT:          0  dMISS:          0  itACCESS:          0  itHIT:          0  itMISS:          0  dtACCESS:          0  dtHIT:          0  dtMISS:          0
cpu0_ITLB TRANSLATION  ACCESS:          0  HIT:          0  MISS:          0  iACCESS:          0  iHIT:          0  iMISS:          0  dACCESS:          0  dHIT:          0  dMISS:          0  itACCESS:          0  itHIT:          0  itMISS:          0  dtACCESS:          0  dtHIT:          0  dtMISS:          0
cpu0_ITLB PREFETCH  REQUESTED:          0  ISSUED:          0  CROSSED:          0  USEFUL:     347693  USELESS:      71161
cpu0_ITLB AVERAGE iMISS LATENCY: 10.3646 cycles
cpu0_ITLB AVERAGE dMISS LATENCY: 0 cycles
cpu0_ITLB AVERAGE itMISS LATENCY: 0 cycles
cpu0_ITLB AVERAGE dtMISS LATENCY: 0 cycles
cpu0_ITLB PAGE CROSSINGS (TLB HIT):         0 
cpu0_ITLB PAGE CROSSINGS (TLB MISS):         0 
cpu0_ITLB AVERAGE MISS LATENCY: 10.3646 cycles
cpu0_DTLB TOTAL       ACCESS:   30767042  HIT:   24603684  MISS:    6163358  iACCESS:          0  iHIT:          0  iMISS:          0  dACCESS:   30767042  dHIT:   24603684  dMISS:    6163358  itACCESS:          0  itHIT:          0  itMISS:          0  dtACCESS:          0  dtHIT:          0  dtMISS:          0
cpu0_DTLB LOAD         ACCESS:   30767042  HIT:   24603684  MISS:    6163358  iACCESS:          0  iHIT:          0  iMISS:          0  dACCESS:   30767042  dHIT:   24603684  dMISS:    6163358  itACCESS:          0  itHIT:          0  itMISS:          0  dtACCESS:          0  dtHIT:          0  dtMISS:          0
cpu0_DTLB RFO          ACCESS:          0  HIT:          0  MISS:          0  iACCESS:          0  iHIT:          0  iMISS:          0  dACCESS:          0  dHIT:          0  dMISS:          0  itACCESS:          0  itHIT:          0  itMISS:          0  dtACCESS:          0  dtHIT:          0  dtMISS:          0
cpu0_DTLB PREFETCH     ACCESS:          0  HIT:          0  MISS:          0  iACCESS:          0  iHIT:          0  iMISS:          0  dACCESS:          0  dHIT:          0  dMISS:          0  itACCESS:          0  itHIT:          0  itMISS:          0  dtACCESS:          0  dtHIT:          0  dtMISS:          0
cpu0_DTLB WRITE        ACCESS:          0  HIT:          0  MISS:          0  iACCESS:          0  iHIT:          0  iMISS:          0  dACCESS:          0  dHIT:          0  dMISS:          0  itACCESS:          0  itHIT:          0  itMISS:          0  dtACCESS:          0  dtHIT:          0  dtMISS:          0
cpu0_DTLB TRANSLATION  ACCESS:          0  HIT:          0  MISS:          0  iACCESS:          0  iHIT:          0  iMISS:          0  dACCESS:          0  dHIT:          0  dMISS:          0  itACCESS:          0  itHIT:          0  itMISS:          0  dtACCESS:          0  dtHIT:          0  dtMISS:          0
cpu0_DTLB PREFETCH  REQUESTED:          0  ISSUED:          0  CROSSED:          0  USEFUL:          0  USELESS:          0
cpu0_DTLB AVERAGE iMISS LATENCY: 0 cycles
cpu0_DTLB AVERAGE dMISS LATENCY: 14.6527 cycles
cpu0_DTLB AVERAGE itMISS LATENCY: 0 cycles
cpu0_DTLB AVERAGE dtMISS LATENCY: 0 cycles
cpu0_DTLB PAGE CROSSINGS (TLB HIT):         0 
cpu0_DTLB PAGE CROSSINGS (TLB MISS):         0 
cpu0_DTLB AVERAGE MISS LATENCY: 14.6527 cycles
cpu0_STLB TOTAL       ACCESS:    3690646  HIT:    3353379  MISS:     337267  iACCESS:     418862  iHIT:     314868  iMISS:     103994  dACCESS:    3271784  dHIT:    3038511  dMISS:     233273  itACCESS:          0  itHIT:          0  itMISS:          0  dtACCESS:          0  dtHIT:          0  dtMISS:          0
cpu0_STLB LOAD         ACCESS:    3690646  HIT:    3353379  MISS:     337267  iACCESS:     418862  iHIT:     314868  iMISS:     103994  dACCESS:    3271784  dHIT:    3038511  dMISS:     233273  itACCESS:          0  itHIT:          0  itMISS:          0  dtACCESS:          0  dtHIT:          0  dtMISS:          0
cpu0_STLB RFO          ACCESS:          0  HIT:          0  MISS:          0  iACCESS:          0  iHIT:          0  iMISS:          0  dACCESS:          0  dHIT:          0  dMISS:          0  itACCESS:          0  itHIT:          0  itMISS:          0  dtACCESS:          0  dtHIT:          0  dtMISS:          0
cpu0_STLB PREFETCH     ACCESS:          0  HIT:          0  MISS:          0  iACCESS:          0  iHIT:          0  iMISS:          0  dACCESS:          0  dHIT:          0  dMISS:          0  itACCESS:          0  itHIT:          0  itMISS:          0  dtACCESS:          0  dtHIT:          0  dtMISS:          0
cpu0_STLB WRITE        ACCESS:          0  HIT:          0  MISS:          0  iACCESS:          0  iHIT:          0  iMISS:          0  dACCESS:          0  dHIT:          0  dMISS:          0  itACCESS:          0  itHIT:          0  itMISS:          0  dtACCESS:          0  dtHIT:          0  dtMISS:          0
cpu0_STLB TRANSLATION  ACCESS:          0  HIT:          0  MISS:          0  iACCESS:          0  iHIT:          0  iMISS:          0  dACCESS:          0  dHIT:          0  dMISS:          0  itACCESS:          0  itHIT:          0  itMISS:          0  dtACCESS:          0  dtHIT:          0  dtMISS:          0
cpu0_STLB PREFETCH  REQUESTED:          0  ISSUED:          0  CROSSED:          0  USEFUL:          0  USELESS:          0
cpu0_STLB AVERAGE iMISS LATENCY: 51.1026 cycles
cpu0_STLB AVERAGE dMISS LATENCY: 189.303 cycles
cpu0_STLB AVERAGE itMISS LATENCY: 0 cycles
cpu0_STLB AVERAGE dtMISS LATENCY: 0 cycles
cpu0_STLB PAGE CROSSINGS (TLB HIT):         0 
cpu0_STLB PAGE CROSSINGS (TLB MISS):         0 
cpu0_STLB AVERAGE MISS LATENCY: 240.405 cycles
cpu0_L1D TOTAL       ACCESS:   47781144  HIT:   39635857  MISS:    8145287  iACCESS:          0  iHIT:          0  iMISS:          0  dACCESS:   47294549  dHIT:   39607593  dMISS:    7686956  itACCESS:     116236  itHIT:      12588  itMISS:     103648  dtACCESS:     370359  dtHIT:      15676  dtMISS:     354683
cpu0_L1D LOAD         ACCESS:   22694667  HIT:   18372008  MISS:    4322659  iACCESS:          0  iHIT:          0  iMISS:          0  dACCESS:   22694667  dHIT:   18372008  dMISS:    4322659  itACCESS:          0  itHIT:          0  itMISS:          0  dtACCESS:          0  dtHIT:          0  dtMISS:          0
cpu0_L1D RFO          ACCESS:          0  HIT:          0  MISS:          0  iACCESS:          0  iHIT:          0  iMISS:          0  dACCESS:          0  dHIT:          0  dMISS:          0  itACCESS:          0  itHIT:          0  itMISS:          0  dtACCESS:          0  dtHIT:          0  dtMISS:          0
cpu0_L1D PREFETCH     ACCESS:   14815417  HIT:   12032403  MISS:    2783014  iACCESS:          0  iHIT:          0  iMISS:          0  dACCESS:   14815417  dHIT:   12032403  dMISS:    2783014  itACCESS:          0  itHIT:          0  itMISS:          0  dtACCESS:          0  dtHIT:          0  dtMISS:          0
cpu0_L1D WRITE        ACCESS:    9784465  HIT:    9203182  MISS:     581283  iACCESS:          0  iHIT:          0  iMISS:          0  dACCESS:    9784465  dHIT:    9203182  dMISS:     581283  itACCESS:          0  itHIT:          0  itMISS:          0  dtACCESS:          0  dtHIT:          0  dtMISS:          0
cpu0_L1D TRANSLATION  ACCESS:     486595  HIT:      28264  MISS:     458331  iACCESS:          0  iHIT:          0  iMISS:          0  dACCESS:          0  dHIT:          0  dMISS:          0  itACCESS:     116236  itHIT:      12588  itMISS:     103648  dtACCESS:     370359  dtHIT:      15676  dtMISS:     354683
cpu0_L1D PREFETCH  REQUESTED:   22694667  ISSUED:   18937071  CROSSED:          0  USEFUL:     327599  USELESS:    1173527
cpu0_L1D AVERAGE iMISS LATENCY: 0 cycles
cpu0_L1D AVERAGE dMISS LATENCY: 34.371 cycles
cpu0_L1D AVERAGE itMISS LATENCY: 1.99372 cycles
cpu0_L1D AVERAGE dtMISS LATENCY: 7.31687 cycles
cpu0_L1D PAGE CROSSINGS (TLB HIT):         0 
cpu0_L1D PAGE CROSSINGS (TLB MISS):         0 
cpu0_L1D AVERAGE MISS LATENCY: 43.6816 cycles
cpu0_L2C TOTAL       ACCESS:    9962024  HIT:    5908608  MISS:    4053416  iACCESS:    3372711  iHIT:    1983282  iMISS:    1389429  dACCESS:    6155381  dHIT:    3865982  dMISS:    2289399  itACCESS:     103378  itHIT:      19689  itMISS:      83689  dtACCESS:     330554  dtHIT:      39655  dtMISS:     290899
cpu0_L2C LOAD         ACCESS:    3671808  HIT:    2704547  MISS:     967261  iACCESS:     748580  iHIT:     453507  iMISS:     295073  dACCESS:    2923228  dHIT:    2251040  dMISS:     672188  itACCESS:          0  itHIT:          0  itMISS:          0  dtACCESS:          0  dtHIT:          0  dtMISS:          0
cpu0_L2C RFO          ACCESS:     225740  HIT:     106697  MISS:     119043  iACCESS:          0  iHIT:          0  iMISS:          0  dACCESS:     225740  dHIT:     106697  dMISS:     119043  itACCESS:          0  itHIT:          0  itMISS:          0  dtACCESS:          0  dtHIT:          0  dtMISS:          0
cpu0_L2C PREFETCH     ACCESS:    5305080  HIT:    2730388  MISS:    2574692  iACCESS:    2624131  iHIT:    1529775  iMISS:    1094356  dACCESS:    2680949  dHIT:    1200613  dMISS:    1480336  itACCESS:          0  itHIT:          0  itMISS:          0  dtACCESS:          0  dtHIT:          0  dtMISS:          0
cpu0_L2C WRITE        ACCESS:     325464  HIT:     307632  MISS:      17832  iACCESS:          0  iHIT:          0  iMISS:          0  dACCESS:     325464  dHIT:     307632  dMISS:      17832  itACCESS:          0  itHIT:          0  itMISS:          0  dtACCESS:          0  dtHIT:          0  dtMISS:          0
cpu0_L2C TRANSLATION  ACCESS:     433932  HIT:      59344  MISS:     374588  iACCESS:          0  iHIT:          0  iMISS:          0  dACCESS:          0  dHIT:          0  dMISS:          0  itACCESS:     103378  itHIT:      19689  itMISS:      83689  dtACCESS:     330554  dtHIT:      39655  dtMISS:     290899
cpu0_L2C PREFETCH  REQUESTED:    1393791  ISSUED:    1393692  CROSSED:          0  USEFUL:     317436  USELESS:     297218
cpu0_L2C AVERAGE iMISS LATENCY: 40.1044 cycles
cpu0_L2C AVERAGE dMISS LATENCY: 77.2232 cycles
cpu0_L2C AVERAGE itMISS LATENCY: 3.75537 cycles
cpu0_L2C AVERAGE dtMISS LATENCY: 13.893 cycles
cpu0_L2C PAGE CROSSINGS (TLB HIT):         0 
cpu0_L2C PAGE CROSSINGS (TLB MISS):         0 
cpu0_L2C AVERAGE MISS LATENCY: 134.976 cycles
LLC TOTAL       ACCESS:    4030334  HIT:    1272131  MISS:    2758203  iACCESS:    1309422  iHIT:     441912  iMISS:     867510  dACCESS:    2346324  dHIT:     792797  dMISS:    1553527  itACCESS:      83689  itHIT:       7658  itMISS:      76031  dtACCESS:     290899  dtHIT:      29764  dtMISS:     261135
LLC LOAD         ACCESS:     959825  HIT:     323757  MISS:     636068  iACCESS:     293993  iHIT:     110427  iMISS:     183566  dACCESS:     665832  dHIT:     213330  dMISS:     452502  itACCESS:          0  itHIT:          0  itMISS:          0  dtACCESS:          0  dtHIT:          0  dtMISS:          0
LLC RFO          ACCESS:     119041  HIT:      37690  MISS:      81351  iACCESS:          0  iHIT:          0  iMISS:          0  dACCESS:     119041  dHIT:      37690  dMISS:      81351  itACCESS:          0  itHIT:          0  itMISS:          0  dtACCESS:          0  dtHIT:          0  dtMISS:          0
LLC PREFETCH     ACCESS:    2387084  HIT:     692078  MISS:    1695006  iACCESS:    1015429  iHIT:     331485  iMISS:     683944  dACCESS:    1371655  dHIT:     360593  dMISS:    1011062  itACCESS:          0  itHIT:          0  itMISS:          0  dtACCESS:          0  dtHIT:          0  dtMISS:          0
LLC WRITE        ACCESS:     189796  HIT:     181184  MISS:       8612  iACCESS:          0  iHIT:          0  iMISS:          0  dACCESS:     189796  dHIT:     181184  dMISS:       8612  itACCESS:          0  itHIT:          0  itMISS:          0  dtACCESS:          0  dtHIT:          0  dtMISS:          0
LLC TRANSLATION  ACCESS:     374588  HIT:      37422  MISS:     337166  iACCESS:          0  iHIT:          0  iMISS:          0  dACCESS:          0  dHIT:          0  dMISS:          0  itACCESS:      83689  itHIT:       7658  itMISS:      76031  dtACCESS:     290899  dtHIT:      29764  dtMISS:     261135
LLC PREFETCH  REQUESTED:          0  ISSUED:          0  CROSSED:          0  USEFUL:          0  USELESS:          0
LLC AVERAGE iMISS LATENCY: 49.5949 cycles
LLC AVERAGE dMISS LATENCY: 98.9559 cycles
LLC AVERAGE itMISS LATENCY: 4.91738 cycles
LLC AVERAGE dtMISS LATENCY: 18.3315 cycles
LLC PAGE CROSSINGS (TLB HIT):         0 
LLC PAGE CROSSINGS (TLB MISS):         0 
LLC AVERAGE MISS LATENCY: 171.8 cycles

PageTableWalker TOTAL       ACCESS:     197249  
PageTableWalker AVERAGE LATENCY: 6.37472 cycles
PageTableWalker TOTAL LATENCY: 1257406 cycles

DRAM Statistics
Channel 0
 RQ ROW_BUFFER_HIT:     590202
  ROW_BUFFER_MISS:    2142575
 AVG DBUS CONGESTED CYCLE:    3.65047
 WQ ROW_BUFFER_HIT:      59009
  ROW_BUFFER_MISS:      52212  FULL:          0

