last_page:0x200000000000000
VMEM_RES_CAP:0x100000
PAGE_SIZE:4096
LOG2_PAGE_SIZE:12
LOG2_PAGE_TABLE_SIZE:9
page_table_levels:5
WARNING: physical memory size is smaller than virtual memory size
FDiP enabled with aggresivity 16

*** ChampSim Multicore Out-of-Order Simulator ***

Warmup Instructions: 50000000
Simulation Instructions: 100000000
Number of CPUs: 1
Small page size: 4096
Large page size: 2097152

CPU 0 Bimodal branch predictor
Basic BTB sets: 1024 ways: 8 indirect buffer size: 4096 RAS size: 64
Instruction page size distrubution: 0
Loading instruction page size distribution from /home/bsc/bsc018186/scratch/itp_asplos25_AE/dump/smt_srv207_ap_srv526_ap_1024i.pdst
Data page size distrubution: 0
Loading data page size distribution from /home/bsc/bsc018186/scratch/itp_asplos25_AE/dump/smt_srv207_ap_srv526_ap_1024i.pdst
cpu0_L2C IP-based stride prefetcher
cpu0_L1D next line prefetcher
CHiRPing...
cpu0_L1I next line prefetcher
Off-chip DRAM Size: 4 GiB Channels: 1 Width: 64-bit Data Rate: 3200 MT/s
Heartbeat CPU 0 instructions: 10000003 cycles: 2500766 heartbeat IPC: 3.99878 cumulative IPC: 3.99878 (Simulation time: 0 hr 0 min 42 sec) 
Heartbeat CPU 0 instructions: 20000000 cycles: 5001251 heartbeat IPC: 3.99923 cumulative IPC: 3.999 (Simulation time: 0 hr 1 min 27 sec) 
Heartbeat CPU 0 instructions: 30000001 cycles: 7591286 heartbeat IPC: 3.86096 cumulative IPC: 3.9519 (Simulation time: 0 hr 2 min 13 sec) 
Heartbeat CPU 0 instructions: 40000002 cycles: 10145988 heartbeat IPC: 3.91436 cumulative IPC: 3.94245 (Simulation time: 0 hr 3 min 0 sec) 
Heartbeat CPU 0 instructions: 50000003 cycles: 12674092 heartbeat IPC: 3.95554 cumulative IPC: 3.94506 (Simulation time: 0 hr 3 min 46 sec) 
Warmup finished CPU 0 instructions: 50000003 cycles: 12674093 cumulative IPC: 3.94506 (Simulation time: 0 hr 3 min 46 sec) 

Warmup complete CPU 0 instructions: 50000003 cycles: 12674093 (Simulation time: 0 hr 3 min 46 sec) 

Heartbeat CPU 0 instructions: 60000003 cycles: 43169306 heartbeat IPC: 0.327921 cumulative IPC: 0.327921 (Simulation time: 0 hr 5 min 16 sec) 
Heartbeat CPU 0 instructions: 70000004 cycles: 74163573 heartbeat IPC: 0.322641 cumulative IPC: 0.325259 (Simulation time: 0 hr 6 min 47 sec) 
Heartbeat CPU 0 instructions: 80000002 cycles: 105985240 heartbeat IPC: 0.314252 cumulative IPC: 0.321505 (Simulation time: 0 hr 8 min 19 sec) 
Heartbeat CPU 0 instructions: 90000003 cycles: 136384348 heartbeat IPC: 0.328958 cumulative IPC: 0.323337 (Simulation time: 0 hr 9 min 48 sec) 
Heartbeat CPU 0 instructions: 100000000 cycles: 166945479 heartbeat IPC: 0.327213 cumulative IPC: 0.324105 (Simulation time: 0 hr 11 min 18 sec) 
Heartbeat CPU 0 instructions: 110000000 cycles: 197867753 heartbeat IPC: 0.323392 cumulative IPC: 0.323986 (Simulation time: 0 hr 12 min 48 sec) 
Heartbeat CPU 0 instructions: 120000000 cycles: 227122094 heartbeat IPC: 0.34183 cumulative IPC: 0.32642 (Simulation time: 0 hr 14 min 15 sec) 
Heartbeat CPU 0 instructions: 130000002 cycles: 257089022 heartbeat IPC: 0.333702 cumulative IPC: 0.327313 (Simulation time: 0 hr 15 min 44 sec) 
Heartbeat CPU 0 instructions: 140000002 cycles: 289337040 heartbeat IPC: 0.310097 cumulative IPC: 0.325306 (Simulation time: 0 hr 17 min 20 sec) 
Heartbeat CPU 0 instructions: 150000000 cycles: 320781774 heartbeat IPC: 0.318019 cumulative IPC: 0.324562 (Simulation time: 0 hr 19 min 1 sec) 
Simulation finished CPU 0 instructions: 100000002 cycles: 308107683 cumulative IPC: 0.324562 (Simulation time: 0 hr 19 min 1 sec) 

Simulation complete CPU 0 instructions: 100000002 cycles: 308107683 (Simulation time: 0 hr 19 min 1 sec) 


ChampSim completed all CPUs

Saving instructions large page distribution to /home/bsc/bsc018186/scratch/itp_asplos25_AE/dump/smt_srv207_ap_srv526_ap_1024i.pdst...
Saving data large page distribution to /home/bsc/bsc018186/scratch/itp_asplos25_AE/dump/smt_srv207_ap_srv526_ap_1024i.pdst...
=== Simulation ===
CPU 0 runs /gpfs/projects/bsc18/MN4/bsc18/romol/ChampSim/traces/qualcomm_srv/smt_srv207_ap_srv526_ap_1024i.champsimtrace.xz

Region of Interest Statistics

CPU 0 cumulative IPC: 0.324562 instructions: 100000002 cycles: 308107683
CPU 0 Branch Prediction Accuracy: 75.1657% MPKI: 44.6877 Average ROB Occupancy at Mispredict: 11.1241
Branch type MPKI
BRANCH_DIRECT_JUMP: 1.463
BRANCH_INDIRECT: 23.5899
BRANCH_CONDITIONAL: 12.4119
BRANCH_DIRECT_CALL: 2.63153
BRANCH_INDIRECT_CALL: 1.0038
BRANCH_RETURN: 3.58767

Instructions large pages: 0
Instructions small pages: 15154
Large page distribution for instructions: 0%

Data large pages: 0
Data small pages: 13659
Large page distribution for data: 0%

cpu0_L1I TOTAL       ACCESS:   38940287  HIT:   30152262  MISS:    8788025  iACCESS:   38940287  iHIT:   30152262  iMISS:    8788025  dACCESS:          0  dHIT:          0  dMISS:          0  itACCESS:          0  itHIT:          0  itMISS:          0  dtACCESS:          0  dtHIT:          0  dtMISS:          0
cpu0_L1I LOAD         ACCESS:   11532519  HIT:    9118286  MISS:    2414233  iACCESS:   11532519  iHIT:    9118286  iMISS:    2414233  dACCESS:          0  dHIT:          0  dMISS:          0  itACCESS:          0  itHIT:          0  itMISS:          0  dtACCESS:          0  dtHIT:          0  dtMISS:          0
cpu0_L1I RFO          ACCESS:          0  HIT:          0  MISS:          0  iACCESS:          0  iHIT:          0  iMISS:          0  dACCESS:          0  dHIT:          0  dMISS:          0  itACCESS:          0  itHIT:          0  itMISS:          0  dtACCESS:          0  dtHIT:          0  dtMISS:          0
cpu0_L1I PREFETCH     ACCESS:   27407768  HIT:   21033976  MISS:    6373792  iACCESS:   27407768  iHIT:   21033976  iMISS:    6373792  dACCESS:          0  dHIT:          0  dMISS:          0  itACCESS:          0  itHIT:          0  itMISS:          0  dtACCESS:          0  dtHIT:          0  dtMISS:          0
cpu0_L1I WRITE        ACCESS:          0  HIT:          0  MISS:          0  iACCESS:          0  iHIT:          0  iMISS:          0  dACCESS:          0  dHIT:          0  dMISS:          0  itACCESS:          0  itHIT:          0  itMISS:          0  dtACCESS:          0  dtHIT:          0  dtMISS:          0
cpu0_L1I TRANSLATION  ACCESS:          0  HIT:          0  MISS:          0  iACCESS:          0  iHIT:          0  iMISS:          0  dACCESS:          0  dHIT:          0  dMISS:          0  itACCESS:          0  itHIT:          0  itMISS:          0  dtACCESS:          0  dtHIT:          0  dtMISS:          0
cpu0_L1I PREFETCH  REQUESTED:   30152357  ISSUED:   30152336  CROSSED:          0  USEFUL:    2201082  USELESS:     798987
cpu0_L1I AVERAGE iMISS LATENCY: 24.4342 cycles
cpu0_L1I AVERAGE dMISS LATENCY: 0 cycles
cpu0_L1I AVERAGE itMISS LATENCY: 0 cycles
cpu0_L1I AVERAGE dtMISS LATENCY: 0 cycles
cpu0_L1I PAGE CROSSINGS (TLB HIT):         0 
cpu0_L1I PAGE CROSSINGS (TLB MISS):         0 
cpu0_L1I AVERAGE MISS LATENCY: 24.4342 cycles
cpu0_ITLB TOTAL       ACCESS:   33038998  HIT:   30726135  MISS:    2312863  iACCESS:   33038998  iHIT:   30726135  iMISS:    2312863  dACCESS:          0  dHIT:          0  dMISS:          0  itACCESS:          0  itHIT:          0  itMISS:          0  dtACCESS:          0  dtHIT:          0  dtMISS:          0
cpu0_ITLB LOAD         ACCESS:   33038998  HIT:   30726135  MISS:    2312863  iACCESS:   33038998  iHIT:   30726135  iMISS:    2312863  dACCESS:          0  dHIT:          0  dMISS:          0  itACCESS:          0  itHIT:          0  itMISS:          0  dtACCESS:          0  dtHIT:          0  dtMISS:          0
cpu0_ITLB RFO          ACCESS:          0  HIT:          0  MISS:          0  iACCESS:          0  iHIT:          0  iMISS:          0  dACCESS:          0  dHIT:          0  dMISS:          0  itACCESS:          0  itHIT:          0  itMISS:          0  dtACCESS:          0  dtHIT:          0  dtMISS:          0
cpu0_ITLB PREFETCH     ACCESS:          0  HIT:          0  MISS:          0  iACCESS:          0  iHIT:          0  iMISS:          0  dACCESS:          0  dHIT:          0  dMISS:          0  itACCESS:          0  itHIT:          0  itMISS:          0  dtACCESS:          0  dtHIT:          0  dtMISS:          0
cpu0_ITLB WRITE        ACCESS:          0  HIT:          0  MISS:          0  iACCESS:          0  iHIT:          0  iMISS:          0  dACCESS:          0  dHIT:          0  dMISS:          0  itACCESS:          0  itHIT:          0  itMISS:          0  dtACCESS:          0  dtHIT:          0  dtMISS:          0
cpu0_ITLB TRANSLATION  ACCESS:          0  HIT:          0  MISS:          0  iACCESS:          0  iHIT:          0  iMISS:          0  dACCESS:          0  dHIT:          0  dMISS:          0  itACCESS:          0  itHIT:          0  itMISS:          0  dtACCESS:          0  dtHIT:          0  dtMISS:          0
cpu0_ITLB PREFETCH  REQUESTED:          0  ISSUED:          0  CROSSED:          0  USEFUL:     404572  USELESS:      87153
cpu0_ITLB AVERAGE iMISS LATENCY: 10.948 cycles
cpu0_ITLB AVERAGE dMISS LATENCY: 0 cycles
cpu0_ITLB AVERAGE itMISS LATENCY: 0 cycles
cpu0_ITLB AVERAGE dtMISS LATENCY: 0 cycles
cpu0_ITLB PAGE CROSSINGS (TLB HIT):         0 
cpu0_ITLB PAGE CROSSINGS (TLB MISS):         0 
cpu0_ITLB AVERAGE MISS LATENCY: 10.948 cycles
cpu0_DTLB TOTAL       ACCESS:   29241993  HIT:   25678598  MISS:    3563395  iACCESS:          0  iHIT:          0  iMISS:          0  dACCESS:   29241993  dHIT:   25678598  dMISS:    3563395  itACCESS:          0  itHIT:          0  itMISS:          0  dtACCESS:          0  dtHIT:          0  dtMISS:          0
cpu0_DTLB LOAD         ACCESS:   29241993  HIT:   25678598  MISS:    3563395  iACCESS:          0  iHIT:          0  iMISS:          0  dACCESS:   29241993  dHIT:   25678598  dMISS:    3563395  itACCESS:          0  itHIT:          0  itMISS:          0  dtACCESS:          0  dtHIT:          0  dtMISS:          0
cpu0_DTLB RFO          ACCESS:          0  HIT:          0  MISS:          0  iACCESS:          0  iHIT:          0  iMISS:          0  dACCESS:          0  dHIT:          0  dMISS:          0  itACCESS:          0  itHIT:          0  itMISS:          0  dtACCESS:          0  dtHIT:          0  dtMISS:          0
cpu0_DTLB PREFETCH     ACCESS:          0  HIT:          0  MISS:          0  iACCESS:          0  iHIT:          0  iMISS:          0  dACCESS:          0  dHIT:          0  dMISS:          0  itACCESS:          0  itHIT:          0  itMISS:          0  dtACCESS:          0  dtHIT:          0  dtMISS:          0
cpu0_DTLB WRITE        ACCESS:          0  HIT:          0  MISS:          0  iACCESS:          0  iHIT:          0  iMISS:          0  dACCESS:          0  dHIT:          0  dMISS:          0  itACCESS:          0  itHIT:          0  itMISS:          0  dtACCESS:          0  dtHIT:          0  dtMISS:          0
cpu0_DTLB TRANSLATION  ACCESS:          0  HIT:          0  MISS:          0  iACCESS:          0  iHIT:          0  iMISS:          0  dACCESS:          0  dHIT:          0  dMISS:          0  itACCESS:          0  itHIT:          0  itMISS:          0  dtACCESS:          0  dtHIT:          0  dtMISS:          0
cpu0_DTLB PREFETCH  REQUESTED:          0  ISSUED:          0  CROSSED:          0  USEFUL:          0  USELESS:          0
cpu0_DTLB AVERAGE iMISS LATENCY: 0 cycles
cpu0_DTLB AVERAGE dMISS LATENCY: 26.1575 cycles
cpu0_DTLB AVERAGE itMISS LATENCY: 0 cycles
cpu0_DTLB AVERAGE dtMISS LATENCY: 0 cycles
cpu0_DTLB PAGE CROSSINGS (TLB HIT):         0 
cpu0_DTLB PAGE CROSSINGS (TLB MISS):         0 
cpu0_DTLB AVERAGE MISS LATENCY: 26.1575 cycles
cpu0_STLB TOTAL       ACCESS:    2574514  HIT:    2182212  MISS:     392302  iACCESS:     491728  iHIT:     370547  iMISS:     121181  dACCESS:    2082786  dHIT:    1811665  dMISS:     271121  itACCESS:          0  itHIT:          0  itMISS:          0  dtACCESS:          0  dtHIT:          0  dtMISS:          0
cpu0_STLB LOAD         ACCESS:    2574514  HIT:    2182212  MISS:     392302  iACCESS:     491728  iHIT:     370547  iMISS:     121181  dACCESS:    2082786  dHIT:    1811665  dMISS:     271121  itACCESS:          0  itHIT:          0  itMISS:          0  dtACCESS:          0  dtHIT:          0  dtMISS:          0
cpu0_STLB RFO          ACCESS:          0  HIT:          0  MISS:          0  iACCESS:          0  iHIT:          0  iMISS:          0  dACCESS:          0  dHIT:          0  dMISS:          0  itACCESS:          0  itHIT:          0  itMISS:          0  dtACCESS:          0  dtHIT:          0  dtMISS:          0
cpu0_STLB PREFETCH     ACCESS:          0  HIT:          0  MISS:          0  iACCESS:          0  iHIT:          0  iMISS:          0  dACCESS:          0  dHIT:          0  dMISS:          0  itACCESS:          0  itHIT:          0  itMISS:          0  dtACCESS:          0  dtHIT:          0  dtMISS:          0
cpu0_STLB WRITE        ACCESS:          0  HIT:          0  MISS:          0  iACCESS:          0  iHIT:          0  iMISS:          0  dACCESS:          0  dHIT:          0  dMISS:          0  itACCESS:          0  itHIT:          0  itMISS:          0  dtACCESS:          0  dtHIT:          0  dtMISS:          0
cpu0_STLB TRANSLATION  ACCESS:          0  HIT:          0  MISS:          0  iACCESS:          0  iHIT:          0  iMISS:          0  dACCESS:          0  dHIT:          0  dMISS:          0  itACCESS:          0  itHIT:          0  itMISS:          0  dtACCESS:          0  dtHIT:          0  dtMISS:          0
cpu0_STLB PREFETCH  REQUESTED:          0  ISSUED:          0  CROSSED:          0  USEFUL:          0  USELESS:          0
cpu0_STLB AVERAGE iMISS LATENCY: 54.5154 cycles
cpu0_STLB AVERAGE dMISS LATENCY: 194.845 cycles
cpu0_STLB AVERAGE itMISS LATENCY: 0 cycles
cpu0_STLB AVERAGE dtMISS LATENCY: 0 cycles
cpu0_STLB PAGE CROSSINGS (TLB HIT):         0 
cpu0_STLB PAGE CROSSINGS (TLB MISS):         0 
cpu0_STLB AVERAGE MISS LATENCY: 249.36 cycles
cpu0_L1D TOTAL       ACCESS:   45366517  HIT:   39685252  MISS:    5681265  iACCESS:          0  iHIT:          0  iMISS:          0  dACCESS:   44788798  dHIT:   39649928  dMISS:    5138870  itACCESS:     135952  itHIT:      13868  itMISS:     122084  dtACCESS:     441767  dtHIT:      21456  dtMISS:     420311
cpu0_L1D LOAD         ACCESS:   20474798  HIT:   18172609  MISS:    2302189  iACCESS:          0  iHIT:          0  iMISS:          0  dACCESS:   20474798  dHIT:   18172609  dMISS:    2302189  itACCESS:          0  itHIT:          0  itMISS:          0  dtACCESS:          0  dtHIT:          0  dtMISS:          0
cpu0_L1D RFO          ACCESS:          0  HIT:          0  MISS:          0  iACCESS:          0  iHIT:          0  iMISS:          0  dACCESS:          0  dHIT:          0  dMISS:          0  itACCESS:          0  itHIT:          0  itMISS:          0  dtACCESS:          0  dtHIT:          0  dtMISS:          0
cpu0_L1D PREFETCH     ACCESS:   14117453  HIT:   11882532  MISS:    2234921  iACCESS:          0  iHIT:          0  iMISS:          0  dACCESS:   14117453  dHIT:   11882532  dMISS:    2234921  itACCESS:          0  itHIT:          0  itMISS:          0  dtACCESS:          0  dtHIT:          0  dtMISS:          0
cpu0_L1D WRITE        ACCESS:   10196547  HIT:    9594787  MISS:     601760  iACCESS:          0  iHIT:          0  iMISS:          0  dACCESS:   10196547  dHIT:    9594787  dMISS:     601760  itACCESS:          0  itHIT:          0  itMISS:          0  dtACCESS:          0  dtHIT:          0  dtMISS:          0
cpu0_L1D TRANSLATION  ACCESS:     577719  HIT:      35324  MISS:     542395  iACCESS:          0  iHIT:          0  iMISS:          0  dACCESS:          0  dHIT:          0  dMISS:          0  itACCESS:     135952  itHIT:      13868  itMISS:     122084  dtACCESS:     441767  dtHIT:      21456  dtMISS:     420311
cpu0_L1D PREFETCH  REQUESTED:   20474798  ISSUED:   18814712  CROSSED:          0  USEFUL:     372417  USELESS:     964774
cpu0_L1D AVERAGE iMISS LATENCY: 0 cycles
cpu0_L1D AVERAGE dMISS LATENCY: 52.0525 cycles
cpu0_L1D AVERAGE itMISS LATENCY: 3.56544 cycles
cpu0_L1D AVERAGE dtMISS LATENCY: 12.4562 cycles
cpu0_L1D PAGE CROSSINGS (TLB HIT):         0 
cpu0_L1D PAGE CROSSINGS (TLB MISS):         0 
cpu0_L1D AVERAGE MISS LATENCY: 68.0741 cycles
cpu0_L2C TOTAL       ACCESS:    8735293  HIT:    4183811  MISS:    4551482  iACCESS:    3834924  iHIT:    2285123  iMISS:    1549801  dACCESS:    4393390  dHIT:    1840366  dMISS:    2553024  itACCESS:     121740  itHIT:      19533  itMISS:     102207  dtACCESS:     385239  dtHIT:      38789  dtMISS:     346450
cpu0_L2C LOAD         ACCESS:    2122663  HIT:    1017752  MISS:    1104911  iACCESS:     868167  iHIT:     539765  iMISS:     328402  dACCESS:    1254496  dHIT:     477987  dMISS:     776509  itACCESS:          0  itHIT:          0  itMISS:          0  dtACCESS:          0  dtHIT:          0  dtMISS:          0
cpu0_L2C RFO          ACCESS:     229890  HIT:      91177  MISS:     138713  iACCESS:          0  iHIT:          0  iMISS:          0  dACCESS:     229890  dHIT:      91177  dMISS:     138713  itACCESS:          0  itHIT:          0  itMISS:          0  dtACCESS:          0  dtHIT:          0  dtMISS:          0
cpu0_L2C PREFETCH     ACCESS:    5523822  HIT:    2668250  MISS:    2855572  iACCESS:    2966757  iHIT:    1745358  iMISS:    1221399  dACCESS:    2557065  dHIT:     922892  dMISS:    1634173  itACCESS:          0  itHIT:          0  itMISS:          0  dtACCESS:          0  dtHIT:          0  dtMISS:          0
cpu0_L2C WRITE        ACCESS:     351939  HIT:     348310  MISS:       3629  iACCESS:          0  iHIT:          0  iMISS:          0  dACCESS:     351939  dHIT:     348310  dMISS:       3629  itACCESS:          0  itHIT:          0  itMISS:          0  dtACCESS:          0  dtHIT:          0  dtMISS:          0
cpu0_L2C TRANSLATION  ACCESS:     506979  HIT:      58322  MISS:     448657  iACCESS:          0  iHIT:          0  iMISS:          0  dACCESS:          0  dHIT:          0  dMISS:          0  itACCESS:     121740  itHIT:      19533  itMISS:     102207  dtACCESS:     385239  dtHIT:      38789  dtMISS:     346450
cpu0_L2C PREFETCH  REQUESTED:    1449521  ISSUED:    1449516  CROSSED:          0  USEFUL:     338872  USELESS:     321862
cpu0_L2C AVERAGE iMISS LATENCY: 40.0939 cycles
cpu0_L2C AVERAGE dMISS LATENCY: 79.3326 cycles
cpu0_L2C AVERAGE itMISS LATENCY: 4.18649 cycles
cpu0_L2C AVERAGE dtMISS LATENCY: 14.7052 cycles
cpu0_L2C PAGE CROSSINGS (TLB HIT):         0 
cpu0_L2C PAGE CROSSINGS (TLB MISS):         0 
cpu0_L2C AVERAGE MISS LATENCY: 138.319 cycles
LLC TOTAL       ACCESS:    4561423  HIT:    1416006  MISS:    3145417  iACCESS:    1466102  iHIT:     497991  iMISS:     968111  dACCESS:    2646664  dHIT:     875810  dMISS:    1770854  itACCESS:     102207  itHIT:       7098  itMISS:      95109  dtACCESS:     346450  dtHIT:      35107  dtMISS:     311343
LLC LOAD         ACCESS:    1098403  HIT:     358997  MISS:     739406  iACCESS:     327100  iHIT:     119319  iMISS:     207781  dACCESS:     771303  dHIT:     239678  dMISS:     531625  itACCESS:          0  itHIT:          0  itMISS:          0  dtACCESS:          0  dtHIT:          0  dtMISS:          0
LLC RFO          ACCESS:     138703  HIT:      41145  MISS:      97558  iACCESS:          0  iHIT:          0  iMISS:          0  dACCESS:     138703  dHIT:      41145  dMISS:      97558  itACCESS:          0  itHIT:          0  itMISS:          0  dtACCESS:          0  dtHIT:          0  dtMISS:          0
LLC PREFETCH     ACCESS:    2663621  HIT:     772271  MISS:    1891350  iACCESS:    1139002  iHIT:     378672  iMISS:     760330  dACCESS:    1524619  dHIT:     393599  dMISS:    1131020  itACCESS:          0  itHIT:          0  itMISS:          0  dtACCESS:          0  dtHIT:          0  dtMISS:          0
LLC WRITE        ACCESS:     212039  HIT:     201388  MISS:      10651  iACCESS:          0  iHIT:          0  iMISS:          0  dACCESS:     212039  dHIT:     201388  dMISS:      10651  itACCESS:          0  itHIT:          0  itMISS:          0  dtACCESS:          0  dtHIT:          0  dtMISS:          0
LLC TRANSLATION  ACCESS:     448657  HIT:      42205  MISS:     406452  iACCESS:          0  iHIT:          0  iMISS:          0  dACCESS:          0  dHIT:          0  dMISS:          0  itACCESS:     102207  itHIT:       7098  itMISS:      95109  dtACCESS:     346450  dtHIT:      35107  dtMISS:     311343
LLC PREFETCH  REQUESTED:          0  ISSUED:          0  CROSSED:          0  USEFUL:          0  USELESS:          0
LLC AVERAGE iMISS LATENCY: 48.8398 cycles
LLC AVERAGE dMISS LATENCY: 100.204 cycles
LLC AVERAGE itMISS LATENCY: 5.4134 cycles
LLC AVERAGE dtMISS LATENCY: 19.1009 cycles
LLC PAGE CROSSINGS (TLB HIT):         0 
LLC PAGE CROSSINGS (TLB MISS):         0 
LLC AVERAGE MISS LATENCY: 173.558 cycles

PageTableWalker TOTAL       ACCESS:     141319  
PageTableWalker AVERAGE LATENCY: 6.50483 cycles
PageTableWalker TOTAL LATENCY: 919255 cycles

DRAM Statistics
Channel 0
 RQ ROW_BUFFER_HIT:     645700
  ROW_BUFFER_MISS:    2478530
 AVG DBUS CONGESTED CYCLE:    3.64754
 WQ ROW_BUFFER_HIT:      66667
  ROW_BUFFER_MISS:      56249  FULL:          0

