last_page:0x200000000000000
VMEM_RES_CAP:0x100000
PAGE_SIZE:4096
LOG2_PAGE_SIZE:12
LOG2_PAGE_TABLE_SIZE:9
page_table_levels:5
WARNING: physical memory size is smaller than virtual memory size
FDiP enabled with aggresivity 16

*** ChampSim Multicore Out-of-Order Simulator ***

Warmup Instructions: 50000000
Simulation Instructions: 100000000
Number of CPUs: 1
Small page size: 4096
Large page size: 2097152

CPU 0 Bimodal branch predictor
Basic BTB sets: 1024 ways: 8 indirect buffer size: 4096 RAS size: 64
Instruction page size distrubution: 0
Loading instruction page size distribution from /home/bsc/bsc018186/scratch/itp_asplos25_AE/dump/smt_srv85_ap_srv259_ap_1024i.pdst
Data page size distrubution: 0
Loading data page size distribution from /home/bsc/bsc018186/scratch/itp_asplos25_AE/dump/smt_srv85_ap_srv259_ap_1024i.pdst
cpu0_L2C IP-based stride prefetcher
cpu0_L2C is using PTP replacement policy:
	TLB_STRESS_THRESHOLD:0
	PTE_EVICTION_RATIO:0
cpu0_L1D next line prefetcher
cpu0_L1I next line prefetcher
Off-chip DRAM Size: 4 GiB Channels: 1 Width: 64-bit Data Rate: 3200 MT/s
Heartbeat CPU 0 instructions: 10000001 cycles: 2500455 heartbeat IPC: 3.99928 cumulative IPC: 3.99928 (Simulation time: 0 hr 0 min 45 sec) 
Heartbeat CPU 0 instructions: 20000002 cycles: 5000917 heartbeat IPC: 3.99927 cumulative IPC: 3.99927 (Simulation time: 0 hr 1 min 31 sec) 
Heartbeat CPU 0 instructions: 30000003 cycles: 7501203 heartbeat IPC: 3.99955 cumulative IPC: 3.99936 (Simulation time: 0 hr 2 min 18 sec) 
Heartbeat CPU 0 instructions: 40000000 cycles: 10001531 heartbeat IPC: 3.99948 cumulative IPC: 3.99939 (Simulation time: 0 hr 3 min 3 sec) 
Heartbeat CPU 0 instructions: 50000002 cycles: 12501752 heartbeat IPC: 3.99965 cumulative IPC: 3.99944 (Simulation time: 0 hr 3 min 51 sec) 
Warmup finished CPU 0 instructions: 50000002 cycles: 12501753 cumulative IPC: 3.99944 (Simulation time: 0 hr 3 min 51 sec) 

Warmup complete CPU 0 instructions: 50000002 cycles: 12501753 (Simulation time: 0 hr 3 min 51 sec) 

Heartbeat CPU 0 instructions: 60000000 cycles: 40615698 heartbeat IPC: 0.355696 cumulative IPC: 0.355696 (Simulation time: 0 hr 5 min 27 sec) 
Heartbeat CPU 0 instructions: 70000002 cycles: 70487089 heartbeat IPC: 0.334769 cumulative IPC: 0.344915 (Simulation time: 0 hr 7 min 5 sec) 
Heartbeat CPU 0 instructions: 80000002 cycles: 99733861 heartbeat IPC: 0.341919 cumulative IPC: 0.343911 (Simulation time: 0 hr 8 min 42 sec) 
Heartbeat CPU 0 instructions: 90000002 cycles: 128214713 heartbeat IPC: 0.351114 cumulative IPC: 0.345683 (Simulation time: 0 hr 10 min 19 sec) 
Heartbeat CPU 0 instructions: 100000000 cycles: 157796233 heartbeat IPC: 0.338049 cumulative IPC: 0.344129 (Simulation time: 0 hr 11 min 48 sec) 
Heartbeat CPU 0 instructions: 110000002 cycles: 187230501 heartbeat IPC: 0.339741 cumulative IPC: 0.34339 (Simulation time: 0 hr 13 min 14 sec) 
Heartbeat CPU 0 instructions: 120000004 cycles: 215806868 heartbeat IPC: 0.34994 cumulative IPC: 0.344311 (Simulation time: 0 hr 14 min 39 sec) 
Heartbeat CPU 0 instructions: 130000002 cycles: 246377190 heartbeat IPC: 0.327115 cumulative IPC: 0.342063 (Simulation time: 0 hr 16 min 6 sec) 
Heartbeat CPU 0 instructions: 140000004 cycles: 274283872 heartbeat IPC: 0.358338 cumulative IPC: 0.343798 (Simulation time: 0 hr 17 min 30 sec) 
Heartbeat CPU 0 instructions: 150000000 cycles: 304457905 heartbeat IPC: 0.331411 cumulative IPC: 0.342518 (Simulation time: 0 hr 18 min 56 sec) 
Simulation finished CPU 0 instructions: 100000003 cycles: 291956154 cumulative IPC: 0.342518 (Simulation time: 0 hr 18 min 56 sec) 

Simulation complete CPU 0 instructions: 100000003 cycles: 291956154 (Simulation time: 0 hr 18 min 56 sec) 


ChampSim completed all CPUs

Saving instructions large page distribution to /home/bsc/bsc018186/scratch/itp_asplos25_AE/dump/smt_srv85_ap_srv259_ap_1024i.pdst...
Saving data large page distribution to /home/bsc/bsc018186/scratch/itp_asplos25_AE/dump/smt_srv85_ap_srv259_ap_1024i.pdst...
=== Simulation ===
CPU 0 runs /gpfs/projects/bsc18/MN4/bsc18/romol/ChampSim/traces/qualcomm_srv/smt_srv85_ap_srv259_ap_1024i.champsimtrace.xz

Region of Interest Statistics

CPU 0 cumulative IPC: 0.342518 instructions: 100000003 cycles: 291956154
CPU 0 Branch Prediction Accuracy: 76.3208% MPKI: 42.6441 Average ROB Occupancy at Mispredict: 11.4238
Branch type MPKI
BRANCH_DIRECT_JUMP: 1.33389
BRANCH_INDIRECT: 22.7744
BRANCH_CONDITIONAL: 11.6746
BRANCH_DIRECT_CALL: 2.44995
BRANCH_INDIRECT_CALL: 0.99181
BRANCH_RETURN: 3.41944

Instructions large pages: 0
Instructions small pages: 9620
Large page distribution for instructions: 0%

Data large pages: 0
Data small pages: 8501
Large page distribution for data: 0%

cpu0_L1I TOTAL       ACCESS:   38890852  HIT:   30118413  MISS:    8772439  iACCESS:   38890852  iHIT:   30118413  iMISS:    8772439  dACCESS:          0  dHIT:          0  dMISS:          0  itACCESS:          0  itHIT:          0  itMISS:          0  dtACCESS:          0  dtHIT:          0  dtMISS:          0
cpu0_L1I LOAD         ACCESS:   11688842  HIT:    9274675  MISS:    2414167  iACCESS:   11688842  iHIT:    9274675  iMISS:    2414167  dACCESS:          0  dHIT:          0  dMISS:          0  itACCESS:          0  itHIT:          0  itMISS:          0  dtACCESS:          0  dtHIT:          0  dtMISS:          0
cpu0_L1I RFO          ACCESS:          0  HIT:          0  MISS:          0  iACCESS:          0  iHIT:          0  iMISS:          0  dACCESS:          0  dHIT:          0  dMISS:          0  itACCESS:          0  itHIT:          0  itMISS:          0  dtACCESS:          0  dtHIT:          0  dtMISS:          0
cpu0_L1I PREFETCH     ACCESS:   27202010  HIT:   20843738  MISS:    6358272  iACCESS:   27202010  iHIT:   20843738  iMISS:    6358272  dACCESS:          0  dHIT:          0  dMISS:          0  itACCESS:          0  itHIT:          0  itMISS:          0  dtACCESS:          0  dtHIT:          0  dtMISS:          0
cpu0_L1I WRITE        ACCESS:          0  HIT:          0  MISS:          0  iACCESS:          0  iHIT:          0  iMISS:          0  dACCESS:          0  dHIT:          0  dMISS:          0  itACCESS:          0  itHIT:          0  itMISS:          0  dtACCESS:          0  dtHIT:          0  dtMISS:          0
cpu0_L1I TRANSLATION  ACCESS:          0  HIT:          0  MISS:          0  iACCESS:          0  iHIT:          0  iMISS:          0  dACCESS:          0  dHIT:          0  dMISS:          0  itACCESS:          0  itHIT:          0  itMISS:          0  dtACCESS:          0  dtHIT:          0  dtMISS:          0
cpu0_L1I PREFETCH  REQUESTED:   30074387  ISSUED:   30074380  CROSSED:          0  USEFUL:    2202687  USELESS:     766592
cpu0_L1I AVERAGE iMISS LATENCY: 22.0793 cycles
cpu0_L1I AVERAGE dMISS LATENCY: 0 cycles
cpu0_L1I AVERAGE itMISS LATENCY: 0 cycles
cpu0_L1I AVERAGE dtMISS LATENCY: 0 cycles
cpu0_L1I PAGE CROSSINGS (TLB HIT):         0 
cpu0_L1I PAGE CROSSINGS (TLB MISS):         0 
cpu0_L1I AVERAGE MISS LATENCY: 22.0793 cycles
cpu0_ITLB TOTAL       ACCESS:   32820306  HIT:   30555275  MISS:    2265031  iACCESS:   32820306  iHIT:   30555275  iMISS:    2265031  dACCESS:          0  dHIT:          0  dMISS:          0  itACCESS:          0  itHIT:          0  itMISS:          0  dtACCESS:          0  dtHIT:          0  dtMISS:          0
cpu0_ITLB LOAD         ACCESS:   32820306  HIT:   30555275  MISS:    2265031  iACCESS:   32820306  iHIT:   30555275  iMISS:    2265031  dACCESS:          0  dHIT:          0  dMISS:          0  itACCESS:          0  itHIT:          0  itMISS:          0  dtACCESS:          0  dtHIT:          0  dtMISS:          0
cpu0_ITLB RFO          ACCESS:          0  HIT:          0  MISS:          0  iACCESS:          0  iHIT:          0  iMISS:          0  dACCESS:          0  dHIT:          0  dMISS:          0  itACCESS:          0  itHIT:          0  itMISS:          0  dtACCESS:          0  dtHIT:          0  dtMISS:          0
cpu0_ITLB PREFETCH     ACCESS:          0  HIT:          0  MISS:          0  iACCESS:          0  iHIT:          0  iMISS:          0  dACCESS:          0  dHIT:          0  dMISS:          0  itACCESS:          0  itHIT:          0  itMISS:          0  dtACCESS:          0  dtHIT:          0  dtMISS:          0
cpu0_ITLB WRITE        ACCESS:          0  HIT:          0  MISS:          0  iACCESS:          0  iHIT:          0  iMISS:          0  dACCESS:          0  dHIT:          0  dMISS:          0  itACCESS:          0  itHIT:          0  itMISS:          0  dtACCESS:          0  dtHIT:          0  dtMISS:          0
cpu0_ITLB TRANSLATION  ACCESS:          0  HIT:          0  MISS:          0  iACCESS:          0  iHIT:          0  iMISS:          0  dACCESS:          0  dHIT:          0  dMISS:          0  itACCESS:          0  itHIT:          0  itMISS:          0  dtACCESS:          0  dtHIT:          0  dtMISS:          0
cpu0_ITLB PREFETCH  REQUESTED:          0  ISSUED:          0  CROSSED:          0  USEFUL:     386161  USELESS:      82265
cpu0_ITLB AVERAGE iMISS LATENCY: 10.0183 cycles
cpu0_ITLB AVERAGE dMISS LATENCY: 0 cycles
cpu0_ITLB AVERAGE itMISS LATENCY: 0 cycles
cpu0_ITLB AVERAGE dtMISS LATENCY: 0 cycles
cpu0_ITLB PAGE CROSSINGS (TLB HIT):         0 
cpu0_ITLB PAGE CROSSINGS (TLB MISS):         0 
cpu0_ITLB AVERAGE MISS LATENCY: 10.0183 cycles
cpu0_DTLB TOTAL       ACCESS:   28790676  HIT:   25122469  MISS:    3668207  iACCESS:          0  iHIT:          0  iMISS:          0  dACCESS:   28790676  dHIT:   25122469  dMISS:    3668207  itACCESS:          0  itHIT:          0  itMISS:          0  dtACCESS:          0  dtHIT:          0  dtMISS:          0
cpu0_DTLB LOAD         ACCESS:   28790676  HIT:   25122469  MISS:    3668207  iACCESS:          0  iHIT:          0  iMISS:          0  dACCESS:   28790676  dHIT:   25122469  dMISS:    3668207  itACCESS:          0  itHIT:          0  itMISS:          0  dtACCESS:          0  dtHIT:          0  dtMISS:          0
cpu0_DTLB RFO          ACCESS:          0  HIT:          0  MISS:          0  iACCESS:          0  iHIT:          0  iMISS:          0  dACCESS:          0  dHIT:          0  dMISS:          0  itACCESS:          0  itHIT:          0  itMISS:          0  dtACCESS:          0  dtHIT:          0  dtMISS:          0
cpu0_DTLB PREFETCH     ACCESS:          0  HIT:          0  MISS:          0  iACCESS:          0  iHIT:          0  iMISS:          0  dACCESS:          0  dHIT:          0  dMISS:          0  itACCESS:          0  itHIT:          0  itMISS:          0  dtACCESS:          0  dtHIT:          0  dtMISS:          0
cpu0_DTLB WRITE        ACCESS:          0  HIT:          0  MISS:          0  iACCESS:          0  iHIT:          0  iMISS:          0  dACCESS:          0  dHIT:          0  dMISS:          0  itACCESS:          0  itHIT:          0  itMISS:          0  dtACCESS:          0  dtHIT:          0  dtMISS:          0
cpu0_DTLB TRANSLATION  ACCESS:          0  HIT:          0  MISS:          0  iACCESS:          0  iHIT:          0  iMISS:          0  dACCESS:          0  dHIT:          0  dMISS:          0  itACCESS:          0  itHIT:          0  itMISS:          0  dtACCESS:          0  dtHIT:          0  dtMISS:          0
cpu0_DTLB PREFETCH  REQUESTED:          0  ISSUED:          0  CROSSED:          0  USEFUL:          0  USELESS:          0
cpu0_DTLB AVERAGE iMISS LATENCY: 0 cycles
cpu0_DTLB AVERAGE dMISS LATENCY: 25.125 cycles
cpu0_DTLB AVERAGE itMISS LATENCY: 0 cycles
cpu0_DTLB AVERAGE dtMISS LATENCY: 0 cycles
cpu0_DTLB PAGE CROSSINGS (TLB HIT):         0 
cpu0_DTLB PAGE CROSSINGS (TLB MISS):         0 
cpu0_DTLB AVERAGE MISS LATENCY: 25.125 cycles
cpu0_STLB TOTAL       ACCESS:    2599521  HIT:    2219685  MISS:     379836  iACCESS:     468428  iHIT:     359964  iMISS:     108464  dACCESS:    2131093  dHIT:    1859721  dMISS:     271372  itACCESS:          0  itHIT:          0  itMISS:          0  dtACCESS:          0  dtHIT:          0  dtMISS:          0
cpu0_STLB LOAD         ACCESS:    2599521  HIT:    2219685  MISS:     379836  iACCESS:     468428  iHIT:     359964  iMISS:     108464  dACCESS:    2131093  dHIT:    1859721  dMISS:     271372  itACCESS:          0  itHIT:          0  itMISS:          0  dtACCESS:          0  dtHIT:          0  dtMISS:          0
cpu0_STLB RFO          ACCESS:          0  HIT:          0  MISS:          0  iACCESS:          0  iHIT:          0  iMISS:          0  dACCESS:          0  dHIT:          0  dMISS:          0  itACCESS:          0  itHIT:          0  itMISS:          0  dtACCESS:          0  dtHIT:          0  dtMISS:          0
cpu0_STLB PREFETCH     ACCESS:          0  HIT:          0  MISS:          0  iACCESS:          0  iHIT:          0  iMISS:          0  dACCESS:          0  dHIT:          0  dMISS:          0  itACCESS:          0  itHIT:          0  itMISS:          0  dtACCESS:          0  dtHIT:          0  dtMISS:          0
cpu0_STLB WRITE        ACCESS:          0  HIT:          0  MISS:          0  iACCESS:          0  iHIT:          0  iMISS:          0  dACCESS:          0  dHIT:          0  dMISS:          0  itACCESS:          0  itHIT:          0  itMISS:          0  dtACCESS:          0  dtHIT:          0  dtMISS:          0
cpu0_STLB TRANSLATION  ACCESS:          0  HIT:          0  MISS:          0  iACCESS:          0  iHIT:          0  iMISS:          0  dACCESS:          0  dHIT:          0  dMISS:          0  itACCESS:          0  itHIT:          0  itMISS:          0  dtACCESS:          0  dtHIT:          0  dtMISS:          0
cpu0_STLB PREFETCH  REQUESTED:          0  ISSUED:          0  CROSSED:          0  USEFUL:          0  USELESS:          0
cpu0_STLB AVERAGE iMISS LATENCY: 49.8907 cycles
cpu0_STLB AVERAGE dMISS LATENCY: 197.45 cycles
cpu0_STLB AVERAGE itMISS LATENCY: 0 cycles
cpu0_STLB AVERAGE dtMISS LATENCY: 0 cycles
cpu0_STLB PAGE CROSSINGS (TLB HIT):         0 
cpu0_STLB PAGE CROSSINGS (TLB MISS):         0 
cpu0_STLB AVERAGE MISS LATENCY: 247.341 cycles
cpu0_L1D TOTAL       ACCESS:   44892697  HIT:   39052367  MISS:    5840330  iACCESS:          0  iHIT:          0  iMISS:          0  dACCESS:   44328519  dHIT:   39021161  dMISS:    5307358  itACCESS:     124137  itHIT:      12320  itMISS:     111817  dtACCESS:     440041  dtHIT:      18886  dtMISS:     421155
cpu0_L1D LOAD         ACCESS:   20255446  HIT:   17865825  MISS:    2389621  iACCESS:          0  iHIT:          0  iMISS:          0  dACCESS:   20255446  dHIT:   17865825  dMISS:    2389621  itACCESS:          0  itHIT:          0  itMISS:          0  dtACCESS:          0  dtHIT:          0  dtMISS:          0
cpu0_L1D RFO          ACCESS:          0  HIT:          0  MISS:          0  iACCESS:          0  iHIT:          0  iMISS:          0  dACCESS:          0  dHIT:          0  dMISS:          0  itACCESS:          0  itHIT:          0  itMISS:          0  dtACCESS:          0  dtHIT:          0  dtMISS:          0
cpu0_L1D PREFETCH     ACCESS:   13950373  HIT:   11612927  MISS:    2337446  iACCESS:          0  iHIT:          0  iMISS:          0  dACCESS:   13950373  dHIT:   11612927  dMISS:    2337446  itACCESS:          0  itHIT:          0  itMISS:          0  dtACCESS:          0  dtHIT:          0  dtMISS:          0
cpu0_L1D WRITE        ACCESS:   10122700  HIT:    9542409  MISS:     580291  iACCESS:          0  iHIT:          0  iMISS:          0  dACCESS:   10122700  dHIT:    9542409  dMISS:     580291  itACCESS:          0  itHIT:          0  itMISS:          0  dtACCESS:          0  dtHIT:          0  dtMISS:          0
cpu0_L1D TRANSLATION  ACCESS:     564178  HIT:      31206  MISS:     532972  iACCESS:          0  iHIT:          0  iMISS:          0  dACCESS:          0  dHIT:          0  dMISS:          0  itACCESS:     124137  itHIT:      12320  itMISS:     111817  dtACCESS:     440041  dtHIT:      18886  dtMISS:     421155
cpu0_L1D PREFETCH  REQUESTED:   20255446  ISSUED:   18416889  CROSSED:          0  USEFUL:     355529  USELESS:     934080
cpu0_L1D AVERAGE iMISS LATENCY: 0 cycles
cpu0_L1D AVERAGE dMISS LATENCY: 49.4836 cycles
cpu0_L1D AVERAGE itMISS LATENCY: 3.07112 cycles
cpu0_L1D AVERAGE dtMISS LATENCY: 12.0427 cycles
cpu0_L1D PAGE CROSSINGS (TLB HIT):         0 
cpu0_L1D PAGE CROSSINGS (TLB MISS):         0 
cpu0_L1D AVERAGE MISS LATENCY: 64.5973 cycles
cpu0_L2C TOTAL       ACCESS:    8618635  HIT:    4132000  MISS:    4486635  iACCESS:    3790947  iHIT:    2294883  iMISS:    1496064  dACCESS:    4330307  dHIT:    1776091  dMISS:    2554216  itACCESS:     110017  itHIT:      17575  itMISS:      92442  dtACCESS:     387364  dtHIT:      43451  dtMISS:     343913
cpu0_L2C LOAD         ACCESS:    2078507  HIT:     991672  MISS:    1086835  iACCESS:     859060  iHIT:     541974  iMISS:     317086  dACCESS:    1219447  dHIT:     449698  dMISS:     769749  itACCESS:          0  itHIT:          0  itMISS:          0  dtACCESS:          0  dtHIT:          0  dtMISS:          0
cpu0_L2C RFO          ACCESS:     215297  HIT:      80039  MISS:     135258  iACCESS:          0  iHIT:          0  iMISS:          0  dACCESS:     215297  dHIT:      80039  dMISS:     135258  itACCESS:          0  itHIT:          0  itMISS:          0  dtACCESS:          0  dtHIT:          0  dtMISS:          0
cpu0_L2C PREFETCH     ACCESS:    5485068  HIT:    2669882  MISS:    2815186  iACCESS:    2931887  iHIT:    1752909  iMISS:    1178978  dACCESS:    2553181  dHIT:     916973  dMISS:    1636208  itACCESS:          0  itHIT:          0  itMISS:          0  dtACCESS:          0  dtHIT:          0  dtMISS:          0
cpu0_L2C WRITE        ACCESS:     342382  HIT:     329381  MISS:      13001  iACCESS:          0  iHIT:          0  iMISS:          0  dACCESS:     342382  dHIT:     329381  dMISS:      13001  itACCESS:          0  itHIT:          0  itMISS:          0  dtACCESS:          0  dtHIT:          0  dtMISS:          0
cpu0_L2C TRANSLATION  ACCESS:     497381  HIT:      61026  MISS:     436355  iACCESS:          0  iHIT:          0  iMISS:          0  dACCESS:          0  dHIT:          0  dMISS:          0  itACCESS:     110017  itHIT:      17575  itMISS:      92442  dtACCESS:     387364  dtHIT:      43451  dtMISS:     343913
cpu0_L2C PREFETCH  REQUESTED:    1529066  ISSUED:    1529063  CROSSED:          0  USEFUL:     360140  USELESS:     309702
cpu0_L2C AVERAGE iMISS LATENCY: 35.8999 cycles
cpu0_L2C AVERAGE dMISS LATENCY: 77.2587 cycles
cpu0_L2C AVERAGE itMISS LATENCY: 3.75569 cycles
cpu0_L2C AVERAGE dtMISS LATENCY: 14.8173 cycles
cpu0_L2C PAGE CROSSINGS (TLB HIT):         0 
cpu0_L2C PAGE CROSSINGS (TLB MISS):         0 
cpu0_L2C AVERAGE MISS LATENCY: 131.732 cycles
LLC TOTAL       ACCESS:    4497307  HIT:    1581049  MISS:    2916258  iACCESS:    1416541  iHIT:     572967  iMISS:     843574  dACCESS:    2644411  dHIT:     962360  dMISS:    1682051  itACCESS:      92442  itHIT:       8096  itMISS:      84346  dtACCESS:     343913  dtHIT:      37626  dtMISS:     306287
LLC LOAD         ACCESS:    1078400  HIT:     381990  MISS:     696410  iACCESS:     315786  iHIT:     134861  iMISS:     180925  dACCESS:     762614  dHIT:     247129  dMISS:     515485  itACCESS:          0  itHIT:          0  itMISS:          0  dtACCESS:          0  dtHIT:          0  dtMISS:          0
LLC RFO          ACCESS:     135247  HIT:      42538  MISS:      92709  iACCESS:          0  iHIT:          0  iMISS:          0  dACCESS:     135247  dHIT:      42538  dMISS:      92709  itACCESS:          0  itHIT:          0  itMISS:          0  dtACCESS:          0  dtHIT:          0  dtMISS:          0
LLC PREFETCH     ACCESS:    2633317  HIT:     906622  MISS:    1726695  iACCESS:    1100755  iHIT:     438106  iMISS:     662649  dACCESS:    1532562  dHIT:     468516  dMISS:    1064046  itACCESS:          0  itHIT:          0  itMISS:          0  dtACCESS:          0  dtHIT:          0  dtMISS:          0
LLC WRITE        ACCESS:     213988  HIT:     204177  MISS:       9811  iACCESS:          0  iHIT:          0  iMISS:          0  dACCESS:     213988  dHIT:     204177  dMISS:       9811  itACCESS:          0  itHIT:          0  itMISS:          0  dtACCESS:          0  dtHIT:          0  dtMISS:          0
LLC TRANSLATION  ACCESS:     436355  HIT:      45722  MISS:     390633  iACCESS:          0  iHIT:          0  iMISS:          0  dACCESS:          0  dHIT:          0  dMISS:          0  itACCESS:      92442  itHIT:       8096  itMISS:      84346  dtACCESS:     343913  dtHIT:      37626  dtMISS:     306287
LLC PREFETCH  REQUESTED:          0  ISSUED:          0  CROSSED:          0  USEFUL:          0  USELESS:          0
LLC AVERAGE iMISS LATENCY: 45.6907 cycles
LLC AVERAGE dMISS LATENCY: 103.503 cycles
LLC AVERAGE itMISS LATENCY: 5.14963 cycles
LLC AVERAGE dtMISS LATENCY: 20.4645 cycles
LLC PAGE CROSSINGS (TLB HIT):         0 
LLC PAGE CROSSINGS (TLB MISS):         0 
LLC AVERAGE MISS LATENCY: 174.808 cycles

PageTableWalker TOTAL       ACCESS:     189642  
PageTableWalker AVERAGE LATENCY: 6.39482 cycles
PageTableWalker TOTAL LATENCY: 1212725 cycles

DRAM Statistics
Channel 0
 RQ ROW_BUFFER_HIT:     592469
  ROW_BUFFER_MISS:    2293893
 AVG DBUS CONGESTED CYCLE:    3.64692
 WQ ROW_BUFFER_HIT:      67902
  ROW_BUFFER_MISS:      55955  FULL:          0

