last_page:0x200000000000000
VMEM_RES_CAP:0x100000
PAGE_SIZE:4096
LOG2_PAGE_SIZE:12
LOG2_PAGE_TABLE_SIZE:9
page_table_levels:5
WARNING: physical memory size is smaller than virtual memory size
FDiP enabled with aggresivity 16

*** ChampSim Multicore Out-of-Order Simulator ***

Warmup Instructions: 50000000
Simulation Instructions: 100000000
Number of CPUs: 1
Small page size: 4096
Large page size: 2097152

CPU 0 Bimodal branch predictor
Basic BTB sets: 1024 ways: 8 indirect buffer size: 4096 RAS size: 64
Instruction page size distrubution: 0
Loading instruction page size distribution from /home/bsc/bsc018186/scratch/itp_asplos25_AE/dump/smt_srv540_ap_srv194_ap_1024i.pdst
Data page size distrubution: 0
Loading data page size distribution from /home/bsc/bsc018186/scratch/itp_asplos25_AE/dump/smt_srv540_ap_srv194_ap_1024i.pdst
cpu0_L2C IP-based stride prefetcher
cpu0_L2C is using xPTP/LRU
	TLB_LOWER_STRESS_THRESHOLD:1
	TLB_UPPER_STRESS_THRESHOLD:4
	MIN_EVICTION_POSITION:4
cpu0_L1D next line prefetcher
cpu0_STLB using iTP with max lru@8
cpu0_STLB using iTP with instr@0 and data@2
Init sat counter with 3 bits (max:50).
cpu0_L1I next line prefetcher
Off-chip DRAM Size: 4 GiB Channels: 1 Width: 64-bit Data Rate: 3200 MT/s
Heartbeat CPU 0 instructions: 10000000 cycles: 2500333 heartbeat IPC: 3.99947 cumulative IPC: 3.99947 (Simulation time: 0 hr 0 min 37 sec) 
Heartbeat CPU 0 instructions: 20000003 cycles: 5000399 heartbeat IPC: 3.9999 cumulative IPC: 3.99969 (Simulation time: 0 hr 1 min 16 sec) 
Heartbeat CPU 0 instructions: 30000003 cycles: 7500510 heartbeat IPC: 3.99983 cumulative IPC: 3.99973 (Simulation time: 0 hr 1 min 56 sec) 
Heartbeat CPU 0 instructions: 40000001 cycles: 10001014 heartbeat IPC: 3.9992 cumulative IPC: 3.9996 (Simulation time: 0 hr 2 min 36 sec) 
Heartbeat CPU 0 instructions: 50000000 cycles: 12575696 heartbeat IPC: 3.88398 cumulative IPC: 3.97593 (Simulation time: 0 hr 3 min 15 sec) 
Warmup finished CPU 0 instructions: 50000000 cycles: 12575697 cumulative IPC: 3.97593 (Simulation time: 0 hr 3 min 15 sec) 

Warmup complete CPU 0 instructions: 50000000 cycles: 12575697 (Simulation time: 0 hr 3 min 15 sec) 

Heartbeat CPU 0 instructions: 60000003 cycles: 28491057 heartbeat IPC: 0.628324 cumulative IPC: 0.628325 (Simulation time: 0 hr 4 min 22 sec) 
Heartbeat CPU 0 instructions: 70000001 cycles: 47887871 heartbeat IPC: 0.515549 cumulative IPC: 0.566377 (Simulation time: 0 hr 5 min 34 sec) 
Heartbeat CPU 0 instructions: 80000002 cycles: 76726961 heartbeat IPC: 0.346752 cumulative IPC: 0.467645 (Simulation time: 0 hr 6 min 56 sec) 
Heartbeat CPU 0 instructions: 90000001 cycles: 105227789 heartbeat IPC: 0.350867 cumulative IPC: 0.431723 (Simulation time: 0 hr 8 min 18 sec) 
Heartbeat CPU 0 instructions: 100000003 cycles: 134212368 heartbeat IPC: 0.345012 cumulative IPC: 0.411061 (Simulation time: 0 hr 9 min 41 sec) 
Heartbeat CPU 0 instructions: 110000000 cycles: 161557803 heartbeat IPC: 0.365692 cumulative IPC: 0.402733 (Simulation time: 0 hr 11 min 1 sec) 
Heartbeat CPU 0 instructions: 120000003 cycles: 190692994 heartbeat IPC: 0.343228 cumulative IPC: 0.393 (Simulation time: 0 hr 12 min 24 sec) 
Heartbeat CPU 0 instructions: 130000001 cycles: 219637587 heartbeat IPC: 0.345488 cumulative IPC: 0.386358 (Simulation time: 0 hr 13 min 46 sec) 
Heartbeat CPU 0 instructions: 140000001 cycles: 249217262 heartbeat IPC: 0.33807 cumulative IPC: 0.380323 (Simulation time: 0 hr 15 min 9 sec) 
Heartbeat CPU 0 instructions: 150000001 cycles: 277782057 heartbeat IPC: 0.350082 cumulative IPC: 0.377065 (Simulation time: 0 hr 16 min 30 sec) 
Simulation finished CPU 0 instructions: 100000001 cycles: 265206361 cumulative IPC: 0.377065 (Simulation time: 0 hr 16 min 30 sec) 

Simulation complete CPU 0 instructions: 100000001 cycles: 265206361 (Simulation time: 0 hr 16 min 30 sec) 


ChampSim completed all CPUs

Saving instructions large page distribution to /home/bsc/bsc018186/scratch/itp_asplos25_AE/dump/smt_srv540_ap_srv194_ap_1024i.pdst...
Saving data large page distribution to /home/bsc/bsc018186/scratch/itp_asplos25_AE/dump/smt_srv540_ap_srv194_ap_1024i.pdst...
=== Simulation ===
CPU 0 runs /gpfs/projects/bsc18/MN4/bsc18/romol/ChampSim/traces/qualcomm_srv/smt_srv540_ap_srv194_ap_1024i.champsimtrace.xz

Region of Interest Statistics

CPU 0 cumulative IPC: 0.377065 instructions: 100000001 cycles: 265206361
CPU 0 Branch Prediction Accuracy: 76.976% MPKI: 43.8381 Average ROB Occupancy at Mispredict: 10.8094
Branch type MPKI
BRANCH_DIRECT_JUMP: 1.35577
BRANCH_INDIRECT: 23.1014
BRANCH_CONDITIONAL: 12.2343
BRANCH_DIRECT_CALL: 2.59586
BRANCH_INDIRECT_CALL: 1.11218
BRANCH_RETURN: 3.43864

Instructions large pages: 0
Instructions small pages: 10995
Large page distribution for instructions: 0%

Data large pages: 0
Data small pages: 9231
Large page distribution for data: 0%

cpu0_L1I TOTAL       ACCESS:   39872843  HIT:   31379825  MISS:    8493018  iACCESS:   39872843  iHIT:   31379825  iMISS:    8493018  dACCESS:          0  dHIT:          0  dMISS:          0  itACCESS:          0  itHIT:          0  itMISS:          0  dtACCESS:          0  dtHIT:          0  dtMISS:          0
cpu0_L1I LOAD         ACCESS:   11456048  HIT:    9135601  MISS:    2320447  iACCESS:   11456048  iHIT:    9135601  iMISS:    2320447  dACCESS:          0  dHIT:          0  dMISS:          0  itACCESS:          0  itHIT:          0  itMISS:          0  dtACCESS:          0  dtHIT:          0  dtMISS:          0
cpu0_L1I RFO          ACCESS:          0  HIT:          0  MISS:          0  iACCESS:          0  iHIT:          0  iMISS:          0  dACCESS:          0  dHIT:          0  dMISS:          0  itACCESS:          0  itHIT:          0  itMISS:          0  dtACCESS:          0  dtHIT:          0  dtMISS:          0
cpu0_L1I PREFETCH     ACCESS:   28416795  HIT:   22244224  MISS:    6172571  iACCESS:   28416795  iHIT:   22244224  iMISS:    6172571  dACCESS:          0  dHIT:          0  dMISS:          0  itACCESS:          0  itHIT:          0  itMISS:          0  dtACCESS:          0  dtHIT:          0  dtMISS:          0
cpu0_L1I WRITE        ACCESS:          0  HIT:          0  MISS:          0  iACCESS:          0  iHIT:          0  iMISS:          0  dACCESS:          0  dHIT:          0  dMISS:          0  itACCESS:          0  itHIT:          0  itMISS:          0  dtACCESS:          0  dtHIT:          0  dtMISS:          0
cpu0_L1I TRANSLATION  ACCESS:          0  HIT:          0  MISS:          0  iACCESS:          0  iHIT:          0  iMISS:          0  dACCESS:          0  dHIT:          0  dMISS:          0  itACCESS:          0  itHIT:          0  itMISS:          0  dtACCESS:          0  dtHIT:          0  dtMISS:          0
cpu0_L1I PREFETCH  REQUESTED:   30955566  ISSUED:   30955269  CROSSED:          0  USEFUL:    2078708  USELESS:     743323
cpu0_L1I AVERAGE iMISS LATENCY: 23.0816 cycles
cpu0_L1I AVERAGE dMISS LATENCY: 0 cycles
cpu0_L1I AVERAGE itMISS LATENCY: 0 cycles
cpu0_L1I AVERAGE dtMISS LATENCY: 0 cycles
cpu0_L1I PAGE CROSSINGS (TLB HIT):         0 
cpu0_L1I PAGE CROSSINGS (TLB MISS):         0 
cpu0_L1I AVERAGE MISS LATENCY: 23.0816 cycles
cpu0_ITLB TOTAL       ACCESS:   33630703  HIT:   31492193  MISS:    2138510  iACCESS:   33630703  iHIT:   31492193  iMISS:    2138510  dACCESS:          0  dHIT:          0  dMISS:          0  itACCESS:          0  itHIT:          0  itMISS:          0  dtACCESS:          0  dtHIT:          0  dtMISS:          0
cpu0_ITLB LOAD         ACCESS:   33630703  HIT:   31492193  MISS:    2138510  iACCESS:   33630703  iHIT:   31492193  iMISS:    2138510  dACCESS:          0  dHIT:          0  dMISS:          0  itACCESS:          0  itHIT:          0  itMISS:          0  dtACCESS:          0  dtHIT:          0  dtMISS:          0
cpu0_ITLB RFO          ACCESS:          0  HIT:          0  MISS:          0  iACCESS:          0  iHIT:          0  iMISS:          0  dACCESS:          0  dHIT:          0  dMISS:          0  itACCESS:          0  itHIT:          0  itMISS:          0  dtACCESS:          0  dtHIT:          0  dtMISS:          0
cpu0_ITLB PREFETCH     ACCESS:          0  HIT:          0  MISS:          0  iACCESS:          0  iHIT:          0  iMISS:          0  dACCESS:          0  dHIT:          0  dMISS:          0  itACCESS:          0  itHIT:          0  itMISS:          0  dtACCESS:          0  dtHIT:          0  dtMISS:          0
cpu0_ITLB WRITE        ACCESS:          0  HIT:          0  MISS:          0  iACCESS:          0  iHIT:          0  iMISS:          0  dACCESS:          0  dHIT:          0  dMISS:          0  itACCESS:          0  itHIT:          0  itMISS:          0  dtACCESS:          0  dtHIT:          0  dtMISS:          0
cpu0_ITLB TRANSLATION  ACCESS:          0  HIT:          0  MISS:          0  iACCESS:          0  iHIT:          0  iMISS:          0  dACCESS:          0  dHIT:          0  dMISS:          0  itACCESS:          0  itHIT:          0  itMISS:          0  dtACCESS:          0  dtHIT:          0  dtMISS:          0
cpu0_ITLB PREFETCH  REQUESTED:          0  ISSUED:          0  CROSSED:          0  USEFUL:     376542  USELESS:      80545
cpu0_ITLB AVERAGE iMISS LATENCY: 6.21041 cycles
cpu0_ITLB AVERAGE dMISS LATENCY: 0 cycles
cpu0_ITLB AVERAGE itMISS LATENCY: 0 cycles
cpu0_ITLB AVERAGE dtMISS LATENCY: 0 cycles
cpu0_ITLB PAGE CROSSINGS (TLB HIT):         0 
cpu0_ITLB PAGE CROSSINGS (TLB MISS):         0 
cpu0_ITLB AVERAGE MISS LATENCY: 6.21041 cycles
cpu0_DTLB TOTAL       ACCESS:   30305699  HIT:   25073571  MISS:    5232128  iACCESS:          0  iHIT:          0  iMISS:          0  dACCESS:   30305699  dHIT:   25073571  dMISS:    5232128  itACCESS:          0  itHIT:          0  itMISS:          0  dtACCESS:          0  dtHIT:          0  dtMISS:          0
cpu0_DTLB LOAD         ACCESS:   30305699  HIT:   25073571  MISS:    5232128  iACCESS:          0  iHIT:          0  iMISS:          0  dACCESS:   30305699  dHIT:   25073571  dMISS:    5232128  itACCESS:          0  itHIT:          0  itMISS:          0  dtACCESS:          0  dtHIT:          0  dtMISS:          0
cpu0_DTLB RFO          ACCESS:          0  HIT:          0  MISS:          0  iACCESS:          0  iHIT:          0  iMISS:          0  dACCESS:          0  dHIT:          0  dMISS:          0  itACCESS:          0  itHIT:          0  itMISS:          0  dtACCESS:          0  dtHIT:          0  dtMISS:          0
cpu0_DTLB PREFETCH     ACCESS:          0  HIT:          0  MISS:          0  iACCESS:          0  iHIT:          0  iMISS:          0  dACCESS:          0  dHIT:          0  dMISS:          0  itACCESS:          0  itHIT:          0  itMISS:          0  dtACCESS:          0  dtHIT:          0  dtMISS:          0
cpu0_DTLB WRITE        ACCESS:          0  HIT:          0  MISS:          0  iACCESS:          0  iHIT:          0  iMISS:          0  dACCESS:          0  dHIT:          0  dMISS:          0  itACCESS:          0  itHIT:          0  itMISS:          0  dtACCESS:          0  dtHIT:          0  dtMISS:          0
cpu0_DTLB TRANSLATION  ACCESS:          0  HIT:          0  MISS:          0  iACCESS:          0  iHIT:          0  iMISS:          0  dACCESS:          0  dHIT:          0  dMISS:          0  itACCESS:          0  itHIT:          0  itMISS:          0  dtACCESS:          0  dtHIT:          0  dtMISS:          0
cpu0_DTLB PREFETCH  REQUESTED:          0  ISSUED:          0  CROSSED:          0  USEFUL:          0  USELESS:          0
cpu0_DTLB AVERAGE iMISS LATENCY: 0 cycles
cpu0_DTLB AVERAGE dMISS LATENCY: 13.796 cycles
cpu0_DTLB AVERAGE itMISS LATENCY: 0 cycles
cpu0_DTLB AVERAGE dtMISS LATENCY: 0 cycles
cpu0_DTLB PAGE CROSSINGS (TLB HIT):         0 
cpu0_DTLB PAGE CROSSINGS (TLB MISS):         0 
cpu0_DTLB AVERAGE MISS LATENCY: 13.796 cycles
cpu0_STLB TOTAL       ACCESS:    3314127  HIT:    2963478  MISS:     350649  iACCESS:     457091  iHIT:     397338  iMISS:      59753  dACCESS:    2857036  dHIT:    2566140  dMISS:     290896  itACCESS:          0  itHIT:          0  itMISS:          0  dtACCESS:          0  dtHIT:          0  dtMISS:          0
cpu0_STLB LOAD         ACCESS:    3314127  HIT:    2963478  MISS:     350649  iACCESS:     457091  iHIT:     397338  iMISS:      59753  dACCESS:    2857036  dHIT:    2566140  dMISS:     290896  itACCESS:          0  itHIT:          0  itMISS:          0  dtACCESS:          0  dtHIT:          0  dtMISS:          0
cpu0_STLB RFO          ACCESS:          0  HIT:          0  MISS:          0  iACCESS:          0  iHIT:          0  iMISS:          0  dACCESS:          0  dHIT:          0  dMISS:          0  itACCESS:          0  itHIT:          0  itMISS:          0  dtACCESS:          0  dtHIT:          0  dtMISS:          0
cpu0_STLB PREFETCH     ACCESS:          0  HIT:          0  MISS:          0  iACCESS:          0  iHIT:          0  iMISS:          0  dACCESS:          0  dHIT:          0  dMISS:          0  itACCESS:          0  itHIT:          0  itMISS:          0  dtACCESS:          0  dtHIT:          0  dtMISS:          0
cpu0_STLB WRITE        ACCESS:          0  HIT:          0  MISS:          0  iACCESS:          0  iHIT:          0  iMISS:          0  dACCESS:          0  dHIT:          0  dMISS:          0  itACCESS:          0  itHIT:          0  itMISS:          0  dtACCESS:          0  dtHIT:          0  dtMISS:          0
cpu0_STLB TRANSLATION  ACCESS:          0  HIT:          0  MISS:          0  iACCESS:          0  iHIT:          0  iMISS:          0  dACCESS:          0  dHIT:          0  dMISS:          0  itACCESS:          0  itHIT:          0  itMISS:          0  dtACCESS:          0  dtHIT:          0  dtMISS:          0
cpu0_STLB PREFETCH  REQUESTED:          0  ISSUED:          0  CROSSED:          0  USEFUL:          0  USELESS:          0
cpu0_STLB AVERAGE iMISS LATENCY: 27.6166 cycles
cpu0_STLB AVERAGE dMISS LATENCY: 139.883 cycles
cpu0_STLB AVERAGE itMISS LATENCY: 0 cycles
cpu0_STLB AVERAGE dtMISS LATENCY: 0 cycles
cpu0_STLB PAGE CROSSINGS (TLB HIT):         0 
cpu0_STLB PAGE CROSSINGS (TLB MISS):         0 
cpu0_STLB AVERAGE MISS LATENCY: 167.5 cycles
cpu0_L1D TOTAL       ACCESS:   47688948  HIT:   39569558  MISS:    8119390  iACCESS:          0  iHIT:          0  iMISS:          0  dACCESS:   47158140  dHIT:   39541521  dMISS:    7616619  itACCESS:      69877  itHIT:       5546  itMISS:      64331  dtACCESS:     460931  dtHIT:      22491  dtMISS:     438440
cpu0_L1D LOAD         ACCESS:   22283956  HIT:   18221540  MISS:    4062416  iACCESS:          0  iHIT:          0  iMISS:          0  dACCESS:   22283956  dHIT:   18221540  dMISS:    4062416  itACCESS:          0  itHIT:          0  itMISS:          0  dtACCESS:          0  dtHIT:          0  dtMISS:          0
cpu0_L1D RFO          ACCESS:          0  HIT:          0  MISS:          0  iACCESS:          0  iHIT:          0  iMISS:          0  dACCESS:          0  dHIT:          0  dMISS:          0  itACCESS:          0  itHIT:          0  itMISS:          0  dtACCESS:          0  dtHIT:          0  dtMISS:          0
cpu0_L1D PREFETCH     ACCESS:   14814834  HIT:   11879810  MISS:    2935024  iACCESS:          0  iHIT:          0  iMISS:          0  dACCESS:   14814834  dHIT:   11879810  dMISS:    2935024  itACCESS:          0  itHIT:          0  itMISS:          0  dtACCESS:          0  dtHIT:          0  dtMISS:          0
cpu0_L1D WRITE        ACCESS:   10059350  HIT:    9440171  MISS:     619179  iACCESS:          0  iHIT:          0  iMISS:          0  dACCESS:   10059350  dHIT:    9440171  dMISS:     619179  itACCESS:          0  itHIT:          0  itMISS:          0  dtACCESS:          0  dtHIT:          0  dtMISS:          0
cpu0_L1D TRANSLATION  ACCESS:     530808  HIT:      28037  MISS:     502771  iACCESS:          0  iHIT:          0  iMISS:          0  dACCESS:          0  dHIT:          0  dMISS:          0  itACCESS:      69877  itHIT:       5546  itMISS:      64331  dtACCESS:     460931  dtHIT:      22491  dtMISS:     438440
cpu0_L1D PREFETCH  REQUESTED:   22283956  ISSUED:   18781698  CROSSED:          0  USEFUL:     332257  USELESS:     998680
cpu0_L1D AVERAGE iMISS LATENCY: 0 cycles
cpu0_L1D AVERAGE dMISS LATENCY: 35.6408 cycles
cpu0_L1D AVERAGE itMISS LATENCY: 1.11833 cycles
cpu0_L1D AVERAGE dtMISS LATENCY: 5.49061 cycles
cpu0_L1D PAGE CROSSINGS (TLB HIT):         0 
cpu0_L1D PAGE CROSSINGS (TLB MISS):         0 
cpu0_L1D AVERAGE MISS LATENCY: 42.2497 cycles
cpu0_L2C TOTAL       ACCESS:    9498610  HIT:    3029434  MISS:    6469176  iACCESS:    3597508  iHIT:    1296381  iMISS:    2301127  dACCESS:    5425209  dHIT:    1538975  dMISS:    3886234  itACCESS:      64227  itHIT:      13727  itMISS:      50500  dtACCESS:     411666  dtHIT:     180351  dtMISS:     231315
cpu0_L2C LOAD         ACCESS:    3129476  HIT:    1098964  MISS:    2030512  iACCESS:     806684  iHIT:     260396  iMISS:     546288  dACCESS:    2322792  dHIT:     838568  dMISS:    1484224  itACCESS:          0  itHIT:          0  itMISS:          0  dtACCESS:          0  dtHIT:          0  dtMISS:          0
cpu0_L2C RFO          ACCESS:     241485  HIT:      53416  MISS:     188069  iACCESS:          0  iHIT:          0  iMISS:          0  dACCESS:     241485  dHIT:      53416  dMISS:     188069  itACCESS:          0  itHIT:          0  itMISS:          0  dtACCESS:          0  dtHIT:          0  dtMISS:          0
cpu0_L2C PREFETCH     ACCESS:    5316964  HIT:    1560061  MISS:    3756903  iACCESS:    2790824  iHIT:    1035985  iMISS:    1754839  dACCESS:    2526140  dHIT:     524076  dMISS:    2002064  itACCESS:          0  itHIT:          0  itMISS:          0  dtACCESS:          0  dtHIT:          0  dtMISS:          0
cpu0_L2C WRITE        ACCESS:     334792  HIT:     122915  MISS:     211877  iACCESS:          0  iHIT:          0  iMISS:          0  dACCESS:     334792  dHIT:     122915  dMISS:     211877  itACCESS:          0  itHIT:          0  itMISS:          0  dtACCESS:          0  dtHIT:          0  dtMISS:          0
cpu0_L2C TRANSLATION  ACCESS:     475893  HIT:     194078  MISS:     281815  iACCESS:          0  iHIT:          0  iMISS:          0  dACCESS:          0  dHIT:          0  dMISS:          0  itACCESS:      64227  itHIT:      13727  itMISS:      50500  dtACCESS:     411666  dtHIT:     180351  dtMISS:     231315
cpu0_L2C PREFETCH  REQUESTED:    1410678  ISSUED:    1410668  CROSSED:          0  USEFUL:     344162  USELESS:     420683
cpu0_L2C AVERAGE iMISS LATENCY: 25.6185 cycles
cpu0_L2C AVERAGE dMISS LATENCY: 51.5729 cycles
cpu0_L2C AVERAGE itMISS LATENCY: 1.30617 cycles
cpu0_L2C AVERAGE dtMISS LATENCY: 6.27975 cycles
cpu0_L2C PAGE CROSSINGS (TLB HIT):         0 
cpu0_L2C PAGE CROSSINGS (TLB MISS):         0 
cpu0_L2C AVERAGE MISS LATENCY: 84.7773 cycles
LLC TOTAL       ACCESS:    6321493  HIT:    3823814  MISS:    2497679  iACCESS:    2221774  iHIT:    1449090  iMISS:     772684  dACCESS:    3817904  dHIT:    2324097  dMISS:    1493807  itACCESS:      50500  itHIT:       8758  itMISS:      41742  dtACCESS:     231315  dtHIT:      41869  dtMISS:     189446
LLC LOAD         ACCESS:    2023066  HIT:    1424436  MISS:     598630  iACCESS:     545139  iHIT:     384028  iMISS:     161111  dACCESS:    1477927  dHIT:    1040408  dMISS:     437519  itACCESS:          0  itHIT:          0  itMISS:          0  dtACCESS:          0  dtHIT:          0  dtMISS:          0
LLC RFO          ACCESS:     188047  HIT:      96763  MISS:      91284  iACCESS:          0  iHIT:          0  iMISS:          0  dACCESS:     188047  dHIT:      96763  dMISS:      91284  itACCESS:          0  itHIT:          0  itMISS:          0  dtACCESS:          0  dtHIT:          0  dtMISS:          0
LLC PREFETCH     ACCESS:    3567459  HIT:    1994595  MISS:    1572864  iACCESS:    1676635  iHIT:    1065062  iMISS:     611573  dACCESS:    1890824  dHIT:     929533  dMISS:     961291  itACCESS:          0  itHIT:          0  itMISS:          0  dtACCESS:          0  dtHIT:          0  dtMISS:          0
LLC WRITE        ACCESS:     261106  HIT:     257393  MISS:       3713  iACCESS:          0  iHIT:          0  iMISS:          0  dACCESS:     261106  dHIT:     257393  dMISS:       3713  itACCESS:          0  itHIT:          0  itMISS:          0  dtACCESS:          0  dtHIT:          0  dtMISS:          0
LLC TRANSLATION  ACCESS:     281815  HIT:      50627  MISS:     231188  iACCESS:          0  iHIT:          0  iMISS:          0  dACCESS:          0  dHIT:          0  dMISS:          0  itACCESS:      50500  itHIT:       8758  itMISS:      41742  dtACCESS:     231315  dtHIT:      41869  dtMISS:     189446
LLC PREFETCH  REQUESTED:          0  ISSUED:          0  CROSSED:          0  USEFUL:          0  USELESS:          0
LLC AVERAGE iMISS LATENCY: 49.0537 cycles
LLC AVERAGE dMISS LATENCY: 106.849 cycles
LLC AVERAGE itMISS LATENCY: 2.98363 cycles
LLC AVERAGE dtMISS LATENCY: 14.4372 cycles
LLC PAGE CROSSINGS (TLB HIT):         0 
LLC PAGE CROSSINGS (TLB MISS):         0 
LLC AVERAGE MISS LATENCY: 173.323 cycles

PageTableWalker TOTAL       ACCESS:     174058  
PageTableWalker AVERAGE LATENCY: 6.57589 cycles
PageTableWalker TOTAL LATENCY: 1144585 cycles

DRAM Statistics
Channel 0
 RQ ROW_BUFFER_HIT:     531714
  ROW_BUFFER_MISS:    1944847
 AVG DBUS CONGESTED CYCLE:    3.65419
 WQ ROW_BUFFER_HIT:      62522
  ROW_BUFFER_MISS:      61196  FULL:          0

