last_page:0x200000000000000
VMEM_RES_CAP:0x100000
PAGE_SIZE:4096
LOG2_PAGE_SIZE:12
LOG2_PAGE_TABLE_SIZE:9
page_table_levels:5
WARNING: physical memory size is smaller than virtual memory size
FDiP enabled with aggresivity 16

*** ChampSim Multicore Out-of-Order Simulator ***

Warmup Instructions: 50000000
Simulation Instructions: 100000000
Number of CPUs: 1
Small page size: 4096
Large page size: 2097152

CPU 0 Bimodal branch predictor
Basic BTB sets: 1024 ways: 8 indirect buffer size: 4096 RAS size: 64
Instruction page size distrubution: 0
Loading instruction page size distribution from /home/bsc/bsc018186/scratch/itp_asplos25_AE/dump/smt_srv12_ap_srv73_ap_1024i.pdst
Data page size distrubution: 0
Loading data page size distribution from /home/bsc/bsc018186/scratch/itp_asplos25_AE/dump/smt_srv12_ap_srv73_ap_1024i.pdst
cpu0_L2C IP-based stride prefetcher
cpu0_L1D next line prefetcher
CHiRPing...
cpu0_L1I next line prefetcher
Off-chip DRAM Size: 4 GiB Channels: 1 Width: 64-bit Data Rate: 3200 MT/s
Heartbeat CPU 0 instructions: 10000003 cycles: 2500698 heartbeat IPC: 3.99889 cumulative IPC: 3.99889 (Simulation time: 0 hr 0 min 45 sec) 
Heartbeat CPU 0 instructions: 20000001 cycles: 5001191 heartbeat IPC: 3.99922 cumulative IPC: 3.99905 (Simulation time: 0 hr 1 min 33 sec) 
Heartbeat CPU 0 instructions: 30000003 cycles: 7501711 heartbeat IPC: 3.99917 cumulative IPC: 3.99909 (Simulation time: 0 hr 2 min 22 sec) 
Heartbeat CPU 0 instructions: 40000001 cycles: 10002064 heartbeat IPC: 3.99944 cumulative IPC: 3.99918 (Simulation time: 0 hr 3 min 11 sec) 
Heartbeat CPU 0 instructions: 50000000 cycles: 12503077 heartbeat IPC: 3.99838 cumulative IPC: 3.99902 (Simulation time: 0 hr 4 min 1 sec) 
Warmup finished CPU 0 instructions: 50000000 cycles: 12503078 cumulative IPC: 3.99902 (Simulation time: 0 hr 4 min 1 sec) 

Warmup complete CPU 0 instructions: 50000000 cycles: 12503078 (Simulation time: 0 hr 4 min 1 sec) 

Heartbeat CPU 0 instructions: 60000001 cycles: 38043052 heartbeat IPC: 0.391544 cumulative IPC: 0.391544 (Simulation time: 0 hr 5 min 32 sec) 
Heartbeat CPU 0 instructions: 70000003 cycles: 61167644 heartbeat IPC: 0.432441 cumulative IPC: 0.410977 (Simulation time: 0 hr 7 min 1 sec) 
Heartbeat CPU 0 instructions: 80000001 cycles: 85808216 heartbeat IPC: 0.405835 cumulative IPC: 0.409249 (Simulation time: 0 hr 8 min 31 sec) 
Heartbeat CPU 0 instructions: 90000002 cycles: 113945943 heartbeat IPC: 0.355395 cumulative IPC: 0.394311 (Simulation time: 0 hr 10 min 7 sec) 
Heartbeat CPU 0 instructions: 100000000 cycles: 145623882 heartbeat IPC: 0.315678 cumulative IPC: 0.375599 (Simulation time: 0 hr 11 min 51 sec) 
Heartbeat CPU 0 instructions: 110000002 cycles: 177895442 heartbeat IPC: 0.309871 cumulative IPC: 0.362774 (Simulation time: 0 hr 13 min 32 sec) 
Heartbeat CPU 0 instructions: 120000001 cycles: 207707498 heartbeat IPC: 0.335435 cumulative IPC: 0.358599 (Simulation time: 0 hr 15 min 4 sec) 
Heartbeat CPU 0 instructions: 130000004 cycles: 225602473 heartbeat IPC: 0.558817 cumulative IPC: 0.375412 (Simulation time: 0 hr 16 min 28 sec) 
Heartbeat CPU 0 instructions: 140000000 cycles: 247073945 heartbeat IPC: 0.465735 cumulative IPC: 0.38368 (Simulation time: 0 hr 17 min 58 sec) 
Heartbeat CPU 0 instructions: 150000002 cycles: 278077622 heartbeat IPC: 0.322543 cumulative IPC: 0.376543 (Simulation time: 0 hr 19 min 41 sec) 
Simulation finished CPU 0 instructions: 100000002 cycles: 265574545 cumulative IPC: 0.376543 (Simulation time: 0 hr 19 min 41 sec) 

Simulation complete CPU 0 instructions: 100000002 cycles: 265574545 (Simulation time: 0 hr 19 min 41 sec) 


ChampSim completed all CPUs

Saving instructions large page distribution to /home/bsc/bsc018186/scratch/itp_asplos25_AE/dump/smt_srv12_ap_srv73_ap_1024i.pdst...
Saving data large page distribution to /home/bsc/bsc018186/scratch/itp_asplos25_AE/dump/smt_srv12_ap_srv73_ap_1024i.pdst...
=== Simulation ===
CPU 0 runs /gpfs/projects/bsc18/MN4/bsc18/romol/ChampSim/traces/qualcomm_srv/smt_srv12_ap_srv73_ap_1024i.champsimtrace.xz

Region of Interest Statistics

CPU 0 cumulative IPC: 0.376543 instructions: 100000002 cycles: 265574545
CPU 0 Branch Prediction Accuracy: 77.5128% MPKI: 43.838 Average ROB Occupancy at Mispredict: 10.6999
Branch type MPKI
BRANCH_DIRECT_JUMP: 1.16918
BRANCH_INDIRECT: 23.1063
BRANCH_CONDITIONAL: 12.637
BRANCH_DIRECT_CALL: 2.15754
BRANCH_INDIRECT_CALL: 1.79687
BRANCH_RETURN: 2.97121

Instructions large pages: 0
Instructions small pages: 12334
Large page distribution for instructions: 0%

Data large pages: 0
Data small pages: 10484
Large page distribution for data: 0%

cpu0_L1I TOTAL       ACCESS:   38228086  HIT:   31167326  MISS:    7060760  iACCESS:   38228086  iHIT:   31167326  iMISS:    7060760  dACCESS:          0  dHIT:          0  dMISS:          0  itACCESS:          0  itHIT:          0  itMISS:          0  dtACCESS:          0  dtHIT:          0  dtMISS:          0
cpu0_L1I LOAD         ACCESS:   10540174  HIT:    8607940  MISS:    1932234  iACCESS:   10540174  iHIT:    8607940  iMISS:    1932234  dACCESS:          0  dHIT:          0  dMISS:          0  itACCESS:          0  itHIT:          0  itMISS:          0  dtACCESS:          0  dtHIT:          0  dtMISS:          0
cpu0_L1I RFO          ACCESS:          0  HIT:          0  MISS:          0  iACCESS:          0  iHIT:          0  iMISS:          0  dACCESS:          0  dHIT:          0  dMISS:          0  itACCESS:          0  itHIT:          0  itMISS:          0  dtACCESS:          0  dtHIT:          0  dtMISS:          0
cpu0_L1I PREFETCH     ACCESS:   27687912  HIT:   22559386  MISS:    5128526  iACCESS:   27687912  iHIT:   22559386  iMISS:    5128526  dACCESS:          0  dHIT:          0  dMISS:          0  itACCESS:          0  itHIT:          0  itMISS:          0  dtACCESS:          0  dtHIT:          0  dtMISS:          0
cpu0_L1I WRITE        ACCESS:          0  HIT:          0  MISS:          0  iACCESS:          0  iHIT:          0  iMISS:          0  dACCESS:          0  dHIT:          0  dMISS:          0  itACCESS:          0  itHIT:          0  itMISS:          0  dtACCESS:          0  dtHIT:          0  dtMISS:          0
cpu0_L1I TRANSLATION  ACCESS:          0  HIT:          0  MISS:          0  iACCESS:          0  iHIT:          0  iMISS:          0  dACCESS:          0  dHIT:          0  dMISS:          0  itACCESS:          0  itHIT:          0  itMISS:          0  dtACCESS:          0  dtHIT:          0  dtMISS:          0
cpu0_L1I PREFETCH  REQUESTED:   30086487  ISSUED:   30086483  CROSSED:          0  USEFUL:    1796134  USELESS:     651335
cpu0_L1I AVERAGE iMISS LATENCY: 24.992 cycles
cpu0_L1I AVERAGE dMISS LATENCY: 0 cycles
cpu0_L1I AVERAGE itMISS LATENCY: 0 cycles
cpu0_L1I AVERAGE dtMISS LATENCY: 0 cycles
cpu0_L1I PAGE CROSSINGS (TLB HIT):         0 
cpu0_L1I PAGE CROSSINGS (TLB MISS):         0 
cpu0_L1I AVERAGE MISS LATENCY: 24.992 cycles
cpu0_ITLB TOTAL       ACCESS:   32422818  HIT:   30575975  MISS:    1846843  iACCESS:   32422818  iHIT:   30575975  iMISS:    1846843  dACCESS:          0  dHIT:          0  dMISS:          0  itACCESS:          0  itHIT:          0  itMISS:          0  dtACCESS:          0  dtHIT:          0  dtMISS:          0
cpu0_ITLB LOAD         ACCESS:   32422818  HIT:   30575975  MISS:    1846843  iACCESS:   32422818  iHIT:   30575975  iMISS:    1846843  dACCESS:          0  dHIT:          0  dMISS:          0  itACCESS:          0  itHIT:          0  itMISS:          0  dtACCESS:          0  dtHIT:          0  dtMISS:          0
cpu0_ITLB RFO          ACCESS:          0  HIT:          0  MISS:          0  iACCESS:          0  iHIT:          0  iMISS:          0  dACCESS:          0  dHIT:          0  dMISS:          0  itACCESS:          0  itHIT:          0  itMISS:          0  dtACCESS:          0  dtHIT:          0  dtMISS:          0
cpu0_ITLB PREFETCH     ACCESS:          0  HIT:          0  MISS:          0  iACCESS:          0  iHIT:          0  iMISS:          0  dACCESS:          0  dHIT:          0  dMISS:          0  itACCESS:          0  itHIT:          0  itMISS:          0  dtACCESS:          0  dtHIT:          0  dtMISS:          0
cpu0_ITLB WRITE        ACCESS:          0  HIT:          0  MISS:          0  iACCESS:          0  iHIT:          0  iMISS:          0  dACCESS:          0  dHIT:          0  dMISS:          0  itACCESS:          0  itHIT:          0  itMISS:          0  dtACCESS:          0  dtHIT:          0  dtMISS:          0
cpu0_ITLB TRANSLATION  ACCESS:          0  HIT:          0  MISS:          0  iACCESS:          0  iHIT:          0  iMISS:          0  dACCESS:          0  dHIT:          0  dMISS:          0  itACCESS:          0  itHIT:          0  itMISS:          0  dtACCESS:          0  dtHIT:          0  dtMISS:          0
cpu0_ITLB PREFETCH  REQUESTED:          0  ISSUED:          0  CROSSED:          0  USEFUL:     329094  USELESS:      68181
cpu0_ITLB AVERAGE iMISS LATENCY: 10.6229 cycles
cpu0_ITLB AVERAGE dMISS LATENCY: 0 cycles
cpu0_ITLB AVERAGE itMISS LATENCY: 0 cycles
cpu0_ITLB AVERAGE dtMISS LATENCY: 0 cycles
cpu0_ITLB PAGE CROSSINGS (TLB HIT):         0 
cpu0_ITLB PAGE CROSSINGS (TLB MISS):         0 
cpu0_ITLB AVERAGE MISS LATENCY: 10.6229 cycles
cpu0_DTLB TOTAL       ACCESS:   31370012  HIT:   26066106  MISS:    5303906  iACCESS:          0  iHIT:          0  iMISS:          0  dACCESS:   31370012  dHIT:   26066106  dMISS:    5303906  itACCESS:          0  itHIT:          0  itMISS:          0  dtACCESS:          0  dtHIT:          0  dtMISS:          0
cpu0_DTLB LOAD         ACCESS:   31370012  HIT:   26066106  MISS:    5303906  iACCESS:          0  iHIT:          0  iMISS:          0  dACCESS:   31370012  dHIT:   26066106  dMISS:    5303906  itACCESS:          0  itHIT:          0  itMISS:          0  dtACCESS:          0  dtHIT:          0  dtMISS:          0
cpu0_DTLB RFO          ACCESS:          0  HIT:          0  MISS:          0  iACCESS:          0  iHIT:          0  iMISS:          0  dACCESS:          0  dHIT:          0  dMISS:          0  itACCESS:          0  itHIT:          0  itMISS:          0  dtACCESS:          0  dtHIT:          0  dtMISS:          0
cpu0_DTLB PREFETCH     ACCESS:          0  HIT:          0  MISS:          0  iACCESS:          0  iHIT:          0  iMISS:          0  dACCESS:          0  dHIT:          0  dMISS:          0  itACCESS:          0  itHIT:          0  itMISS:          0  dtACCESS:          0  dtHIT:          0  dtMISS:          0
cpu0_DTLB WRITE        ACCESS:          0  HIT:          0  MISS:          0  iACCESS:          0  iHIT:          0  iMISS:          0  dACCESS:          0  dHIT:          0  dMISS:          0  itACCESS:          0  itHIT:          0  itMISS:          0  dtACCESS:          0  dtHIT:          0  dtMISS:          0
cpu0_DTLB TRANSLATION  ACCESS:          0  HIT:          0  MISS:          0  iACCESS:          0  iHIT:          0  iMISS:          0  dACCESS:          0  dHIT:          0  dMISS:          0  itACCESS:          0  itHIT:          0  itMISS:          0  dtACCESS:          0  dtHIT:          0  dtMISS:          0
cpu0_DTLB PREFETCH  REQUESTED:          0  ISSUED:          0  CROSSED:          0  USEFUL:          0  USELESS:          0
cpu0_DTLB AVERAGE iMISS LATENCY: 0 cycles
cpu0_DTLB AVERAGE dMISS LATENCY: 14.5257 cycles
cpu0_DTLB AVERAGE itMISS LATENCY: 0 cycles
cpu0_DTLB AVERAGE dtMISS LATENCY: 0 cycles
cpu0_DTLB PAGE CROSSINGS (TLB HIT):         0 
cpu0_DTLB PAGE CROSSINGS (TLB MISS):         0 
cpu0_DTLB AVERAGE MISS LATENCY: 14.5257 cycles
cpu0_STLB TOTAL       ACCESS:    3221198  HIT:    2934477  MISS:     286721  iACCESS:     397281  iHIT:     303682  iMISS:      93599  dACCESS:    2823917  dHIT:    2630795  dMISS:     193122  itACCESS:          0  itHIT:          0  itMISS:          0  dtACCESS:          0  dtHIT:          0  dtMISS:          0
cpu0_STLB LOAD         ACCESS:    3221198  HIT:    2934477  MISS:     286721  iACCESS:     397281  iHIT:     303682  iMISS:      93599  dACCESS:    2823917  dHIT:    2630795  dMISS:     193122  itACCESS:          0  itHIT:          0  itMISS:          0  dtACCESS:          0  dtHIT:          0  dtMISS:          0
cpu0_STLB RFO          ACCESS:          0  HIT:          0  MISS:          0  iACCESS:          0  iHIT:          0  iMISS:          0  dACCESS:          0  dHIT:          0  dMISS:          0  itACCESS:          0  itHIT:          0  itMISS:          0  dtACCESS:          0  dtHIT:          0  dtMISS:          0
cpu0_STLB PREFETCH     ACCESS:          0  HIT:          0  MISS:          0  iACCESS:          0  iHIT:          0  iMISS:          0  dACCESS:          0  dHIT:          0  dMISS:          0  itACCESS:          0  itHIT:          0  itMISS:          0  dtACCESS:          0  dtHIT:          0  dtMISS:          0
cpu0_STLB WRITE        ACCESS:          0  HIT:          0  MISS:          0  iACCESS:          0  iHIT:          0  iMISS:          0  dACCESS:          0  dHIT:          0  dMISS:          0  itACCESS:          0  itHIT:          0  itMISS:          0  dtACCESS:          0  dtHIT:          0  dtMISS:          0
cpu0_STLB TRANSLATION  ACCESS:          0  HIT:          0  MISS:          0  iACCESS:          0  iHIT:          0  iMISS:          0  dACCESS:          0  dHIT:          0  dMISS:          0  itACCESS:          0  itHIT:          0  itMISS:          0  dtACCESS:          0  dtHIT:          0  dtMISS:          0
cpu0_STLB PREFETCH  REQUESTED:          0  ISSUED:          0  CROSSED:          0  USEFUL:          0  USELESS:          0
cpu0_STLB AVERAGE iMISS LATENCY: 57.3493 cycles
cpu0_STLB AVERAGE dMISS LATENCY: 189.143 cycles
cpu0_STLB AVERAGE itMISS LATENCY: 0 cycles
cpu0_STLB AVERAGE dtMISS LATENCY: 0 cycles
cpu0_STLB PAGE CROSSINGS (TLB HIT):         0 
cpu0_STLB PAGE CROSSINGS (TLB MISS):         0 
cpu0_STLB AVERAGE MISS LATENCY: 246.492 cycles
cpu0_L1D TOTAL       ACCESS:   48964324  HIT:   40911166  MISS:    8053158  iACCESS:          0  iHIT:          0  iMISS:          0  dACCESS:   48492158  dHIT:   40887817  dMISS:    7604341  itACCESS:     112359  itHIT:      10226  itMISS:     102133  dtACCESS:     359807  dtHIT:      13123  dtMISS:     346684
cpu0_L1D LOAD         ACCESS:   23436108  HIT:   19391647  MISS:    4044461  iACCESS:          0  iHIT:          0  iMISS:          0  dACCESS:   23436108  dHIT:   19391647  dMISS:    4044461  itACCESS:          0  itHIT:          0  itMISS:          0  dtACCESS:          0  dtHIT:          0  dtMISS:          0
cpu0_L1D RFO          ACCESS:          0  HIT:          0  MISS:          0  iACCESS:          0  iHIT:          0  iMISS:          0  dACCESS:          0  dHIT:          0  dMISS:          0  itACCESS:          0  itHIT:          0  itMISS:          0  dtACCESS:          0  dtHIT:          0  dtMISS:          0
cpu0_L1D PREFETCH     ACCESS:   15188889  HIT:   12418235  MISS:    2770654  iACCESS:          0  iHIT:          0  iMISS:          0  dACCESS:   15188889  dHIT:   12418235  dMISS:    2770654  itACCESS:          0  itHIT:          0  itMISS:          0  dtACCESS:          0  dtHIT:          0  dtMISS:          0
cpu0_L1D WRITE        ACCESS:    9867161  HIT:    9077935  MISS:     789226  iACCESS:          0  iHIT:          0  iMISS:          0  dACCESS:    9867161  dHIT:    9077935  dMISS:     789226  itACCESS:          0  itHIT:          0  itMISS:          0  dtACCESS:          0  dtHIT:          0  dtMISS:          0
cpu0_L1D TRANSLATION  ACCESS:     472166  HIT:      23349  MISS:     448817  iACCESS:          0  iHIT:          0  iMISS:          0  dACCESS:          0  dHIT:          0  dMISS:          0  itACCESS:     112359  itHIT:      10226  itMISS:     102133  dtACCESS:     359807  dtHIT:      13123  dtMISS:     346684
cpu0_L1D PREFETCH  REQUESTED:   23436108  ISSUED:   19823202  CROSSED:          0  USEFUL:     342823  USELESS:    1106859
cpu0_L1D AVERAGE iMISS LATENCY: 0 cycles
cpu0_L1D AVERAGE dMISS LATENCY: 33.4405 cycles
cpu0_L1D AVERAGE itMISS LATENCY: 1.92431 cycles
cpu0_L1D AVERAGE dtMISS LATENCY: 6.25172 cycles
cpu0_L1D PAGE CROSSINGS (TLB HIT):         0 
cpu0_L1D PAGE CROSSINGS (TLB MISS):         0 
cpu0_L1D AVERAGE MISS LATENCY: 41.6165 cycles
cpu0_L2C TOTAL       ACCESS:    9197099  HIT:    5561394  MISS:    3635705  iACCESS:    3114567  iHIT:    1907759  iMISS:    1206808  dACCESS:    5715204  dHIT:    3608722  dMISS:    2106482  itACCESS:      94399  itHIT:      15677  itMISS:      78722  dtACCESS:     272929  dtHIT:      29236  dtMISS:     243693
cpu0_L2C LOAD         ACCESS:    3340084  HIT:    2454862  MISS:     885222  iACCESS:     695260  iHIT:     446883  iMISS:     248377  dACCESS:    2644824  dHIT:    2007979  dMISS:     636845  itACCESS:          0  itHIT:          0  itMISS:          0  dtACCESS:          0  dtHIT:          0  dtMISS:          0
cpu0_L2C RFO          ACCESS:     240235  HIT:     110047  MISS:     130188  iACCESS:          0  iHIT:          0  iMISS:          0  dACCESS:     240235  dHIT:     110047  dMISS:     130188  itACCESS:          0  itHIT:          0  itMISS:          0  dtACCESS:          0  dtHIT:          0  dtMISS:          0
cpu0_L2C PREFETCH     ACCESS:    4919606  HIT:    2624163  MISS:    2295443  iACCESS:    2419307  iHIT:    1460876  iMISS:     958431  dACCESS:    2500299  dHIT:    1163287  dMISS:    1337012  itACCESS:          0  itHIT:          0  itMISS:          0  dtACCESS:          0  dtHIT:          0  dtMISS:          0
cpu0_L2C WRITE        ACCESS:     329846  HIT:     327409  MISS:       2437  iACCESS:          0  iHIT:          0  iMISS:          0  dACCESS:     329846  dHIT:     327409  dMISS:       2437  itACCESS:          0  itHIT:          0  itMISS:          0  dtACCESS:          0  dtHIT:          0  dtMISS:          0
cpu0_L2C TRANSLATION  ACCESS:     367328  HIT:      44913  MISS:     322415  iACCESS:          0  iHIT:          0  iMISS:          0  dACCESS:          0  dHIT:          0  dMISS:          0  itACCESS:      94399  itHIT:      15677  itMISS:      78722  dtACCESS:     272929  dtHIT:      29236  dtMISS:     243693
cpu0_L2C PREFETCH  REQUESTED:    1230278  ISSUED:    1230239  CROSSED:          0  USEFUL:     277343  USELESS:     256064
cpu0_L2C AVERAGE iMISS LATENCY: 41.4358 cycles
cpu0_L2C AVERAGE dMISS LATENCY: 82.0702 cycles
cpu0_L2C AVERAGE itMISS LATENCY: 4.00635 cycles
cpu0_L2C AVERAGE dtMISS LATENCY: 13.101 cycles
cpu0_L2C PAGE CROSSINGS (TLB HIT):         0 
cpu0_L2C PAGE CROSSINGS (TLB MISS):         0 
cpu0_L2C AVERAGE MISS LATENCY: 140.614 cycles
LLC TOTAL       ACCESS:    3654252  HIT:    1086328  MISS:    2567924  iACCESS:    1139011  iHIT:     332985  iMISS:     806026  dACCESS:    2192826  dHIT:     722571  dMISS:    1470255  itACCESS:      78722  itHIT:       5984  itMISS:      72738  dtACCESS:     243693  dtHIT:      24788  dtMISS:     218905
LLC LOAD         ACCESS:     879569  HIT:     277100  MISS:     602469  iACCESS:     247470  iHIT:      78014  iMISS:     169456  dACCESS:     632099  dHIT:     199086  dMISS:     433013  itACCESS:          0  itHIT:          0  itMISS:          0  dtACCESS:          0  dtHIT:          0  dtMISS:          0
LLC RFO          ACCESS:     130185  HIT:      34575  MISS:      95610  iACCESS:          0  iHIT:          0  iMISS:          0  dACCESS:     130185  dHIT:      34575  dMISS:      95610  itACCESS:          0  itHIT:          0  itMISS:          0  dtACCESS:          0  dtHIT:          0  dtMISS:          0
LLC PREFETCH     ACCESS:    2136868  HIT:     567105  MISS:    1569763  iACCESS:     891541  iHIT:     254971  iMISS:     636570  dACCESS:    1245327  dHIT:     312134  dMISS:     933193  itACCESS:          0  itHIT:          0  itMISS:          0  dtACCESS:          0  dtHIT:          0  dtMISS:          0
LLC WRITE        ACCESS:     185215  HIT:     176776  MISS:       8439  iACCESS:          0  iHIT:          0  iMISS:          0  dACCESS:     185215  dHIT:     176776  dMISS:       8439  itACCESS:          0  itHIT:          0  itMISS:          0  dtACCESS:          0  dtHIT:          0  dtMISS:          0
LLC TRANSLATION  ACCESS:     322415  HIT:      30772  MISS:     291643  iACCESS:          0  iHIT:          0  iMISS:          0  dACCESS:          0  dHIT:          0  dMISS:          0  itACCESS:      78722  itHIT:       5984  itMISS:      72738  dtACCESS:     243693  dtHIT:      24788  dtMISS:     218905
LLC PREFETCH  REQUESTED:          0  ISSUED:          0  CROSSED:          0  USEFUL:          0  USELESS:          0
LLC AVERAGE iMISS LATENCY: 49.9187 cycles
LLC AVERAGE dMISS LATENCY: 101.57 cycles
LLC AVERAGE itMISS LATENCY: 5.06432 cycles
LLC AVERAGE dtMISS LATENCY: 16.6725 cycles
LLC PAGE CROSSINGS (TLB HIT):         0 
LLC PAGE CROSSINGS (TLB MISS):         0 
LLC AVERAGE MISS LATENCY: 173.226 cycles

PageTableWalker TOTAL       ACCESS:     180934  
PageTableWalker AVERAGE LATENCY: 6.57064 cycles
PageTableWalker TOTAL LATENCY: 1188851 cycles

DRAM Statistics
Channel 0
 RQ ROW_BUFFER_HIT:     536837
  ROW_BUFFER_MISS:    2008756
 AVG DBUS CONGESTED CYCLE:    3.65436
 WQ ROW_BUFFER_HIT:      56323
  ROW_BUFFER_MISS:      51850  FULL:          0

