last_page:0x200000000000000
VMEM_RES_CAP:0x100000
PAGE_SIZE:4096
LOG2_PAGE_SIZE:12
LOG2_PAGE_TABLE_SIZE:9
page_table_levels:5
WARNING: physical memory size is smaller than virtual memory size
FDiP enabled with aggresivity 16

*** ChampSim Multicore Out-of-Order Simulator ***

Warmup Instructions: 50000000
Simulation Instructions: 100000000
Number of CPUs: 1
Small page size: 4096
Large page size: 2097152

CPU 0 Bimodal branch predictor
Basic BTB sets: 1024 ways: 8 indirect buffer size: 4096 RAS size: 64
Instruction page size distrubution: 0
Loading instruction page size distribution from /home/bsc/bsc018186/scratch/itp_asplos25_AE/dump/smt_srv207_ap_srv298_ap_1024i.pdst
Data page size distrubution: 0
Loading data page size distribution from /home/bsc/bsc018186/scratch/itp_asplos25_AE/dump/smt_srv207_ap_srv298_ap_1024i.pdst
cpu0_L2C IP-based stride prefetcher
cpu0_L2C is using xPTP/LRU
	TLB_LOWER_STRESS_THRESHOLD:1
	TLB_UPPER_STRESS_THRESHOLD:4
	MIN_EVICTION_POSITION:4
cpu0_L1D next line prefetcher
cpu0_STLB using iTP with max lru@8
cpu0_STLB using iTP with instr@0 and data@2
Init sat counter with 3 bits (max:50).
cpu0_L1I next line prefetcher
Off-chip DRAM Size: 4 GiB Channels: 1 Width: 64-bit Data Rate: 3200 MT/s
Heartbeat CPU 0 instructions: 10000001 cycles: 2500382 heartbeat IPC: 3.99939 cumulative IPC: 3.99939 (Simulation time: 0 hr 0 min 37 sec) 
Heartbeat CPU 0 instructions: 20000001 cycles: 5000502 heartbeat IPC: 3.99981 cumulative IPC: 3.9996 (Simulation time: 0 hr 1 min 16 sec) 
Heartbeat CPU 0 instructions: 30000002 cycles: 7500612 heartbeat IPC: 3.99983 cumulative IPC: 3.99968 (Simulation time: 0 hr 1 min 56 sec) 
Heartbeat CPU 0 instructions: 40000000 cycles: 10000891 heartbeat IPC: 3.99956 cumulative IPC: 3.99965 (Simulation time: 0 hr 2 min 35 sec) 
Heartbeat CPU 0 instructions: 50000002 cycles: 12501071 heartbeat IPC: 3.99972 cumulative IPC: 3.99966 (Simulation time: 0 hr 3 min 15 sec) 
Warmup finished CPU 0 instructions: 50000002 cycles: 12501072 cumulative IPC: 3.99966 (Simulation time: 0 hr 3 min 15 sec) 

Warmup complete CPU 0 instructions: 50000002 cycles: 12501072 (Simulation time: 0 hr 3 min 15 sec) 

Heartbeat CPU 0 instructions: 60000003 cycles: 38645907 heartbeat IPC: 0.382485 cumulative IPC: 0.382485 (Simulation time: 0 hr 4 min 33 sec) 
Heartbeat CPU 0 instructions: 70000001 cycles: 64458889 heartbeat IPC: 0.387402 cumulative IPC: 0.384928 (Simulation time: 0 hr 5 min 51 sec) 
Heartbeat CPU 0 instructions: 80000000 cycles: 90961803 heartbeat IPC: 0.377317 cumulative IPC: 0.382357 (Simulation time: 0 hr 7 min 11 sec) 
Heartbeat CPU 0 instructions: 90000003 cycles: 117987258 heartbeat IPC: 0.370022 cumulative IPC: 0.379197 (Simulation time: 0 hr 8 min 31 sec) 
Heartbeat CPU 0 instructions: 100000003 cycles: 144094981 heartbeat IPC: 0.383029 cumulative IPC: 0.379957 (Simulation time: 0 hr 9 min 50 sec) 
Heartbeat CPU 0 instructions: 110000001 cycles: 170552625 heartbeat IPC: 0.377963 cumulative IPC: 0.379623 (Simulation time: 0 hr 11 min 9 sec) 
Heartbeat CPU 0 instructions: 120000000 cycles: 196617378 heartbeat IPC: 0.38366 cumulative IPC: 0.380195 (Simulation time: 0 hr 12 min 28 sec) 
Heartbeat CPU 0 instructions: 130000003 cycles: 223264913 heartbeat IPC: 0.37527 cumulative IPC: 0.379572 (Simulation time: 0 hr 13 min 48 sec) 
Heartbeat CPU 0 instructions: 140000002 cycles: 250859050 heartbeat IPC: 0.362396 cumulative IPC: 0.377584 (Simulation time: 0 hr 15 min 10 sec) 
Heartbeat CPU 0 instructions: 150000002 cycles: 277532469 heartbeat IPC: 0.374906 cumulative IPC: 0.377314 (Simulation time: 0 hr 16 min 30 sec) 
Simulation finished CPU 0 instructions: 100000000 cycles: 265031398 cumulative IPC: 0.377314 (Simulation time: 0 hr 16 min 30 sec) 

Simulation complete CPU 0 instructions: 100000000 cycles: 265031398 (Simulation time: 0 hr 16 min 30 sec) 


ChampSim completed all CPUs

Saving instructions large page distribution to /home/bsc/bsc018186/scratch/itp_asplos25_AE/dump/smt_srv207_ap_srv298_ap_1024i.pdst...
Saving data large page distribution to /home/bsc/bsc018186/scratch/itp_asplos25_AE/dump/smt_srv207_ap_srv298_ap_1024i.pdst...
=== Simulation ===
CPU 0 runs /gpfs/projects/bsc18/MN4/bsc18/romol/ChampSim/traces/qualcomm_srv/smt_srv207_ap_srv298_ap_1024i.champsimtrace.xz

Region of Interest Statistics

CPU 0 cumulative IPC: 0.377314 instructions: 100000000 cycles: 265031398
CPU 0 Branch Prediction Accuracy: 75.5505% MPKI: 43.964 Average ROB Occupancy at Mispredict: 11.2869
Branch type MPKI
BRANCH_DIRECT_JUMP: 1.3281
BRANCH_INDIRECT: 23.3394
BRANCH_CONDITIONAL: 12.3548
BRANCH_DIRECT_CALL: 2.50712
BRANCH_INDIRECT_CALL: 0.948321
BRANCH_RETURN: 3.48622

Instructions large pages: 0
Instructions small pages: 15016
Large page distribution for instructions: 0%

Data large pages: 0
Data small pages: 13640
Large page distribution for data: 0%

cpu0_L1I TOTAL       ACCESS:   39013086  HIT:   30071584  MISS:    8941502  iACCESS:   39013086  iHIT:   30071584  iMISS:    8941502  dACCESS:          0  dHIT:          0  dMISS:          0  itACCESS:          0  itHIT:          0  itMISS:          0  dtACCESS:          0  dtHIT:          0  dtMISS:          0
cpu0_L1I LOAD         ACCESS:   11583947  HIT:    9137560  MISS:    2446387  iACCESS:   11583947  iHIT:    9137560  iMISS:    2446387  dACCESS:          0  dHIT:          0  dMISS:          0  itACCESS:          0  itHIT:          0  itMISS:          0  dtACCESS:          0  dtHIT:          0  dtMISS:          0
cpu0_L1I RFO          ACCESS:          0  HIT:          0  MISS:          0  iACCESS:          0  iHIT:          0  iMISS:          0  dACCESS:          0  dHIT:          0  dMISS:          0  itACCESS:          0  itHIT:          0  itMISS:          0  dtACCESS:          0  dtHIT:          0  dtMISS:          0
cpu0_L1I PREFETCH     ACCESS:   27429139  HIT:   20934024  MISS:    6495115  iACCESS:   27429139  iHIT:   20934024  iMISS:    6495115  dACCESS:          0  dHIT:          0  dMISS:          0  itACCESS:          0  itHIT:          0  itMISS:          0  dtACCESS:          0  dtHIT:          0  dtMISS:          0
cpu0_L1I WRITE        ACCESS:          0  HIT:          0  MISS:          0  iACCESS:          0  iHIT:          0  iMISS:          0  dACCESS:          0  dHIT:          0  dMISS:          0  itACCESS:          0  itHIT:          0  itMISS:          0  dtACCESS:          0  dtHIT:          0  dtMISS:          0
cpu0_L1I TRANSLATION  ACCESS:          0  HIT:          0  MISS:          0  iACCESS:          0  iHIT:          0  iMISS:          0  dACCESS:          0  dHIT:          0  dMISS:          0  itACCESS:          0  itHIT:          0  itMISS:          0  dtACCESS:          0  dtHIT:          0  dtMISS:          0
cpu0_L1I PREFETCH  REQUESTED:   30092113  ISSUED:   30091910  CROSSED:          0  USEFUL:    2186906  USELESS:     777334
cpu0_L1I AVERAGE iMISS LATENCY: 22.1236 cycles
cpu0_L1I AVERAGE dMISS LATENCY: 0 cycles
cpu0_L1I AVERAGE itMISS LATENCY: 0 cycles
cpu0_L1I AVERAGE dtMISS LATENCY: 0 cycles
cpu0_L1I PAGE CROSSINGS (TLB HIT):         0 
cpu0_L1I PAGE CROSSINGS (TLB MISS):         0 
cpu0_L1I AVERAGE MISS LATENCY: 22.1236 cycles
cpu0_ITLB TOTAL       ACCESS:   32935215  HIT:   30710427  MISS:    2224788  iACCESS:   32935215  iHIT:   30710427  iMISS:    2224788  dACCESS:          0  dHIT:          0  dMISS:          0  itACCESS:          0  itHIT:          0  itMISS:          0  dtACCESS:          0  dtHIT:          0  dtMISS:          0
cpu0_ITLB LOAD         ACCESS:   32935215  HIT:   30710427  MISS:    2224788  iACCESS:   32935215  iHIT:   30710427  iMISS:    2224788  dACCESS:          0  dHIT:          0  dMISS:          0  itACCESS:          0  itHIT:          0  itMISS:          0  dtACCESS:          0  dtHIT:          0  dtMISS:          0
cpu0_ITLB RFO          ACCESS:          0  HIT:          0  MISS:          0  iACCESS:          0  iHIT:          0  iMISS:          0  dACCESS:          0  dHIT:          0  dMISS:          0  itACCESS:          0  itHIT:          0  itMISS:          0  dtACCESS:          0  dtHIT:          0  dtMISS:          0
cpu0_ITLB PREFETCH     ACCESS:          0  HIT:          0  MISS:          0  iACCESS:          0  iHIT:          0  iMISS:          0  dACCESS:          0  dHIT:          0  dMISS:          0  itACCESS:          0  itHIT:          0  itMISS:          0  dtACCESS:          0  dtHIT:          0  dtMISS:          0
cpu0_ITLB WRITE        ACCESS:          0  HIT:          0  MISS:          0  iACCESS:          0  iHIT:          0  iMISS:          0  dACCESS:          0  dHIT:          0  dMISS:          0  itACCESS:          0  itHIT:          0  itMISS:          0  dtACCESS:          0  dtHIT:          0  dtMISS:          0
cpu0_ITLB TRANSLATION  ACCESS:          0  HIT:          0  MISS:          0  iACCESS:          0  iHIT:          0  iMISS:          0  dACCESS:          0  dHIT:          0  dMISS:          0  itACCESS:          0  itHIT:          0  itMISS:          0  dtACCESS:          0  dtHIT:          0  dtMISS:          0
cpu0_ITLB PREFETCH  REQUESTED:          0  ISSUED:          0  CROSSED:          0  USEFUL:     392236  USELESS:      79911
cpu0_ITLB AVERAGE iMISS LATENCY: 5.46142 cycles
cpu0_ITLB AVERAGE dMISS LATENCY: 0 cycles
cpu0_ITLB AVERAGE itMISS LATENCY: 0 cycles
cpu0_ITLB AVERAGE dtMISS LATENCY: 0 cycles
cpu0_ITLB PAGE CROSSINGS (TLB HIT):         0 
cpu0_ITLB PAGE CROSSINGS (TLB MISS):         0 
cpu0_ITLB AVERAGE MISS LATENCY: 5.46142 cycles
cpu0_DTLB TOTAL       ACCESS:   29140867  HIT:   25505108  MISS:    3635759  iACCESS:          0  iHIT:          0  iMISS:          0  dACCESS:   29140867  dHIT:   25505108  dMISS:    3635759  itACCESS:          0  itHIT:          0  itMISS:          0  dtACCESS:          0  dtHIT:          0  dtMISS:          0
cpu0_DTLB LOAD         ACCESS:   29140867  HIT:   25505108  MISS:    3635759  iACCESS:          0  iHIT:          0  iMISS:          0  dACCESS:   29140867  dHIT:   25505108  dMISS:    3635759  itACCESS:          0  itHIT:          0  itMISS:          0  dtACCESS:          0  dtHIT:          0  dtMISS:          0
cpu0_DTLB RFO          ACCESS:          0  HIT:          0  MISS:          0  iACCESS:          0  iHIT:          0  iMISS:          0  dACCESS:          0  dHIT:          0  dMISS:          0  itACCESS:          0  itHIT:          0  itMISS:          0  dtACCESS:          0  dtHIT:          0  dtMISS:          0
cpu0_DTLB PREFETCH     ACCESS:          0  HIT:          0  MISS:          0  iACCESS:          0  iHIT:          0  iMISS:          0  dACCESS:          0  dHIT:          0  dMISS:          0  itACCESS:          0  itHIT:          0  itMISS:          0  dtACCESS:          0  dtHIT:          0  dtMISS:          0
cpu0_DTLB WRITE        ACCESS:          0  HIT:          0  MISS:          0  iACCESS:          0  iHIT:          0  iMISS:          0  dACCESS:          0  dHIT:          0  dMISS:          0  itACCESS:          0  itHIT:          0  itMISS:          0  dtACCESS:          0  dtHIT:          0  dtMISS:          0
cpu0_DTLB TRANSLATION  ACCESS:          0  HIT:          0  MISS:          0  iACCESS:          0  iHIT:          0  iMISS:          0  dACCESS:          0  dHIT:          0  dMISS:          0  itACCESS:          0  itHIT:          0  itMISS:          0  dtACCESS:          0  dtHIT:          0  dtMISS:          0
cpu0_DTLB PREFETCH  REQUESTED:          0  ISSUED:          0  CROSSED:          0  USEFUL:          0  USELESS:          0
cpu0_DTLB AVERAGE iMISS LATENCY: 0 cycles
cpu0_DTLB AVERAGE dMISS LATENCY: 18.5326 cycles
cpu0_DTLB AVERAGE itMISS LATENCY: 0 cycles
cpu0_DTLB AVERAGE dtMISS LATENCY: 0 cycles
cpu0_DTLB PAGE CROSSINGS (TLB HIT):         0 
cpu0_DTLB PAGE CROSSINGS (TLB MISS):         0 
cpu0_DTLB AVERAGE MISS LATENCY: 18.5326 cycles
cpu0_STLB TOTAL       ACCESS:    2581509  HIT:    2215027  MISS:     366482  iACCESS:     472151  iHIT:     418918  iMISS:      53233  dACCESS:    2109358  dHIT:    1796109  dMISS:     313249  itACCESS:          0  itHIT:          0  itMISS:          0  dtACCESS:          0  dtHIT:          0  dtMISS:          0
cpu0_STLB LOAD         ACCESS:    2581509  HIT:    2215027  MISS:     366482  iACCESS:     472151  iHIT:     418918  iMISS:      53233  dACCESS:    2109358  dHIT:    1796109  dMISS:     313249  itACCESS:          0  itHIT:          0  itMISS:          0  dtACCESS:          0  dtHIT:          0  dtMISS:          0
cpu0_STLB RFO          ACCESS:          0  HIT:          0  MISS:          0  iACCESS:          0  iHIT:          0  iMISS:          0  dACCESS:          0  dHIT:          0  dMISS:          0  itACCESS:          0  itHIT:          0  itMISS:          0  dtACCESS:          0  dtHIT:          0  dtMISS:          0
cpu0_STLB PREFETCH     ACCESS:          0  HIT:          0  MISS:          0  iACCESS:          0  iHIT:          0  iMISS:          0  dACCESS:          0  dHIT:          0  dMISS:          0  itACCESS:          0  itHIT:          0  itMISS:          0  dtACCESS:          0  dtHIT:          0  dtMISS:          0
cpu0_STLB WRITE        ACCESS:          0  HIT:          0  MISS:          0  iACCESS:          0  iHIT:          0  iMISS:          0  dACCESS:          0  dHIT:          0  dMISS:          0  itACCESS:          0  itHIT:          0  itMISS:          0  dtACCESS:          0  dtHIT:          0  dtMISS:          0
cpu0_STLB TRANSLATION  ACCESS:          0  HIT:          0  MISS:          0  iACCESS:          0  iHIT:          0  iMISS:          0  dACCESS:          0  dHIT:          0  dMISS:          0  itACCESS:          0  itHIT:          0  itMISS:          0  dtACCESS:          0  dtHIT:          0  dtMISS:          0
cpu0_STLB PREFETCH  REQUESTED:          0  ISSUED:          0  CROSSED:          0  USEFUL:          0  USELESS:          0
cpu0_STLB AVERAGE iMISS LATENCY: 23.0452 cycles
cpu0_STLB AVERAGE dMISS LATENCY: 137.452 cycles
cpu0_STLB AVERAGE itMISS LATENCY: 0 cycles
cpu0_STLB AVERAGE dtMISS LATENCY: 0 cycles
cpu0_STLB PAGE CROSSINGS (TLB HIT):         0 
cpu0_STLB PAGE CROSSINGS (TLB MISS):         0 
cpu0_STLB AVERAGE MISS LATENCY: 160.497 cycles
cpu0_L1D TOTAL       ACCESS:   45061361  HIT:   39490501  MISS:    5570860  iACCESS:          0  iHIT:          0  iMISS:          0  dACCESS:   44497410  dHIT:   39460341  dMISS:    5037069  itACCESS:      64157  itHIT:       5480  itMISS:      58677  dtACCESS:     499794  dtHIT:      24680  dtMISS:     475114
cpu0_L1D LOAD         ACCESS:   20373376  HIT:   18099044  MISS:    2274332  iACCESS:          0  iHIT:          0  iMISS:          0  dACCESS:   20373376  dHIT:   18099044  dMISS:    2274332  itACCESS:          0  itHIT:          0  itMISS:          0  dtACCESS:          0  dtHIT:          0  dtMISS:          0
cpu0_L1D RFO          ACCESS:          0  HIT:          0  MISS:          0  iACCESS:          0  iHIT:          0  iMISS:          0  dACCESS:          0  dHIT:          0  dMISS:          0  itACCESS:          0  itHIT:          0  itMISS:          0  dtACCESS:          0  dtHIT:          0  dtMISS:          0
cpu0_L1D PREFETCH     ACCESS:   13987353  HIT:   11810124  MISS:    2177229  iACCESS:          0  iHIT:          0  iMISS:          0  dACCESS:   13987353  dHIT:   11810124  dMISS:    2177229  itACCESS:          0  itHIT:          0  itMISS:          0  dtACCESS:          0  dtHIT:          0  dtMISS:          0
cpu0_L1D WRITE        ACCESS:   10136681  HIT:    9551173  MISS:     585508  iACCESS:          0  iHIT:          0  iMISS:          0  dACCESS:   10136681  dHIT:    9551173  dMISS:     585508  itACCESS:          0  itHIT:          0  itMISS:          0  dtACCESS:          0  dtHIT:          0  dtMISS:          0
cpu0_L1D TRANSLATION  ACCESS:     563951  HIT:      30160  MISS:     533791  iACCESS:          0  iHIT:          0  iMISS:          0  dACCESS:          0  dHIT:          0  dMISS:          0  itACCESS:      64157  itHIT:       5480  itMISS:      58677  dtACCESS:     499794  dtHIT:      24680  dtMISS:     475114
cpu0_L1D PREFETCH  REQUESTED:   20373376  ISSUED:   18713297  CROSSED:          0  USEFUL:     378611  USELESS:     955456
cpu0_L1D AVERAGE iMISS LATENCY: 0 cycles
cpu0_L1D AVERAGE dMISS LATENCY: 48.826 cycles
cpu0_L1D AVERAGE itMISS LATENCY: 1.41637 cycles
cpu0_L1D AVERAGE dtMISS LATENCY: 8.02246 cycles
cpu0_L1D PAGE CROSSINGS (TLB HIT):         0 
cpu0_L1D PAGE CROSSINGS (TLB MISS):         0 
cpu0_L1D AVERAGE MISS LATENCY: 58.2648 cycles
cpu0_L2C TOTAL       ACCESS:    8682740  HIT:    2465427  MISS:    6217313  iACCESS:    3774835  iHIT:    1368340  iMISS:    2406495  dACCESS:    4402364  dHIT:     865453  dMISS:    3536911  itACCESS:      58022  itHIT:      14690  itMISS:      43332  dtACCESS:     447519  dtHIT:     216944  dtMISS:     230575
cpu0_L2C LOAD         ACCESS:    2094412  HIT:     482542  MISS:    1611870  iACCESS:     844890  iHIT:     276712  iMISS:     568178  dACCESS:    1249522  dHIT:     205830  dMISS:    1043692  itACCESS:          0  itHIT:          0  itMISS:          0  dtACCESS:          0  dtHIT:          0  dtMISS:          0
cpu0_L2C RFO          ACCESS:     220483  HIT:      31543  MISS:     188940  iACCESS:          0  iHIT:          0  iMISS:          0  dACCESS:     220483  dHIT:      31543  dMISS:     188940  itACCESS:          0  itHIT:          0  itMISS:          0  dtACCESS:          0  dtHIT:          0  dtMISS:          0
cpu0_L2C PREFETCH     ACCESS:    5507962  HIT:    1590991  MISS:    3916971  iACCESS:    2929945  iHIT:    1091628  iMISS:    1838317  dACCESS:    2578017  dHIT:     499363  dMISS:    2078654  itACCESS:          0  itHIT:          0  itMISS:          0  dtACCESS:          0  dtHIT:          0  dtMISS:          0
cpu0_L2C WRITE        ACCESS:     354342  HIT:     128717  MISS:     225625  iACCESS:          0  iHIT:          0  iMISS:          0  dACCESS:     354342  dHIT:     128717  dMISS:     225625  itACCESS:          0  itHIT:          0  itMISS:          0  dtACCESS:          0  dtHIT:          0  dtMISS:          0
cpu0_L2C TRANSLATION  ACCESS:     505541  HIT:     231634  MISS:     273907  iACCESS:          0  iHIT:          0  iMISS:          0  dACCESS:          0  dHIT:          0  dMISS:          0  itACCESS:      58022  itHIT:      14690  itMISS:      43332  dtACCESS:     447519  dtHIT:     216944  dtMISS:     230575
cpu0_L2C PREFETCH  REQUESTED:    1483373  ISSUED:    1483372  CROSSED:          0  USEFUL:     369378  USELESS:     442557
cpu0_L2C AVERAGE iMISS LATENCY: 26.6215 cycles
cpu0_L2C AVERAGE dMISS LATENCY: 52.9499 cycles
cpu0_L2C AVERAGE itMISS LATENCY: 1.17789 cycles
cpu0_L2C AVERAGE dtMISS LATENCY: 6.50009 cycles
cpu0_L2C PAGE CROSSINGS (TLB HIT):         0 
cpu0_L2C PAGE CROSSINGS (TLB MISS):         0 
cpu0_L2C AVERAGE MISS LATENCY: 87.2492 cycles
LLC TOTAL       ACCESS:    6080519  HIT:    3579160  MISS:    2501359  iACCESS:    2322651  iHIT:    1565720  iMISS:     756931  dACCESS:    3483961  dHIT:    1966524  dMISS:    1517437  itACCESS:      43332  itHIT:       7219  itMISS:      36113  dtACCESS:     230575  dtHIT:      39697  dtMISS:     190878
LLC LOAD         ACCESS:    1605428  HIT:     997775  MISS:     607653  iACCESS:     566899  iHIT:     409407  iMISS:     157492  dACCESS:    1038529  dHIT:     588368  dMISS:     450161  itACCESS:          0  itHIT:          0  itMISS:          0  dtACCESS:          0  dtHIT:          0  dtMISS:          0
LLC RFO          ACCESS:     188933  HIT:     104187  MISS:      84746  iACCESS:          0  iHIT:          0  iMISS:          0  dACCESS:     188933  dHIT:     104187  dMISS:      84746  itACCESS:          0  itHIT:          0  itMISS:          0  dtACCESS:          0  dtHIT:          0  dtMISS:          0
LLC PREFETCH     ACCESS:    3727662  HIT:    2150084  MISS:    1577578  iACCESS:    1755752  iHIT:    1156313  iMISS:     599439  dACCESS:    1971910  dHIT:     993771  dMISS:     978139  itACCESS:          0  itHIT:          0  itMISS:          0  dtACCESS:          0  dtHIT:          0  dtMISS:          0
LLC WRITE        ACCESS:     284589  HIT:     280198  MISS:       4391  iACCESS:          0  iHIT:          0  iMISS:          0  dACCESS:     284589  dHIT:     280198  dMISS:       4391  itACCESS:          0  itHIT:          0  itMISS:          0  dtACCESS:          0  dtHIT:          0  dtMISS:          0
LLC TRANSLATION  ACCESS:     273907  HIT:      46916  MISS:     226991  iACCESS:          0  iHIT:          0  iMISS:          0  dACCESS:          0  dHIT:          0  dMISS:          0  itACCESS:      43332  itHIT:       7219  itMISS:      36113  dtACCESS:     230575  dtHIT:      39697  dtMISS:     190878
LLC PREFETCH  REQUESTED:          0  ISSUED:          0  CROSSED:          0  USEFUL:          0  USELESS:          0
LLC AVERAGE iMISS LATENCY: 48.1229 cycles
LLC AVERAGE dMISS LATENCY: 107.352 cycles
LLC AVERAGE itMISS LATENCY: 2.58555 cycles
LLC AVERAGE dtMISS LATENCY: 14.3358 cycles
LLC PAGE CROSSINGS (TLB HIT):         0 
LLC PAGE CROSSINGS (TLB MISS):         0 
LLC AVERAGE MISS LATENCY: 172.397 cycles

PageTableWalker TOTAL       ACCESS:     178927  
PageTableWalker AVERAGE LATENCY: 6.04538 cycles
PageTableWalker TOTAL LATENCY: 1081680 cycles

DRAM Statistics
Channel 0
 RQ ROW_BUFFER_HIT:     544577
  ROW_BUFFER_MISS:    1942417
 AVG DBUS CONGESTED CYCLE:    3.64927
 WQ ROW_BUFFER_HIT:      63799
  ROW_BUFFER_MISS:      61511  FULL:          0

