last_page:0x200000000000000
VMEM_RES_CAP:0x100000
PAGE_SIZE:4096
LOG2_PAGE_SIZE:12
LOG2_PAGE_TABLE_SIZE:9
page_table_levels:5
WARNING: physical memory size is smaller than virtual memory size
FDiP enabled with aggresivity 16

*** ChampSim Multicore Out-of-Order Simulator ***

Warmup Instructions: 50000000
Simulation Instructions: 100000000
Number of CPUs: 1
Small page size: 4096
Large page size: 2097152

CPU 0 Bimodal branch predictor
Basic BTB sets: 1024 ways: 8 indirect buffer size: 4096 RAS size: 64
Instruction page size distrubution: 0
Loading instruction page size distribution from /home/bsc/bsc018186/scratch/itp_asplos25_AE/dump/smt_srv85_ap_srv128_ap_1024i.pdst
Data page size distrubution: 0
Loading data page size distribution from /home/bsc/bsc018186/scratch/itp_asplos25_AE/dump/smt_srv85_ap_srv128_ap_1024i.pdst
cpu0_L2C IP-based stride prefetcher
cpu0_L1D next line prefetcher
cpu0_STLB using iTP with max lru@8
cpu0_STLB using iTP with instr@0 and data@2
Init sat counter with 3 bits (max:50).
cpu0_L1I next line prefetcher
Off-chip DRAM Size: 4 GiB Channels: 1 Width: 64-bit Data Rate: 3200 MT/s
Heartbeat CPU 0 instructions: 10000002 cycles: 2500473 heartbeat IPC: 3.99925 cumulative IPC: 3.99925 (Simulation time: 0 hr 0 min 35 sec) 
Heartbeat CPU 0 instructions: 20000000 cycles: 5077197 heartbeat IPC: 3.8809 cumulative IPC: 3.93919 (Simulation time: 0 hr 1 min 14 sec) 
Heartbeat CPU 0 instructions: 30000002 cycles: 7620235 heartbeat IPC: 3.93231 cumulative IPC: 3.93689 (Simulation time: 0 hr 1 min 54 sec) 
Heartbeat CPU 0 instructions: 40000003 cycles: 10158062 heartbeat IPC: 3.94038 cumulative IPC: 3.93776 (Simulation time: 0 hr 2 min 33 sec) 
Heartbeat CPU 0 instructions: 50000003 cycles: 12658302 heartbeat IPC: 3.99962 cumulative IPC: 3.94998 (Simulation time: 0 hr 3 min 12 sec) 
Warmup finished CPU 0 instructions: 50000003 cycles: 12658303 cumulative IPC: 3.94998 (Simulation time: 0 hr 3 min 12 sec) 

Warmup complete CPU 0 instructions: 50000003 cycles: 12658303 (Simulation time: 0 hr 3 min 12 sec) 

Heartbeat CPU 0 instructions: 60000000 cycles: 42756116 heartbeat IPC: 0.33225 cumulative IPC: 0.33225 (Simulation time: 0 hr 4 min 33 sec) 
Heartbeat CPU 0 instructions: 70000000 cycles: 72782072 heartbeat IPC: 0.333046 cumulative IPC: 0.332648 (Simulation time: 0 hr 5 min 54 sec) 
Heartbeat CPU 0 instructions: 80000002 cycles: 103354991 heartbeat IPC: 0.327087 cumulative IPC: 0.330773 (Simulation time: 0 hr 7 min 15 sec) 
Heartbeat CPU 0 instructions: 90000002 cycles: 133291452 heartbeat IPC: 0.334041 cumulative IPC: 0.331584 (Simulation time: 0 hr 8 min 36 sec) 
Heartbeat CPU 0 instructions: 100000000 cycles: 164463511 heartbeat IPC: 0.320801 cumulative IPC: 0.32937 (Simulation time: 0 hr 9 min 59 sec) 
Heartbeat CPU 0 instructions: 110000000 cycles: 194795759 heartbeat IPC: 0.329683 cumulative IPC: 0.329422 (Simulation time: 0 hr 11 min 21 sec) 
Heartbeat CPU 0 instructions: 120000000 cycles: 225872416 heartbeat IPC: 0.321785 cumulative IPC: 0.328309 (Simulation time: 0 hr 12 min 44 sec) 
Heartbeat CPU 0 instructions: 130000000 cycles: 256249798 heartbeat IPC: 0.329193 cumulative IPC: 0.328419 (Simulation time: 0 hr 14 min 6 sec) 
Heartbeat CPU 0 instructions: 140000004 cycles: 286758343 heartbeat IPC: 0.327778 cumulative IPC: 0.328348 (Simulation time: 0 hr 15 min 28 sec) 
Heartbeat CPU 0 instructions: 150000000 cycles: 318166898 heartbeat IPC: 0.318385 cumulative IPC: 0.327324 (Simulation time: 0 hr 16 min 51 sec) 
Simulation finished CPU 0 instructions: 100000002 cycles: 305508597 cumulative IPC: 0.327324 (Simulation time: 0 hr 16 min 51 sec) 

Simulation complete CPU 0 instructions: 100000002 cycles: 305508597 (Simulation time: 0 hr 16 min 51 sec) 


ChampSim completed all CPUs

Saving instructions large page distribution to /home/bsc/bsc018186/scratch/itp_asplos25_AE/dump/smt_srv85_ap_srv128_ap_1024i.pdst...
Saving data large page distribution to /home/bsc/bsc018186/scratch/itp_asplos25_AE/dump/smt_srv85_ap_srv128_ap_1024i.pdst...
=== Simulation ===
CPU 0 runs /gpfs/projects/bsc18/MN4/bsc18/romol/ChampSim/traces/qualcomm_srv/smt_srv85_ap_srv128_ap_1024i.champsimtrace.xz

Region of Interest Statistics

CPU 0 cumulative IPC: 0.327324 instructions: 100000002 cycles: 305508597
CPU 0 Branch Prediction Accuracy: 75.0492% MPKI: 44.9943 Average ROB Occupancy at Mispredict: 10.8603
Branch type MPKI
BRANCH_DIRECT_JUMP: 1.39321
BRANCH_INDIRECT: 23.3239
BRANCH_CONDITIONAL: 13.0686
BRANCH_DIRECT_CALL: 2.66733
BRANCH_INDIRECT_CALL: 1.0116
BRANCH_RETURN: 3.52962

Instructions large pages: 0
Instructions small pages: 10022
Large page distribution for instructions: 0%

Data large pages: 0
Data small pages: 8595
Large page distribution for data: 0%

cpu0_L1I TOTAL       ACCESS:   39238299  HIT:   30471426  MISS:    8766873  iACCESS:   39238299  iHIT:   30471426  iMISS:    8766873  dACCESS:          0  dHIT:          0  dMISS:          0  itACCESS:          0  itHIT:          0  itMISS:          0  dtACCESS:          0  dtHIT:          0  dtMISS:          0
cpu0_L1I LOAD         ACCESS:   11727463  HIT:    9340847  MISS:    2386616  iACCESS:   11727463  iHIT:    9340847  iMISS:    2386616  dACCESS:          0  dHIT:          0  dMISS:          0  itACCESS:          0  itHIT:          0  itMISS:          0  dtACCESS:          0  dtHIT:          0  dtMISS:          0
cpu0_L1I RFO          ACCESS:          0  HIT:          0  MISS:          0  iACCESS:          0  iHIT:          0  iMISS:          0  dACCESS:          0  dHIT:          0  dMISS:          0  itACCESS:          0  itHIT:          0  itMISS:          0  dtACCESS:          0  dtHIT:          0  dtMISS:          0
cpu0_L1I PREFETCH     ACCESS:   27510836  HIT:   21130579  MISS:    6380257  iACCESS:   27510836  iHIT:   21130579  iMISS:    6380257  dACCESS:          0  dHIT:          0  dMISS:          0  itACCESS:          0  itHIT:          0  itMISS:          0  dtACCESS:          0  dtHIT:          0  dtMISS:          0
cpu0_L1I WRITE        ACCESS:          0  HIT:          0  MISS:          0  iACCESS:          0  iHIT:          0  iMISS:          0  dACCESS:          0  dHIT:          0  dMISS:          0  itACCESS:          0  itHIT:          0  itMISS:          0  dtACCESS:          0  dtHIT:          0  dtMISS:          0
cpu0_L1I TRANSLATION  ACCESS:          0  HIT:          0  MISS:          0  iACCESS:          0  iHIT:          0  iMISS:          0  dACCESS:          0  dHIT:          0  dMISS:          0  itACCESS:          0  itHIT:          0  itMISS:          0  dtACCESS:          0  dtHIT:          0  dtMISS:          0
cpu0_L1I PREFETCH  REQUESTED:   30308036  ISSUED:   30307875  CROSSED:          0  USEFUL:    2222691  USELESS:     775428
cpu0_L1I AVERAGE iMISS LATENCY: 24.8299 cycles
cpu0_L1I AVERAGE dMISS LATENCY: 0 cycles
cpu0_L1I AVERAGE itMISS LATENCY: 0 cycles
cpu0_L1I AVERAGE dtMISS LATENCY: 0 cycles
cpu0_L1I PAGE CROSSINGS (TLB HIT):         0 
cpu0_L1I PAGE CROSSINGS (TLB MISS):         0 
cpu0_L1I AVERAGE MISS LATENCY: 24.8299 cycles
cpu0_ITLB TOTAL       ACCESS:   33243644  HIT:   30986595  MISS:    2257049  iACCESS:   33243644  iHIT:   30986595  iMISS:    2257049  dACCESS:          0  dHIT:          0  dMISS:          0  itACCESS:          0  itHIT:          0  itMISS:          0  dtACCESS:          0  dtHIT:          0  dtMISS:          0
cpu0_ITLB LOAD         ACCESS:   33243644  HIT:   30986595  MISS:    2257049  iACCESS:   33243644  iHIT:   30986595  iMISS:    2257049  dACCESS:          0  dHIT:          0  dMISS:          0  itACCESS:          0  itHIT:          0  itMISS:          0  dtACCESS:          0  dtHIT:          0  dtMISS:          0
cpu0_ITLB RFO          ACCESS:          0  HIT:          0  MISS:          0  iACCESS:          0  iHIT:          0  iMISS:          0  dACCESS:          0  dHIT:          0  dMISS:          0  itACCESS:          0  itHIT:          0  itMISS:          0  dtACCESS:          0  dtHIT:          0  dtMISS:          0
cpu0_ITLB PREFETCH     ACCESS:          0  HIT:          0  MISS:          0  iACCESS:          0  iHIT:          0  iMISS:          0  dACCESS:          0  dHIT:          0  dMISS:          0  itACCESS:          0  itHIT:          0  itMISS:          0  dtACCESS:          0  dtHIT:          0  dtMISS:          0
cpu0_ITLB WRITE        ACCESS:          0  HIT:          0  MISS:          0  iACCESS:          0  iHIT:          0  iMISS:          0  dACCESS:          0  dHIT:          0  dMISS:          0  itACCESS:          0  itHIT:          0  itMISS:          0  dtACCESS:          0  dtHIT:          0  dtMISS:          0
cpu0_ITLB TRANSLATION  ACCESS:          0  HIT:          0  MISS:          0  iACCESS:          0  iHIT:          0  iMISS:          0  dACCESS:          0  dHIT:          0  dMISS:          0  itACCESS:          0  itHIT:          0  itMISS:          0  dtACCESS:          0  dtHIT:          0  dtMISS:          0
cpu0_ITLB PREFETCH  REQUESTED:          0  ISSUED:          0  CROSSED:          0  USEFUL:     393449  USELESS:      81127
cpu0_ITLB AVERAGE iMISS LATENCY: 6.85324 cycles
cpu0_ITLB AVERAGE dMISS LATENCY: 0 cycles
cpu0_ITLB AVERAGE itMISS LATENCY: 0 cycles
cpu0_ITLB AVERAGE dtMISS LATENCY: 0 cycles
cpu0_ITLB PAGE CROSSINGS (TLB HIT):         0 
cpu0_ITLB PAGE CROSSINGS (TLB MISS):         0 
cpu0_ITLB AVERAGE MISS LATENCY: 6.85324 cycles
cpu0_DTLB TOTAL       ACCESS:   28862368  HIT:   25243968  MISS:    3618400  iACCESS:          0  iHIT:          0  iMISS:          0  dACCESS:   28862368  dHIT:   25243968  dMISS:    3618400  itACCESS:          0  itHIT:          0  itMISS:          0  dtACCESS:          0  dtHIT:          0  dtMISS:          0
cpu0_DTLB LOAD         ACCESS:   28862368  HIT:   25243968  MISS:    3618400  iACCESS:          0  iHIT:          0  iMISS:          0  dACCESS:   28862368  dHIT:   25243968  dMISS:    3618400  itACCESS:          0  itHIT:          0  itMISS:          0  dtACCESS:          0  dtHIT:          0  dtMISS:          0
cpu0_DTLB RFO          ACCESS:          0  HIT:          0  MISS:          0  iACCESS:          0  iHIT:          0  iMISS:          0  dACCESS:          0  dHIT:          0  dMISS:          0  itACCESS:          0  itHIT:          0  itMISS:          0  dtACCESS:          0  dtHIT:          0  dtMISS:          0
cpu0_DTLB PREFETCH     ACCESS:          0  HIT:          0  MISS:          0  iACCESS:          0  iHIT:          0  iMISS:          0  dACCESS:          0  dHIT:          0  dMISS:          0  itACCESS:          0  itHIT:          0  itMISS:          0  dtACCESS:          0  dtHIT:          0  dtMISS:          0
cpu0_DTLB WRITE        ACCESS:          0  HIT:          0  MISS:          0  iACCESS:          0  iHIT:          0  iMISS:          0  dACCESS:          0  dHIT:          0  dMISS:          0  itACCESS:          0  itHIT:          0  itMISS:          0  dtACCESS:          0  dtHIT:          0  dtMISS:          0
cpu0_DTLB TRANSLATION  ACCESS:          0  HIT:          0  MISS:          0  iACCESS:          0  iHIT:          0  iMISS:          0  dACCESS:          0  dHIT:          0  dMISS:          0  itACCESS:          0  itHIT:          0  itMISS:          0  dtACCESS:          0  dtHIT:          0  dtMISS:          0
cpu0_DTLB PREFETCH  REQUESTED:          0  ISSUED:          0  CROSSED:          0  USEFUL:          0  USELESS:          0
cpu0_DTLB AVERAGE iMISS LATENCY: 0 cycles
cpu0_DTLB AVERAGE dMISS LATENCY: 28.4163 cycles
cpu0_DTLB AVERAGE itMISS LATENCY: 0 cycles
cpu0_DTLB AVERAGE dtMISS LATENCY: 0 cycles
cpu0_DTLB PAGE CROSSINGS (TLB HIT):         0 
cpu0_DTLB PAGE CROSSINGS (TLB MISS):         0 
cpu0_DTLB AVERAGE MISS LATENCY: 28.4163 cycles
cpu0_STLB TOTAL       ACCESS:    2591553  HIT:    2210888  MISS:     380665  iACCESS:     474584  iHIT:     413572  iMISS:      61012  dACCESS:    2116969  dHIT:    1797316  dMISS:     319653  itACCESS:          0  itHIT:          0  itMISS:          0  dtACCESS:          0  dtHIT:          0  dtMISS:          0
cpu0_STLB LOAD         ACCESS:    2591553  HIT:    2210888  MISS:     380665  iACCESS:     474584  iHIT:     413572  iMISS:      61012  dACCESS:    2116969  dHIT:    1797316  dMISS:     319653  itACCESS:          0  itHIT:          0  itMISS:          0  dtACCESS:          0  dtHIT:          0  dtMISS:          0
cpu0_STLB RFO          ACCESS:          0  HIT:          0  MISS:          0  iACCESS:          0  iHIT:          0  iMISS:          0  dACCESS:          0  dHIT:          0  dMISS:          0  itACCESS:          0  itHIT:          0  itMISS:          0  dtACCESS:          0  dtHIT:          0  dtMISS:          0
cpu0_STLB PREFETCH     ACCESS:          0  HIT:          0  MISS:          0  iACCESS:          0  iHIT:          0  iMISS:          0  dACCESS:          0  dHIT:          0  dMISS:          0  itACCESS:          0  itHIT:          0  itMISS:          0  dtACCESS:          0  dtHIT:          0  dtMISS:          0
cpu0_STLB WRITE        ACCESS:          0  HIT:          0  MISS:          0  iACCESS:          0  iHIT:          0  iMISS:          0  dACCESS:          0  dHIT:          0  dMISS:          0  itACCESS:          0  itHIT:          0  itMISS:          0  dtACCESS:          0  dtHIT:          0  dtMISS:          0
cpu0_STLB TRANSLATION  ACCESS:          0  HIT:          0  MISS:          0  iACCESS:          0  iHIT:          0  iMISS:          0  dACCESS:          0  dHIT:          0  dMISS:          0  itACCESS:          0  itHIT:          0  itMISS:          0  dtACCESS:          0  dtHIT:          0  dtMISS:          0
cpu0_STLB PREFETCH  REQUESTED:          0  ISSUED:          0  CROSSED:          0  USEFUL:          0  USELESS:          0
cpu0_STLB AVERAGE iMISS LATENCY: 30.8205 cycles
cpu0_STLB AVERAGE dMISS LATENCY: 225.201 cycles
cpu0_STLB AVERAGE itMISS LATENCY: 0 cycles
cpu0_STLB AVERAGE dtMISS LATENCY: 0 cycles
cpu0_STLB PAGE CROSSINGS (TLB HIT):         0 
cpu0_STLB PAGE CROSSINGS (TLB MISS):         0 
cpu0_STLB AVERAGE MISS LATENCY: 256.021 cycles
cpu0_L1D TOTAL       ACCESS:   45058245  HIT:   39203208  MISS:    5855037  iACCESS:          0  iHIT:          0  iMISS:          0  dACCESS:   44468157  dHIT:   39174730  dMISS:    5293427  itACCESS:      71348  itHIT:       5256  itMISS:      66092  dtACCESS:     518740  dtHIT:      23222  dtMISS:     495518
cpu0_L1D LOAD         ACCESS:   20260612  HIT:   17899991  MISS:    2360621  iACCESS:          0  iHIT:          0  iMISS:          0  dACCESS:   20260612  dHIT:   17899991  dMISS:    2360621  itACCESS:          0  itHIT:          0  itMISS:          0  dtACCESS:          0  dtHIT:          0  dtMISS:          0
cpu0_L1D RFO          ACCESS:          0  HIT:          0  MISS:          0  iACCESS:          0  iHIT:          0  iMISS:          0  dACCESS:          0  dHIT:          0  dMISS:          0  itACCESS:          0  itHIT:          0  itMISS:          0  dtACCESS:          0  dtHIT:          0  dtMISS:          0
cpu0_L1D PREFETCH     ACCESS:   14036097  HIT:   11697771  MISS:    2338326  iACCESS:          0  iHIT:          0  iMISS:          0  dACCESS:   14036097  dHIT:   11697771  dMISS:    2338326  itACCESS:          0  itHIT:          0  itMISS:          0  dtACCESS:          0  dtHIT:          0  dtMISS:          0
cpu0_L1D WRITE        ACCESS:   10171448  HIT:    9576968  MISS:     594480  iACCESS:          0  iHIT:          0  iMISS:          0  dACCESS:   10171448  dHIT:    9576968  dMISS:     594480  itACCESS:          0  itHIT:          0  itMISS:          0  dtACCESS:          0  dtHIT:          0  dtMISS:          0
cpu0_L1D TRANSLATION  ACCESS:     590088  HIT:      28478  MISS:     561610  iACCESS:          0  iHIT:          0  iMISS:          0  dACCESS:          0  dHIT:          0  dMISS:          0  itACCESS:      71348  itHIT:       5256  itMISS:      66092  dtACCESS:     518740  dtHIT:      23222  dtMISS:     495518
cpu0_L1D PREFETCH  REQUESTED:   20260612  ISSUED:   18486905  CROSSED:          0  USEFUL:     359203  USELESS:     941739
cpu0_L1D AVERAGE iMISS LATENCY: 0 cycles
cpu0_L1D AVERAGE dMISS LATENCY: 49.8977 cycles
cpu0_L1D AVERAGE itMISS LATENCY: 1.89771 cycles
cpu0_L1D AVERAGE dtMISS LATENCY: 13.7501 cycles
cpu0_L1D PAGE CROSSINGS (TLB HIT):         0 
cpu0_L1D PAGE CROSSINGS (TLB MISS):         0 
cpu0_L1D AVERAGE MISS LATENCY: 65.5455 cycles
cpu0_L2C TOTAL       ACCESS:    8718843  HIT:    4208331  MISS:    4510512  iACCESS:    3814556  iHIT:    2315344  iMISS:    1499212  dACCESS:    4381946  dHIT:    1825901  dMISS:    2556045  itACCESS:      65611  itHIT:       9837  itMISS:      55774  dtACCESS:     456730  dtHIT:      57249  dtMISS:     399481
cpu0_L2C LOAD         ACCESS:    2077142  HIT:    1010627  MISS:    1066515  iACCESS:     854265  iHIT:     542652  iMISS:     311613  dACCESS:    1222877  dHIT:     467975  dMISS:     754902  itACCESS:          0  itHIT:          0  itMISS:          0  dtACCESS:          0  dtHIT:          0  dtMISS:          0
cpu0_L2C RFO          ACCESS:     217635  HIT:      84680  MISS:     132955  iACCESS:          0  iHIT:          0  iMISS:          0  dACCESS:     217635  dHIT:      84680  dMISS:     132955  itACCESS:          0  itHIT:          0  itMISS:          0  dtACCESS:          0  dtHIT:          0  dtMISS:          0
cpu0_L2C PREFETCH     ACCESS:    5554975  HIT:    2702631  MISS:    2852344  iACCESS:    2960291  iHIT:    1772692  iMISS:    1187599  dACCESS:    2594684  dHIT:     929939  dMISS:    1664745  itACCESS:          0  itHIT:          0  itMISS:          0  dtACCESS:          0  dtHIT:          0  dtMISS:          0
cpu0_L2C WRITE        ACCESS:     346750  HIT:     343307  MISS:       3443  iACCESS:          0  iHIT:          0  iMISS:          0  dACCESS:     346750  dHIT:     343307  dMISS:       3443  itACCESS:          0  itHIT:          0  itMISS:          0  dtACCESS:          0  dtHIT:          0  dtMISS:          0
cpu0_L2C TRANSLATION  ACCESS:     522341  HIT:      67086  MISS:     455255  iACCESS:          0  iHIT:          0  iMISS:          0  dACCESS:          0  dHIT:          0  dMISS:          0  itACCESS:      65611  itHIT:       9837  itMISS:      55774  dtACCESS:     456730  dtHIT:      57249  dtMISS:     399481
cpu0_L2C PREFETCH  REQUESTED:    1536617  ISSUED:    1536613  CROSSED:          0  USEFUL:     359617  USELESS:     327986
cpu0_L2C AVERAGE iMISS LATENCY: 41.2617 cycles
cpu0_L2C AVERAGE dMISS LATENCY: 80.7144 cycles
cpu0_L2C AVERAGE itMISS LATENCY: 2.31963 cycles
cpu0_L2C AVERAGE dtMISS LATENCY: 16.8429 cycles
cpu0_L2C PAGE CROSSINGS (TLB HIT):         0 
cpu0_L2C PAGE CROSSINGS (TLB MISS):         0 
cpu0_L2C AVERAGE MISS LATENCY: 141.139 cycles
LLC TOTAL       ACCESS:    4498180  HIT:    1307842  MISS:    3190338  iACCESS:    1407641  iHIT:     416165  iMISS:     991476  dACCESS:    2635284  dHIT:     839705  dMISS:    1795579  itACCESS:      55774  itHIT:       3520  itMISS:      52254  dtACCESS:     399481  dtHIT:      48452  dtMISS:     351029
LLC LOAD         ACCESS:    1058970  HIT:     323953  MISS:     735017  iACCESS:     310362  iHIT:      98385  iMISS:     211977  dACCESS:     748608  dHIT:     225568  dMISS:     523040  itACCESS:          0  itHIT:          0  itMISS:          0  dtACCESS:          0  dtHIT:          0  dtMISS:          0
LLC RFO          ACCESS:     132951  HIT:      38392  MISS:      94559  iACCESS:          0  iHIT:          0  iMISS:          0  dACCESS:     132951  dHIT:      38392  dMISS:      94559  itACCESS:          0  itHIT:          0  itMISS:          0  dtACCESS:          0  dtHIT:          0  dtMISS:          0
LLC PREFETCH     ACCESS:    2635340  HIT:     688069  MISS:    1947271  iACCESS:    1097279  iHIT:     317780  iMISS:     779499  dACCESS:    1538061  dHIT:     370289  dMISS:    1167772  itACCESS:          0  itHIT:          0  itMISS:          0  dtACCESS:          0  dtHIT:          0  dtMISS:          0
LLC WRITE        ACCESS:     215664  HIT:     205456  MISS:      10208  iACCESS:          0  iHIT:          0  iMISS:          0  dACCESS:     215664  dHIT:     205456  dMISS:      10208  itACCESS:          0  itHIT:          0  itMISS:          0  dtACCESS:          0  dtHIT:          0  dtMISS:          0
LLC TRANSLATION  ACCESS:     455255  HIT:      51972  MISS:     403283  iACCESS:          0  iHIT:          0  iMISS:          0  dACCESS:          0  dHIT:          0  dMISS:          0  itACCESS:      55774  itHIT:       3520  itMISS:      52254  dtACCESS:     399481  dtHIT:      48452  dtMISS:     351029
LLC PREFETCH  REQUESTED:          0  ISSUED:          0  CROSSED:          0  USEFUL:          0  USELESS:          0
LLC AVERAGE iMISS LATENCY: 49.6366 cycles
LLC AVERAGE dMISS LATENCY: 100.096 cycles
LLC AVERAGE itMISS LATENCY: 2.93255 cycles
LLC AVERAGE dtMISS LATENCY: 21.338 cycles
LLC PAGE CROSSINGS (TLB HIT):         0 
LLC PAGE CROSSINGS (TLB MISS):         0 
LLC AVERAGE MISS LATENCY: 174.004 cycles

PageTableWalker TOTAL       ACCESS:     140008  
PageTableWalker AVERAGE LATENCY: 6.77714 cycles
PageTableWalker TOTAL LATENCY: 948853 cycles

DRAM Statistics
Channel 0
 RQ ROW_BUFFER_HIT:     663737
  ROW_BUFFER_MISS:    2498400
 AVG DBUS CONGESTED CYCLE:    3.65411
 WQ ROW_BUFFER_HIT:      67819
  ROW_BUFFER_MISS:      59129  FULL:          0

