last_page:0x200000000000000
VMEM_RES_CAP:0x100000
PAGE_SIZE:4096
LOG2_PAGE_SIZE:12
LOG2_PAGE_TABLE_SIZE:9
page_table_levels:5
WARNING: physical memory size is smaller than virtual memory size
FDiP enabled with aggresivity 16

*** ChampSim Multicore Out-of-Order Simulator ***

Warmup Instructions: 50000000
Simulation Instructions: 100000000
Number of CPUs: 1
Small page size: 4096
Large page size: 2097152

CPU 0 Bimodal branch predictor
Basic BTB sets: 1024 ways: 8 indirect buffer size: 4096 RAS size: 64
Instruction page size distrubution: 0
Loading instruction page size distribution from /home/bsc/bsc018186/scratch/itp_asplos25_AE/dump/smt_srv207_ap_srv224_ap_1024i.pdst
Data page size distrubution: 0
Loading data page size distribution from /home/bsc/bsc018186/scratch/itp_asplos25_AE/dump/smt_srv207_ap_srv224_ap_1024i.pdst
cpu0_L2C IP-based stride prefetcher
cpu0_L1D next line prefetcher
CHiRPing...
cpu0_L1I next line prefetcher
Off-chip DRAM Size: 4 GiB Channels: 1 Width: 64-bit Data Rate: 3200 MT/s
Heartbeat CPU 0 instructions: 10000000 cycles: 2500657 heartbeat IPC: 3.99895 cumulative IPC: 3.99895 (Simulation time: 0 hr 0 min 40 sec) 
Heartbeat CPU 0 instructions: 20000002 cycles: 5000979 heartbeat IPC: 3.99949 cumulative IPC: 3.99922 (Simulation time: 0 hr 1 min 24 sec) 
Heartbeat CPU 0 instructions: 30000003 cycles: 7501335 heartbeat IPC: 3.99944 cumulative IPC: 3.99929 (Simulation time: 0 hr 2 min 9 sec) 
Heartbeat CPU 0 instructions: 40000003 cycles: 10048161 heartbeat IPC: 3.92646 cumulative IPC: 3.98083 (Simulation time: 0 hr 2 min 52 sec) 
Heartbeat CPU 0 instructions: 50000000 cycles: 12613806 heartbeat IPC: 3.89766 cumulative IPC: 3.96392 (Simulation time: 0 hr 3 min 37 sec) 
Warmup finished CPU 0 instructions: 50000000 cycles: 12613807 cumulative IPC: 3.96392 (Simulation time: 0 hr 3 min 37 sec) 

Warmup complete CPU 0 instructions: 50000000 cycles: 12613807 (Simulation time: 0 hr 3 min 37 sec) 

Heartbeat CPU 0 instructions: 60000002 cycles: 29323487 heartbeat IPC: 0.598456 cumulative IPC: 0.598456 (Simulation time: 0 hr 4 min 49 sec) 
Heartbeat CPU 0 instructions: 70000003 cycles: 56837481 heartbeat IPC: 0.363452 cumulative IPC: 0.452247 (Simulation time: 0 hr 6 min 13 sec) 
Heartbeat CPU 0 instructions: 80000002 cycles: 84554696 heartbeat IPC: 0.360787 cumulative IPC: 0.41701 (Simulation time: 0 hr 7 min 38 sec) 
Heartbeat CPU 0 instructions: 90000000 cycles: 113501176 heartbeat IPC: 0.345466 cumulative IPC: 0.396482 (Simulation time: 0 hr 9 min 4 sec) 
Heartbeat CPU 0 instructions: 100000000 cycles: 140821509 heartbeat IPC: 0.366028 cumulative IPC: 0.389993 (Simulation time: 0 hr 10 min 28 sec) 
Heartbeat CPU 0 instructions: 110000002 cycles: 168385653 heartbeat IPC: 0.362791 cumulative IPC: 0.385179 (Simulation time: 0 hr 11 min 52 sec) 
Heartbeat CPU 0 instructions: 120000002 cycles: 195780265 heartbeat IPC: 0.365036 cumulative IPC: 0.382167 (Simulation time: 0 hr 13 min 17 sec) 
Heartbeat CPU 0 instructions: 130000000 cycles: 223195222 heartbeat IPC: 0.364765 cumulative IPC: 0.379901 (Simulation time: 0 hr 14 min 41 sec) 
Heartbeat CPU 0 instructions: 140000002 cycles: 252041750 heartbeat IPC: 0.346663 cumulative IPC: 0.375896 (Simulation time: 0 hr 16 min 7 sec) 
Heartbeat CPU 0 instructions: 150000000 cycles: 279481484 heartbeat IPC: 0.364435 cumulative IPC: 0.374718 (Simulation time: 0 hr 17 min 31 sec) 
Simulation finished CPU 0 instructions: 100000000 cycles: 266867678 cumulative IPC: 0.374718 (Simulation time: 0 hr 17 min 31 sec) 

Simulation complete CPU 0 instructions: 100000000 cycles: 266867678 (Simulation time: 0 hr 17 min 31 sec) 


ChampSim completed all CPUs

Saving instructions large page distribution to /home/bsc/bsc018186/scratch/itp_asplos25_AE/dump/smt_srv207_ap_srv224_ap_1024i.pdst...
Saving data large page distribution to /home/bsc/bsc018186/scratch/itp_asplos25_AE/dump/smt_srv207_ap_srv224_ap_1024i.pdst...
=== Simulation ===
CPU 0 runs /gpfs/projects/bsc18/MN4/bsc18/romol/ChampSim/traces/qualcomm_srv/smt_srv207_ap_srv224_ap_1024i.champsimtrace.xz

Region of Interest Statistics

CPU 0 cumulative IPC: 0.374718 instructions: 100000000 cycles: 266867678
CPU 0 Branch Prediction Accuracy: 76.4132% MPKI: 43.7209 Average ROB Occupancy at Mispredict: 11.2696
Branch type MPKI
BRANCH_DIRECT_JUMP: 1.30139
BRANCH_INDIRECT: 23.3364
BRANCH_CONDITIONAL: 12.26
BRANCH_DIRECT_CALL: 2.41583
BRANCH_INDIRECT_CALL: 1.02441
BRANCH_RETURN: 3.38294

Instructions large pages: 0
Instructions small pages: 15027
Large page distribution for instructions: 0%

Data large pages: 0
Data small pages: 13570
Large page distribution for data: 0%

cpu0_L1I TOTAL       ACCESS:   39707173  HIT:   31114500  MISS:    8592673  iACCESS:   39707173  iHIT:   31114500  iMISS:    8592673  dACCESS:          0  dHIT:          0  dMISS:          0  itACCESS:          0  itHIT:          0  itMISS:          0  dtACCESS:          0  dtHIT:          0  dtMISS:          0
cpu0_L1I LOAD         ACCESS:   11562673  HIT:    9227026  MISS:    2335647  iACCESS:   11562673  iHIT:    9227026  iMISS:    2335647  dACCESS:          0  dHIT:          0  dMISS:          0  itACCESS:          0  itHIT:          0  itMISS:          0  dtACCESS:          0  dtHIT:          0  dtMISS:          0
cpu0_L1I RFO          ACCESS:          0  HIT:          0  MISS:          0  iACCESS:          0  iHIT:          0  iMISS:          0  dACCESS:          0  dHIT:          0  dMISS:          0  itACCESS:          0  itHIT:          0  itMISS:          0  dtACCESS:          0  dtHIT:          0  dtMISS:          0
cpu0_L1I PREFETCH     ACCESS:   28144500  HIT:   21887474  MISS:    6257026  iACCESS:   28144500  iHIT:   21887474  iMISS:    6257026  dACCESS:          0  dHIT:          0  dMISS:          0  itACCESS:          0  itHIT:          0  itMISS:          0  dtACCESS:          0  dtHIT:          0  dtMISS:          0
cpu0_L1I WRITE        ACCESS:          0  HIT:          0  MISS:          0  iACCESS:          0  iHIT:          0  iMISS:          0  dACCESS:          0  dHIT:          0  dMISS:          0  itACCESS:          0  itHIT:          0  itMISS:          0  dtACCESS:          0  dtHIT:          0  dtMISS:          0
cpu0_L1I TRANSLATION  ACCESS:          0  HIT:          0  MISS:          0  iACCESS:          0  iHIT:          0  iMISS:          0  dACCESS:          0  dHIT:          0  dMISS:          0  itACCESS:          0  itHIT:          0  itMISS:          0  dtACCESS:          0  dtHIT:          0  dtMISS:          0
cpu0_L1I PREFETCH  REQUESTED:   30680099  ISSUED:   30678591  CROSSED:          0  USEFUL:    2062499  USELESS:     727963
cpu0_L1I AVERAGE iMISS LATENCY: 23.8517 cycles
cpu0_L1I AVERAGE dMISS LATENCY: 0 cycles
cpu0_L1I AVERAGE itMISS LATENCY: 0 cycles
cpu0_L1I AVERAGE dtMISS LATENCY: 0 cycles
cpu0_L1I PAGE CROSSINGS (TLB HIT):         0 
cpu0_L1I PAGE CROSSINGS (TLB MISS):         0 
cpu0_L1I AVERAGE MISS LATENCY: 23.8517 cycles
cpu0_ITLB TOTAL       ACCESS:   33308671  HIT:   31218771  MISS:    2089900  iACCESS:   33308671  iHIT:   31218771  iMISS:    2089900  dACCESS:          0  dHIT:          0  dMISS:          0  itACCESS:          0  itHIT:          0  itMISS:          0  dtACCESS:          0  dtHIT:          0  dtMISS:          0
cpu0_ITLB LOAD         ACCESS:   33308671  HIT:   31218771  MISS:    2089900  iACCESS:   33308671  iHIT:   31218771  iMISS:    2089900  dACCESS:          0  dHIT:          0  dMISS:          0  itACCESS:          0  itHIT:          0  itMISS:          0  dtACCESS:          0  dtHIT:          0  dtMISS:          0
cpu0_ITLB RFO          ACCESS:          0  HIT:          0  MISS:          0  iACCESS:          0  iHIT:          0  iMISS:          0  dACCESS:          0  dHIT:          0  dMISS:          0  itACCESS:          0  itHIT:          0  itMISS:          0  dtACCESS:          0  dtHIT:          0  dtMISS:          0
cpu0_ITLB PREFETCH     ACCESS:          0  HIT:          0  MISS:          0  iACCESS:          0  iHIT:          0  iMISS:          0  dACCESS:          0  dHIT:          0  dMISS:          0  itACCESS:          0  itHIT:          0  itMISS:          0  dtACCESS:          0  dtHIT:          0  dtMISS:          0
cpu0_ITLB WRITE        ACCESS:          0  HIT:          0  MISS:          0  iACCESS:          0  iHIT:          0  iMISS:          0  dACCESS:          0  dHIT:          0  dMISS:          0  itACCESS:          0  itHIT:          0  itMISS:          0  dtACCESS:          0  dtHIT:          0  dtMISS:          0
cpu0_ITLB TRANSLATION  ACCESS:          0  HIT:          0  MISS:          0  iACCESS:          0  iHIT:          0  iMISS:          0  dACCESS:          0  dHIT:          0  dMISS:          0  itACCESS:          0  itHIT:          0  itMISS:          0  dtACCESS:          0  dtHIT:          0  dtMISS:          0
cpu0_ITLB PREFETCH  REQUESTED:          0  ISSUED:          0  CROSSED:          0  USEFUL:     367973  USELESS:      77314
cpu0_ITLB AVERAGE iMISS LATENCY: 7.99996 cycles
cpu0_ITLB AVERAGE dMISS LATENCY: 0 cycles
cpu0_ITLB AVERAGE itMISS LATENCY: 0 cycles
cpu0_ITLB AVERAGE dtMISS LATENCY: 0 cycles
cpu0_ITLB PAGE CROSSINGS (TLB HIT):         0 
cpu0_ITLB PAGE CROSSINGS (TLB MISS):         0 
cpu0_ITLB AVERAGE MISS LATENCY: 7.99996 cycles
cpu0_DTLB TOTAL       ACCESS:   30030256  HIT:   25373503  MISS:    4656753  iACCESS:          0  iHIT:          0  iMISS:          0  dACCESS:   30030256  dHIT:   25373503  dMISS:    4656753  itACCESS:          0  itHIT:          0  itMISS:          0  dtACCESS:          0  dtHIT:          0  dtMISS:          0
cpu0_DTLB LOAD         ACCESS:   30030256  HIT:   25373503  MISS:    4656753  iACCESS:          0  iHIT:          0  iMISS:          0  dACCESS:   30030256  dHIT:   25373503  dMISS:    4656753  itACCESS:          0  itHIT:          0  itMISS:          0  dtACCESS:          0  dtHIT:          0  dtMISS:          0
cpu0_DTLB RFO          ACCESS:          0  HIT:          0  MISS:          0  iACCESS:          0  iHIT:          0  iMISS:          0  dACCESS:          0  dHIT:          0  dMISS:          0  itACCESS:          0  itHIT:          0  itMISS:          0  dtACCESS:          0  dtHIT:          0  dtMISS:          0
cpu0_DTLB PREFETCH     ACCESS:          0  HIT:          0  MISS:          0  iACCESS:          0  iHIT:          0  iMISS:          0  dACCESS:          0  dHIT:          0  dMISS:          0  itACCESS:          0  itHIT:          0  itMISS:          0  dtACCESS:          0  dtHIT:          0  dtMISS:          0
cpu0_DTLB WRITE        ACCESS:          0  HIT:          0  MISS:          0  iACCESS:          0  iHIT:          0  iMISS:          0  dACCESS:          0  dHIT:          0  dMISS:          0  itACCESS:          0  itHIT:          0  itMISS:          0  dtACCESS:          0  dtHIT:          0  dtMISS:          0
cpu0_DTLB TRANSLATION  ACCESS:          0  HIT:          0  MISS:          0  iACCESS:          0  iHIT:          0  iMISS:          0  dACCESS:          0  dHIT:          0  dMISS:          0  itACCESS:          0  itHIT:          0  itMISS:          0  dtACCESS:          0  dtHIT:          0  dtMISS:          0
cpu0_DTLB PREFETCH  REQUESTED:          0  ISSUED:          0  CROSSED:          0  USEFUL:          0  USELESS:          0
cpu0_DTLB AVERAGE iMISS LATENCY: 0 cycles
cpu0_DTLB AVERAGE dMISS LATENCY: 13.7269 cycles
cpu0_DTLB AVERAGE itMISS LATENCY: 0 cycles
cpu0_DTLB AVERAGE dtMISS LATENCY: 0 cycles
cpu0_DTLB PAGE CROSSINGS (TLB HIT):         0 
cpu0_DTLB PAGE CROSSINGS (TLB MISS):         0 
cpu0_DTLB AVERAGE MISS LATENCY: 13.7269 cycles
cpu0_STLB TOTAL       ACCESS:    3028351  HIT:    2674884  MISS:     353467  iACCESS:     445300  iHIT:     339240  iMISS:     106060  dACCESS:    2583051  dHIT:    2335644  dMISS:     247407  itACCESS:          0  itHIT:          0  itMISS:          0  dtACCESS:          0  dtHIT:          0  dtMISS:          0
cpu0_STLB LOAD         ACCESS:    3028351  HIT:    2674884  MISS:     353467  iACCESS:     445300  iHIT:     339240  iMISS:     106060  dACCESS:    2583051  dHIT:    2335644  dMISS:     247407  itACCESS:          0  itHIT:          0  itMISS:          0  dtACCESS:          0  dtHIT:          0  dtMISS:          0
cpu0_STLB RFO          ACCESS:          0  HIT:          0  MISS:          0  iACCESS:          0  iHIT:          0  iMISS:          0  dACCESS:          0  dHIT:          0  dMISS:          0  itACCESS:          0  itHIT:          0  itMISS:          0  dtACCESS:          0  dtHIT:          0  dtMISS:          0
cpu0_STLB PREFETCH     ACCESS:          0  HIT:          0  MISS:          0  iACCESS:          0  iHIT:          0  iMISS:          0  dACCESS:          0  dHIT:          0  dMISS:          0  itACCESS:          0  itHIT:          0  itMISS:          0  dtACCESS:          0  dtHIT:          0  dtMISS:          0
cpu0_STLB WRITE        ACCESS:          0  HIT:          0  MISS:          0  iACCESS:          0  iHIT:          0  iMISS:          0  dACCESS:          0  dHIT:          0  dMISS:          0  itACCESS:          0  itHIT:          0  itMISS:          0  dtACCESS:          0  dtHIT:          0  dtMISS:          0
cpu0_STLB TRANSLATION  ACCESS:          0  HIT:          0  MISS:          0  iACCESS:          0  iHIT:          0  iMISS:          0  dACCESS:          0  dHIT:          0  dMISS:          0  itACCESS:          0  itHIT:          0  itMISS:          0  dtACCESS:          0  dtHIT:          0  dtMISS:          0
cpu0_STLB PREFETCH  REQUESTED:          0  ISSUED:          0  CROSSED:          0  USEFUL:          0  USELESS:          0
cpu0_STLB AVERAGE iMISS LATENCY: 37.2459 cycles
cpu0_STLB AVERAGE dMISS LATENCY: 121.94 cycles
cpu0_STLB AVERAGE itMISS LATENCY: 0 cycles
cpu0_STLB AVERAGE dtMISS LATENCY: 0 cycles
cpu0_STLB PAGE CROSSINGS (TLB HIT):         0 
cpu0_STLB PAGE CROSSINGS (TLB MISS):         0 
cpu0_STLB AVERAGE MISS LATENCY: 159.186 cycles
cpu0_L1D TOTAL       ACCESS:   46934803  HIT:   39924716  MISS:    7010087  iACCESS:          0  iHIT:          0  iMISS:          0  dACCESS:   46422433  dHIT:   39894049  dMISS:    6528384  itACCESS:     119005  itHIT:      12371  itMISS:     106634  dtACCESS:     393365  dtHIT:      18296  dtMISS:     375069
cpu0_L1D LOAD         ACCESS:   21790080  HIT:   18471099  MISS:    3318981  iACCESS:          0  iHIT:          0  iMISS:          0  dACCESS:   21790080  dHIT:   18471099  dMISS:    3318981  itACCESS:          0  itHIT:          0  itMISS:          0  dtACCESS:          0  dtHIT:          0  dtMISS:          0
cpu0_L1D RFO          ACCESS:          0  HIT:          0  MISS:          0  iACCESS:          0  iHIT:          0  iMISS:          0  dACCESS:          0  dHIT:          0  dMISS:          0  itACCESS:          0  itHIT:          0  itMISS:          0  dtACCESS:          0  dtHIT:          0  dtMISS:          0
cpu0_L1D PREFETCH     ACCESS:   14637810  HIT:   12001052  MISS:    2636758  iACCESS:          0  iHIT:          0  iMISS:          0  dACCESS:   14637810  dHIT:   12001052  dMISS:    2636758  itACCESS:          0  itHIT:          0  itMISS:          0  dtACCESS:          0  dtHIT:          0  dtMISS:          0
cpu0_L1D WRITE        ACCESS:    9994543  HIT:    9421898  MISS:     572645  iACCESS:          0  iHIT:          0  iMISS:          0  dACCESS:    9994543  dHIT:    9421898  dMISS:     572645  itACCESS:          0  itHIT:          0  itMISS:          0  dtACCESS:          0  dtHIT:          0  dtMISS:          0
cpu0_L1D TRANSLATION  ACCESS:     512370  HIT:      30667  MISS:     481703  iACCESS:          0  iHIT:          0  iMISS:          0  dACCESS:          0  dHIT:          0  dMISS:          0  itACCESS:     119005  itHIT:      12371  itMISS:     106634  dtACCESS:     393365  dtHIT:      18296  dtMISS:     375069
cpu0_L1D PREFETCH  REQUESTED:   21790080  ISSUED:   18984427  CROSSED:          0  USEFUL:     361418  USELESS:    1002988
cpu0_L1D AVERAGE iMISS LATENCY: 0 cycles
cpu0_L1D AVERAGE dMISS LATENCY: 40.9589 cycles
cpu0_L1D AVERAGE itMISS LATENCY: 1.73603 cycles
cpu0_L1D AVERAGE dtMISS LATENCY: 5.43196 cycles
cpu0_L1D PAGE CROSSINGS (TLB HIT):         0 
cpu0_L1D PAGE CROSSINGS (TLB MISS):         0 
cpu0_L1D AVERAGE MISS LATENCY: 48.1269 cycles
cpu0_L2C TOTAL       ACCESS:    9043915  HIT:    1864010  MISS:    7179905  iACCESS:    3544206  iHIT:     738118  iMISS:    2806088  dACCESS:    5041281  dHIT:     950514  dMISS:    4090767  itACCESS:     106235  itHIT:      35578  itMISS:      70657  dtACCESS:     352193  dtHIT:     139800  dtMISS:     212393
cpu0_L2C LOAD         ACCESS:    2696992  HIT:     557835  MISS:    2139157  iACCESS:     785694  iHIT:     102393  iMISS:     683301  dACCESS:    1911298  dHIT:     455442  dMISS:    1455856  itACCESS:          0  itHIT:          0  itMISS:          0  dtACCESS:          0  dtHIT:          0  dtMISS:          0
cpu0_L2C RFO          ACCESS:     224034  HIT:      40174  MISS:     183860  iACCESS:          0  iHIT:          0  iMISS:          0  dACCESS:     224034  dHIT:      40174  dMISS:     183860  itACCESS:          0  itHIT:          0  itMISS:          0  dtACCESS:          0  dtHIT:          0  dtMISS:          0
cpu0_L2C PREFETCH     ACCESS:    5326387  HIT:     986057  MISS:    4340330  iACCESS:    2758512  iHIT:     635725  iMISS:    2122787  dACCESS:    2567875  dHIT:     350332  dMISS:    2217543  itACCESS:          0  itHIT:          0  itMISS:          0  dtACCESS:          0  dtHIT:          0  dtMISS:          0
cpu0_L2C WRITE        ACCESS:     338074  HIT:     104566  MISS:     233508  iACCESS:          0  iHIT:          0  iMISS:          0  dACCESS:     338074  dHIT:     104566  dMISS:     233508  itACCESS:          0  itHIT:          0  itMISS:          0  dtACCESS:          0  dtHIT:          0  dtMISS:          0
cpu0_L2C TRANSLATION  ACCESS:     458428  HIT:     175378  MISS:     283050  iACCESS:          0  iHIT:          0  iMISS:          0  dACCESS:          0  dHIT:          0  dMISS:          0  itACCESS:     106235  itHIT:      35578  itMISS:      70657  dtACCESS:     352193  dtHIT:     139800  dtMISS:     212393
cpu0_L2C PREFETCH  REQUESTED:    1422284  ISSUED:    1422282  CROSSED:          0  USEFUL:     381740  USELESS:     462980
cpu0_L2C AVERAGE iMISS LATENCY: 24.3269 cycles
cpu0_L2C AVERAGE dMISS LATENCY: 47.0799 cycles
cpu0_L2C AVERAGE itMISS LATENCY: 1.55154 cycles
cpu0_L2C AVERAGE dtMISS LATENCY: 4.83022 cycles
cpu0_L2C PAGE CROSSINGS (TLB HIT):         0 
cpu0_L2C PAGE CROSSINGS (TLB MISS):         0 
cpu0_L2C AVERAGE MISS LATENCY: 77.7885 cycles
LLC TOTAL       ACCESS:    7014609  HIT:    4510168  MISS:    2504441  iACCESS:    2725199  iHIT:    1951590  iMISS:     773609  dACCESS:    4006360  dHIT:    2492905  dMISS:    1513455  itACCESS:      70657  itHIT:      15616  itMISS:      55041  dtACCESS:     212393  dtHIT:      50057  dtMISS:     162336
LLC LOAD         ACCESS:    2132741  HIT:    1521897  MISS:     610844  iACCESS:     682027  iHIT:     518776  iMISS:     163251  dACCESS:    1450714  dHIT:    1003121  dMISS:     447593  itACCESS:          0  itHIT:          0  itMISS:          0  dtACCESS:          0  dtHIT:          0  dtMISS:          0
LLC RFO          ACCESS:     183844  HIT:     102678  MISS:      81166  iACCESS:          0  iHIT:          0  iMISS:          0  dACCESS:     183844  dHIT:     102678  dMISS:      81166  itACCESS:          0  itHIT:          0  itMISS:          0  dtACCESS:          0  dtHIT:          0  dtMISS:          0
LLC PREFETCH     ACCESS:    4151439  HIT:    2562684  MISS:    1588755  iACCESS:    2043172  iHIT:    1432814  iMISS:     610358  dACCESS:    2108267  dHIT:    1129870  dMISS:     978397  itACCESS:          0  itHIT:          0  itMISS:          0  dtACCESS:          0  dtHIT:          0  dtMISS:          0
LLC WRITE        ACCESS:     263535  HIT:     257236  MISS:       6299  iACCESS:          0  iHIT:          0  iMISS:          0  dACCESS:     263535  dHIT:     257236  dMISS:       6299  itACCESS:          0  itHIT:          0  itMISS:          0  dtACCESS:          0  dtHIT:          0  dtMISS:          0
LLC TRANSLATION  ACCESS:     283050  HIT:      65673  MISS:     217377  iACCESS:          0  iHIT:          0  iMISS:          0  dACCESS:          0  dHIT:          0  dMISS:          0  itACCESS:      70657  itHIT:      15616  itMISS:      55041  dtACCESS:     212393  dtHIT:      50057  dtMISS:     162336
LLC PREFETCH  REQUESTED:          0  ISSUED:          0  CROSSED:          0  USEFUL:          0  USELESS:          0
LLC AVERAGE iMISS LATENCY: 48.6105 cycles
LLC AVERAGE dMISS LATENCY: 106.613 cycles
LLC AVERAGE itMISS LATENCY: 3.89185 cycles
LLC AVERAGE dtMISS LATENCY: 12.1778 cycles
LLC PAGE CROSSINGS (TLB HIT):         0 
LLC PAGE CROSSINGS (TLB MISS):         0 
LLC AVERAGE MISS LATENCY: 171.293 cycles

PageTableWalker TOTAL       ACCESS:     163106  
PageTableWalker AVERAGE LATENCY: 6.02393 cycles
PageTableWalker TOTAL LATENCY: 982539 cycles

DRAM Statistics
Channel 0
 RQ ROW_BUFFER_HIT:     558546
  ROW_BUFFER_MISS:    1928333
 AVG DBUS CONGESTED CYCLE:    3.65219
 WQ ROW_BUFFER_HIT:      59915
  ROW_BUFFER_MISS:      57341  FULL:          0

