last_page:0x200000000000000
VMEM_RES_CAP:0x100000
PAGE_SIZE:4096
LOG2_PAGE_SIZE:12
LOG2_PAGE_TABLE_SIZE:9
page_table_levels:5
WARNING: physical memory size is smaller than virtual memory size
FDiP enabled with aggresivity 16

*** ChampSim Multicore Out-of-Order Simulator ***

Warmup Instructions: 50000000
Simulation Instructions: 100000000
Number of CPUs: 1
Small page size: 4096
Large page size: 2097152

CPU 0 Bimodal branch predictor
Basic BTB sets: 1024 ways: 8 indirect buffer size: 4096 RAS size: 64
Instruction page size distrubution: 0
Loading instruction page size distribution from /home/bsc/bsc018186/scratch/itp_asplos25_AE/dump/smt_srv207_ap_srv727_ap_1024i.pdst
Data page size distrubution: 0
Loading data page size distribution from /home/bsc/bsc018186/scratch/itp_asplos25_AE/dump/smt_srv207_ap_srv727_ap_1024i.pdst
cpu0_L2C IP-based stride prefetcher
cpu0_L1D next line prefetcher
cpu0_L1I next line prefetcher
Off-chip DRAM Size: 4 GiB Channels: 1 Width: 64-bit Data Rate: 3200 MT/s
Heartbeat CPU 0 instructions: 10000000 cycles: 2500930 heartbeat IPC: 3.99852 cumulative IPC: 3.99852 (Simulation time: 0 hr 0 min 44 sec) 
Heartbeat CPU 0 instructions: 20000001 cycles: 5001203 heartbeat IPC: 3.99957 cumulative IPC: 3.99904 (Simulation time: 0 hr 1 min 31 sec) 
Heartbeat CPU 0 instructions: 30000000 cycles: 7501578 heartbeat IPC: 3.9994 cumulative IPC: 3.99916 (Simulation time: 0 hr 2 min 18 sec) 
Heartbeat CPU 0 instructions: 40000001 cycles: 10002096 heartbeat IPC: 3.99918 cumulative IPC: 3.99917 (Simulation time: 0 hr 3 min 4 sec) 
Heartbeat CPU 0 instructions: 50000002 cycles: 12502382 heartbeat IPC: 3.99955 cumulative IPC: 3.99924 (Simulation time: 0 hr 3 min 49 sec) 
Warmup finished CPU 0 instructions: 50000002 cycles: 12502383 cumulative IPC: 3.99924 (Simulation time: 0 hr 3 min 49 sec) 

Warmup complete CPU 0 instructions: 50000002 cycles: 12502383 (Simulation time: 0 hr 3 min 49 sec) 

Heartbeat CPU 0 instructions: 60000004 cycles: 40433945 heartbeat IPC: 0.358018 cumulative IPC: 0.358019 (Simulation time: 0 hr 5 min 25 sec) 
Heartbeat CPU 0 instructions: 70000004 cycles: 69179526 heartbeat IPC: 0.34788 cumulative IPC: 0.352876 (Simulation time: 0 hr 6 min 59 sec) 
Heartbeat CPU 0 instructions: 80000001 cycles: 98989436 heartbeat IPC: 0.335459 cumulative IPC: 0.346873 (Simulation time: 0 hr 8 min 28 sec) 
Heartbeat CPU 0 instructions: 90000000 cycles: 128335896 heartbeat IPC: 0.340757 cumulative IPC: 0.345324 (Simulation time: 0 hr 10 min 3 sec) 
Heartbeat CPU 0 instructions: 100000000 cycles: 157197399 heartbeat IPC: 0.346483 cumulative IPC: 0.345555 (Simulation time: 0 hr 11 min 41 sec) 
Heartbeat CPU 0 instructions: 110000000 cycles: 186881629 heartbeat IPC: 0.33688 cumulative IPC: 0.344078 (Simulation time: 0 hr 13 min 20 sec) 
Heartbeat CPU 0 instructions: 120000002 cycles: 215798350 heartbeat IPC: 0.345821 cumulative IPC: 0.344326 (Simulation time: 0 hr 14 min 58 sec) 
Heartbeat CPU 0 instructions: 130000000 cycles: 243835018 heartbeat IPC: 0.356676 cumulative IPC: 0.345823 (Simulation time: 0 hr 16 min 31 sec) 
Heartbeat CPU 0 instructions: 140000002 cycles: 273462610 heartbeat IPC: 0.337524 cumulative IPC: 0.344881 (Simulation time: 0 hr 18 min 3 sec) 
Heartbeat CPU 0 instructions: 150000003 cycles: 302068488 heartbeat IPC: 0.349579 cumulative IPC: 0.345345 (Simulation time: 0 hr 19 min 35 sec) 
Simulation finished CPU 0 instructions: 100000001 cycles: 289566106 cumulative IPC: 0.345345 (Simulation time: 0 hr 19 min 35 sec) 

Simulation complete CPU 0 instructions: 100000001 cycles: 289566106 (Simulation time: 0 hr 19 min 35 sec) 


ChampSim completed all CPUs

Saving instructions large page distribution to /home/bsc/bsc018186/scratch/itp_asplos25_AE/dump/smt_srv207_ap_srv727_ap_1024i.pdst...
Saving data large page distribution to /home/bsc/bsc018186/scratch/itp_asplos25_AE/dump/smt_srv207_ap_srv727_ap_1024i.pdst...
=== Simulation ===
CPU 0 runs /gpfs/projects/bsc18/MN4/bsc18/romol/ChampSim/traces/qualcomm_srv/smt_srv207_ap_srv727_ap_1024i.champsimtrace.xz

Region of Interest Statistics

CPU 0 cumulative IPC: 0.345345 instructions: 100000001 cycles: 289566106
CPU 0 Branch Prediction Accuracy: 74.5167% MPKI: 45.8478 Average ROB Occupancy at Mispredict: 10.528
Branch type MPKI
BRANCH_DIRECT_JUMP: 1.43368
BRANCH_INDIRECT: 24.037
BRANCH_CONDITIONAL: 13.0153
BRANCH_DIRECT_CALL: 2.7401
BRANCH_INDIRECT_CALL: 1.02377
BRANCH_RETURN: 3.59798

Instructions large pages: 0
Instructions small pages: 11368
Large page distribution for instructions: 0%

Data large pages: 0
Data small pages: 9849
Large page distribution for data: 0%

cpu0_L1I TOTAL       ACCESS:   39394762  HIT:   30150845  MISS:    9243917  iACCESS:   39394762  iHIT:   30150845  iMISS:    9243917  dACCESS:          0  dHIT:          0  dMISS:          0  itACCESS:          0  itHIT:          0  itMISS:          0  dtACCESS:          0  dtHIT:          0  dtMISS:          0
cpu0_L1I LOAD         ACCESS:   11630305  HIT:    9121696  MISS:    2508609  iACCESS:   11630305  iHIT:    9121696  iMISS:    2508609  dACCESS:          0  dHIT:          0  dMISS:          0  itACCESS:          0  itHIT:          0  itMISS:          0  dtACCESS:          0  dtHIT:          0  dtMISS:          0
cpu0_L1I RFO          ACCESS:          0  HIT:          0  MISS:          0  iACCESS:          0  iHIT:          0  iMISS:          0  dACCESS:          0  dHIT:          0  dMISS:          0  itACCESS:          0  itHIT:          0  itMISS:          0  dtACCESS:          0  dtHIT:          0  dtMISS:          0
cpu0_L1I PREFETCH     ACCESS:   27764457  HIT:   21029149  MISS:    6735308  iACCESS:   27764457  iHIT:   21029149  iMISS:    6735308  dACCESS:          0  dHIT:          0  dMISS:          0  itACCESS:          0  itHIT:          0  itMISS:          0  dtACCESS:          0  dtHIT:          0  dtMISS:          0
cpu0_L1I WRITE        ACCESS:          0  HIT:          0  MISS:          0  iACCESS:          0  iHIT:          0  iMISS:          0  dACCESS:          0  dHIT:          0  dMISS:          0  itACCESS:          0  itHIT:          0  itMISS:          0  dtACCESS:          0  dtHIT:          0  dtMISS:          0
cpu0_L1I TRANSLATION  ACCESS:          0  HIT:          0  MISS:          0  iACCESS:          0  iHIT:          0  iMISS:          0  dACCESS:          0  dHIT:          0  dMISS:          0  itACCESS:          0  itHIT:          0  itMISS:          0  dtACCESS:          0  dtHIT:          0  dtMISS:          0
cpu0_L1I PREFETCH  REQUESTED:   30256855  ISSUED:   30255055  CROSSED:          0  USEFUL:    2212271  USELESS:     791333
cpu0_L1I AVERAGE iMISS LATENCY: 25.041 cycles
cpu0_L1I AVERAGE dMISS LATENCY: 0 cycles
cpu0_L1I AVERAGE itMISS LATENCY: 0 cycles
cpu0_L1I AVERAGE dtMISS LATENCY: 0 cycles
cpu0_L1I PAGE CROSSINGS (TLB HIT):         0 
cpu0_L1I PAGE CROSSINGS (TLB MISS):         0 
cpu0_L1I AVERAGE MISS LATENCY: 25.041 cycles
cpu0_ITLB TOTAL       ACCESS:   33243728  HIT:   30983484  MISS:    2260244  iACCESS:   33243728  iHIT:   30983484  iMISS:    2260244  dACCESS:          0  dHIT:          0  dMISS:          0  itACCESS:          0  itHIT:          0  itMISS:          0  dtACCESS:          0  dtHIT:          0  dtMISS:          0
cpu0_ITLB LOAD         ACCESS:   33243728  HIT:   30983484  MISS:    2260244  iACCESS:   33243728  iHIT:   30983484  iMISS:    2260244  dACCESS:          0  dHIT:          0  dMISS:          0  itACCESS:          0  itHIT:          0  itMISS:          0  dtACCESS:          0  dtHIT:          0  dtMISS:          0
cpu0_ITLB RFO          ACCESS:          0  HIT:          0  MISS:          0  iACCESS:          0  iHIT:          0  iMISS:          0  dACCESS:          0  dHIT:          0  dMISS:          0  itACCESS:          0  itHIT:          0  itMISS:          0  dtACCESS:          0  dtHIT:          0  dtMISS:          0
cpu0_ITLB PREFETCH     ACCESS:          0  HIT:          0  MISS:          0  iACCESS:          0  iHIT:          0  iMISS:          0  dACCESS:          0  dHIT:          0  dMISS:          0  itACCESS:          0  itHIT:          0  itMISS:          0  dtACCESS:          0  dtHIT:          0  dtMISS:          0
cpu0_ITLB WRITE        ACCESS:          0  HIT:          0  MISS:          0  iACCESS:          0  iHIT:          0  iMISS:          0  dACCESS:          0  dHIT:          0  dMISS:          0  itACCESS:          0  itHIT:          0  itMISS:          0  dtACCESS:          0  dtHIT:          0  dtMISS:          0
cpu0_ITLB TRANSLATION  ACCESS:          0  HIT:          0  MISS:          0  iACCESS:          0  iHIT:          0  iMISS:          0  dACCESS:          0  dHIT:          0  dMISS:          0  itACCESS:          0  itHIT:          0  itMISS:          0  dtACCESS:          0  dtHIT:          0  dtMISS:          0
cpu0_ITLB PREFETCH  REQUESTED:          0  ISSUED:          0  CROSSED:          0  USEFUL:     399427  USELESS:      82415
cpu0_ITLB AVERAGE iMISS LATENCY: 8.26603 cycles
cpu0_ITLB AVERAGE dMISS LATENCY: 0 cycles
cpu0_ITLB AVERAGE itMISS LATENCY: 0 cycles
cpu0_ITLB AVERAGE dtMISS LATENCY: 0 cycles
cpu0_ITLB PAGE CROSSINGS (TLB HIT):         0 
cpu0_ITLB PAGE CROSSINGS (TLB MISS):         0 
cpu0_ITLB AVERAGE MISS LATENCY: 8.26603 cycles
cpu0_DTLB TOTAL       ACCESS:   29252066  HIT:   25742634  MISS:    3509432  iACCESS:          0  iHIT:          0  iMISS:          0  dACCESS:   29252066  dHIT:   25742634  dMISS:    3509432  itACCESS:          0  itHIT:          0  itMISS:          0  dtACCESS:          0  dtHIT:          0  dtMISS:          0
cpu0_DTLB LOAD         ACCESS:   29252066  HIT:   25742634  MISS:    3509432  iACCESS:          0  iHIT:          0  iMISS:          0  dACCESS:   29252066  dHIT:   25742634  dMISS:    3509432  itACCESS:          0  itHIT:          0  itMISS:          0  dtACCESS:          0  dtHIT:          0  dtMISS:          0
cpu0_DTLB RFO          ACCESS:          0  HIT:          0  MISS:          0  iACCESS:          0  iHIT:          0  iMISS:          0  dACCESS:          0  dHIT:          0  dMISS:          0  itACCESS:          0  itHIT:          0  itMISS:          0  dtACCESS:          0  dtHIT:          0  dtMISS:          0
cpu0_DTLB PREFETCH     ACCESS:          0  HIT:          0  MISS:          0  iACCESS:          0  iHIT:          0  iMISS:          0  dACCESS:          0  dHIT:          0  dMISS:          0  itACCESS:          0  itHIT:          0  itMISS:          0  dtACCESS:          0  dtHIT:          0  dtMISS:          0
cpu0_DTLB WRITE        ACCESS:          0  HIT:          0  MISS:          0  iACCESS:          0  iHIT:          0  iMISS:          0  dACCESS:          0  dHIT:          0  dMISS:          0  itACCESS:          0  itHIT:          0  itMISS:          0  dtACCESS:          0  dtHIT:          0  dtMISS:          0
cpu0_DTLB TRANSLATION  ACCESS:          0  HIT:          0  MISS:          0  iACCESS:          0  iHIT:          0  iMISS:          0  dACCESS:          0  dHIT:          0  dMISS:          0  itACCESS:          0  itHIT:          0  itMISS:          0  dtACCESS:          0  dtHIT:          0  dtMISS:          0
cpu0_DTLB PREFETCH  REQUESTED:          0  ISSUED:          0  CROSSED:          0  USEFUL:          0  USELESS:          0
cpu0_DTLB AVERAGE iMISS LATENCY: 0 cycles
cpu0_DTLB AVERAGE dMISS LATENCY: 18.2925 cycles
cpu0_DTLB AVERAGE itMISS LATENCY: 0 cycles
cpu0_DTLB AVERAGE dtMISS LATENCY: 0 cycles
cpu0_DTLB PAGE CROSSINGS (TLB HIT):         0 
cpu0_DTLB PAGE CROSSINGS (TLB MISS):         0 
cpu0_DTLB AVERAGE MISS LATENCY: 18.2925 cycles
cpu0_STLB TOTAL       ACCESS:    2567187  HIT:    2174454  MISS:     392733  iACCESS:     481851  iHIT:     361765  iMISS:     120086  dACCESS:    2085336  dHIT:    1812689  dMISS:     272647  itACCESS:          0  itHIT:          0  itMISS:          0  dtACCESS:          0  dtHIT:          0  dtMISS:          0
cpu0_STLB LOAD         ACCESS:    2567187  HIT:    2174454  MISS:     392733  iACCESS:     481851  iHIT:     361765  iMISS:     120086  dACCESS:    2085336  dHIT:    1812689  dMISS:     272647  itACCESS:          0  itHIT:          0  itMISS:          0  dtACCESS:          0  dtHIT:          0  dtMISS:          0
cpu0_STLB RFO          ACCESS:          0  HIT:          0  MISS:          0  iACCESS:          0  iHIT:          0  iMISS:          0  dACCESS:          0  dHIT:          0  dMISS:          0  itACCESS:          0  itHIT:          0  itMISS:          0  dtACCESS:          0  dtHIT:          0  dtMISS:          0
cpu0_STLB PREFETCH     ACCESS:          0  HIT:          0  MISS:          0  iACCESS:          0  iHIT:          0  iMISS:          0  dACCESS:          0  dHIT:          0  dMISS:          0  itACCESS:          0  itHIT:          0  itMISS:          0  dtACCESS:          0  dtHIT:          0  dtMISS:          0
cpu0_STLB WRITE        ACCESS:          0  HIT:          0  MISS:          0  iACCESS:          0  iHIT:          0  iMISS:          0  dACCESS:          0  dHIT:          0  dMISS:          0  itACCESS:          0  itHIT:          0  itMISS:          0  dtACCESS:          0  dtHIT:          0  dtMISS:          0
cpu0_STLB TRANSLATION  ACCESS:          0  HIT:          0  MISS:          0  iACCESS:          0  iHIT:          0  iMISS:          0  dACCESS:          0  dHIT:          0  dMISS:          0  itACCESS:          0  itHIT:          0  itMISS:          0  dtACCESS:          0  dtHIT:          0  dtMISS:          0
cpu0_STLB PREFETCH  REQUESTED:          0  ISSUED:          0  CROSSED:          0  USEFUL:          0  USELESS:          0
cpu0_STLB AVERAGE iMISS LATENCY: 37.7615 cycles
cpu0_STLB AVERAGE dMISS LATENCY: 120.762 cycles
cpu0_STLB AVERAGE itMISS LATENCY: 0 cycles
cpu0_STLB AVERAGE dtMISS LATENCY: 0 cycles
cpu0_STLB PAGE CROSSINGS (TLB HIT):         0 
cpu0_STLB PAGE CROSSINGS (TLB MISS):         0 
cpu0_STLB AVERAGE MISS LATENCY: 158.524 cycles
cpu0_L1D TOTAL       ACCESS:   45629320  HIT:   39704967  MISS:    5924353  iACCESS:          0  iHIT:          0  iMISS:          0  dACCESS:   45061144  dHIT:   39672039  dMISS:    5389105  itACCESS:     134256  itHIT:      13953  itMISS:     120303  dtACCESS:     433920  dtHIT:      18975  dtMISS:     414945
cpu0_L1D LOAD         ACCESS:   20652622  HIT:   18226049  MISS:    2426573  iACCESS:          0  iHIT:          0  iMISS:          0  dACCESS:   20652622  dHIT:   18226049  dMISS:    2426573  itACCESS:          0  itHIT:          0  itMISS:          0  dtACCESS:          0  dtHIT:          0  dtMISS:          0
cpu0_L1D RFO          ACCESS:          0  HIT:          0  MISS:          0  iACCESS:          0  iHIT:          0  iMISS:          0  dACCESS:          0  dHIT:          0  dMISS:          0  itACCESS:          0  itHIT:          0  itMISS:          0  dtACCESS:          0  dtHIT:          0  dtMISS:          0
cpu0_L1D PREFETCH     ACCESS:   14287458  HIT:   11935441  MISS:    2352017  iACCESS:          0  iHIT:          0  iMISS:          0  dACCESS:   14287458  dHIT:   11935441  dMISS:    2352017  itACCESS:          0  itHIT:          0  itMISS:          0  dtACCESS:          0  dtHIT:          0  dtMISS:          0
cpu0_L1D WRITE        ACCESS:   10121064  HIT:    9510549  MISS:     610515  iACCESS:          0  iHIT:          0  iMISS:          0  dACCESS:   10121064  dHIT:    9510549  dMISS:     610515  itACCESS:          0  itHIT:          0  itMISS:          0  dtACCESS:          0  dtHIT:          0  dtMISS:          0
cpu0_L1D TRANSLATION  ACCESS:     568176  HIT:      32928  MISS:     535248  iACCESS:          0  iHIT:          0  iMISS:          0  dACCESS:          0  dHIT:          0  dMISS:          0  itACCESS:     134256  itHIT:      13953  itMISS:     120303  dtACCESS:     433920  dtHIT:      18975  dtMISS:     414945
cpu0_L1D PREFETCH  REQUESTED:   20652622  ISSUED:   18901634  CROSSED:          0  USEFUL:     381323  USELESS:     958683
cpu0_L1D AVERAGE iMISS LATENCY: 0 cycles
cpu0_L1D AVERAGE dMISS LATENCY: 52.0803 cycles
cpu0_L1D AVERAGE itMISS LATENCY: 2.31214 cycles
cpu0_L1D AVERAGE dtMISS LATENCY: 7.23429 cycles
cpu0_L1D PAGE CROSSINGS (TLB HIT):         0 
cpu0_L1D PAGE CROSSINGS (TLB MISS):         0 
cpu0_L1D AVERAGE MISS LATENCY: 61.6267 cycles
cpu0_L2C TOTAL       ACCESS:    8792027  HIT:    1477431  MISS:    7314596  iACCESS:    3819714  iHIT:     766181  iMISS:    3053533  dACCESS:    4466291  dHIT:     516421  dMISS:    3949870  itACCESS:     119956  itHIT:      40191  itMISS:      79765  dtACCESS:     386066  dtHIT:     154638  dtMISS:     231428
cpu0_L2C LOAD         ACCESS:    2106070  HIT:     193200  MISS:    1912870  iACCESS:     849260  iHIT:     107209  iMISS:     742051  dACCESS:    1256810  dHIT:      85991  dMISS:    1170819  itACCESS:          0  itHIT:          0  itMISS:          0  dtACCESS:          0  dtHIT:          0  dtMISS:          0
cpu0_L2C RFO          ACCESS:     225662  HIT:      26719  MISS:     198943  iACCESS:          0  iHIT:          0  iMISS:          0  dACCESS:     225662  dHIT:      26719  dMISS:     198943  itACCESS:          0  itHIT:          0  itMISS:          0  dtACCESS:          0  dtHIT:          0  dtMISS:          0
cpu0_L2C PREFETCH     ACCESS:    5603977  HIT:     963431  MISS:    4640546  iACCESS:    2970454  iHIT:     658972  iMISS:    2311482  dACCESS:    2633523  dHIT:     304459  dMISS:    2329064  itACCESS:          0  itHIT:          0  itMISS:          0  dtACCESS:          0  dtHIT:          0  dtMISS:          0
cpu0_L2C WRITE        ACCESS:     350296  HIT:      99252  MISS:     251044  iACCESS:          0  iHIT:          0  iMISS:          0  dACCESS:     350296  dHIT:      99252  dMISS:     251044  itACCESS:          0  itHIT:          0  itMISS:          0  dtACCESS:          0  dtHIT:          0  dtMISS:          0
cpu0_L2C TRANSLATION  ACCESS:     506022  HIT:     194829  MISS:     311193  iACCESS:          0  iHIT:          0  iMISS:          0  dACCESS:          0  dHIT:          0  dMISS:          0  itACCESS:     119956  itHIT:      40191  itMISS:      79765  dtACCESS:     386066  dtHIT:     154638  dtMISS:     231428
cpu0_L2C PREFETCH  REQUESTED:    1532883  ISSUED:    1532879  CROSSED:          0  USEFUL:     408838  USELESS:     506441
cpu0_L2C AVERAGE iMISS LATENCY: 27.193 cycles
cpu0_L2C AVERAGE dMISS LATENCY: 51.7735 cycles
cpu0_L2C AVERAGE itMISS LATENCY: 1.71376 cycles
cpu0_L2C AVERAGE dtMISS LATENCY: 5.35034 cycles
cpu0_L2C PAGE CROSSINGS (TLB HIT):         0 
cpu0_L2C PAGE CROSSINGS (TLB MISS):         0 
cpu0_L2C AVERAGE MISS LATENCY: 86.0305 cycles
LLC TOTAL       ACCESS:    7128373  HIT:    4247183  MISS:    2881190  iACCESS:    2964035  iHIT:    2069112  iMISS:     894923  dACCESS:    3853144  dHIT:    2108544  dMISS:    1744600  itACCESS:      79766  itHIT:      18497  itMISS:      61269  dtACCESS:     231428  dtHIT:      51030  dtMISS:     180398
LLC LOAD         ACCESS:    1904370  HIT:    1198684  MISS:     705686  iACCESS:     740662  iHIT:     552927  iMISS:     187735  dACCESS:    1163708  dHIT:     645757  dMISS:     517951  itACCESS:          0  itHIT:          0  itMISS:          0  dtACCESS:          0  dtHIT:          0  dtMISS:          0
LLC RFO          ACCESS:     198897  HIT:     100802  MISS:      98095  iACCESS:          0  iHIT:          0  iMISS:          0  dACCESS:     198897  dHIT:     100802  dMISS:      98095  itACCESS:          0  itHIT:          0  itMISS:          0  dtACCESS:          0  dtHIT:          0  dtMISS:          0
LLC PREFETCH     ACCESS:    4426636  HIT:    2596002  MISS:    1830634  iACCESS:    2223373  iHIT:    1516185  iMISS:     707188  dACCESS:    2203263  dHIT:    1079817  dMISS:    1123446  itACCESS:          0  itHIT:          0  itMISS:          0  dtACCESS:          0  dtHIT:          0  dtMISS:          0
LLC WRITE        ACCESS:     287276  HIT:     282168  MISS:       5108  iACCESS:          0  iHIT:          0  iMISS:          0  dACCESS:     287276  dHIT:     282168  dMISS:       5108  itACCESS:          0  itHIT:          0  itMISS:          0  dtACCESS:          0  dtHIT:          0  dtMISS:          0
LLC TRANSLATION  ACCESS:     311194  HIT:      69527  MISS:     241667  iACCESS:          0  iHIT:          0  iMISS:          0  dACCESS:          0  dHIT:          0  dMISS:          0  itACCESS:      79766  itHIT:      18497  itMISS:      61269  dtACCESS:     231428  dtHIT:      51030  dtMISS:     180398
LLC PREFETCH  REQUESTED:          0  ISSUED:          0  CROSSED:          0  USEFUL:          0  USELESS:          0
LLC AVERAGE iMISS LATENCY: 49.0496 cycles
LLC AVERAGE dMISS LATENCY: 108.166 cycles
LLC AVERAGE itMISS LATENCY: 3.80534 cycles
LLC AVERAGE dtMISS LATENCY: 12.0003 cycles
LLC PAGE CROSSINGS (TLB HIT):         0 
LLC PAGE CROSSINGS (TLB MISS):         0 
LLC AVERAGE MISS LATENCY: 173.021 cycles

PageTableWalker TOTAL       ACCESS:     193857  
PageTableWalker AVERAGE LATENCY: 5.95867 cycles
PageTableWalker TOTAL LATENCY: 1155129 cycles

DRAM Statistics
Channel 0
 RQ ROW_BUFFER_HIT:     624074
  ROW_BUFFER_MISS:    2233180
 AVG DBUS CONGESTED CYCLE:    3.65638
 WQ ROW_BUFFER_HIT:      69905
  ROW_BUFFER_MISS:      68156  FULL:          0

