last_page:0x200000000000000
VMEM_RES_CAP:0x100000
PAGE_SIZE:4096
LOG2_PAGE_SIZE:12
LOG2_PAGE_TABLE_SIZE:9
page_table_levels:5
WARNING: physical memory size is smaller than virtual memory size
FDiP enabled with aggresivity 16

*** ChampSim Multicore Out-of-Order Simulator ***

Warmup Instructions: 50000000
Simulation Instructions: 100000000
Number of CPUs: 1
Small page size: 4096
Large page size: 2097152

CPU 0 Bimodal branch predictor
Basic BTB sets: 1024 ways: 8 indirect buffer size: 4096 RAS size: 64
Instruction page size distrubution: 0
Loading instruction page size distribution from /home/bsc/bsc018186/scratch/itp_asplos25_AE/dump/smt_srv12_ap_srv259_ap_1024i.pdst
Data page size distrubution: 0
Loading data page size distribution from /home/bsc/bsc018186/scratch/itp_asplos25_AE/dump/smt_srv12_ap_srv259_ap_1024i.pdst
cpu0_L2C IP-based stride prefetcher
cpu0_L2C is using xPTP/LRU
	TLB_LOWER_STRESS_THRESHOLD:1
	TLB_UPPER_STRESS_THRESHOLD:4
	MIN_EVICTION_POSITION:4
cpu0_L1D next line prefetcher
cpu0_STLB using iTP with max lru@8
cpu0_STLB using iTP with instr@0 and data@2
Init sat counter with 3 bits (max:50).
cpu0_L1I next line prefetcher
Off-chip DRAM Size: 4 GiB Channels: 1 Width: 64-bit Data Rate: 3200 MT/s
Heartbeat CPU 0 instructions: 10000003 cycles: 2500342 heartbeat IPC: 3.99946 cumulative IPC: 3.99946 (Simulation time: 0 hr 0 min 37 sec) 
Heartbeat CPU 0 instructions: 20000000 cycles: 5000432 heartbeat IPC: 3.99986 cumulative IPC: 3.99966 (Simulation time: 0 hr 1 min 16 sec) 
Heartbeat CPU 0 instructions: 30000000 cycles: 7501051 heartbeat IPC: 3.99901 cumulative IPC: 3.99944 (Simulation time: 0 hr 1 min 55 sec) 
Heartbeat CPU 0 instructions: 40000000 cycles: 10001259 heartbeat IPC: 3.99967 cumulative IPC: 3.9995 (Simulation time: 0 hr 2 min 34 sec) 
Heartbeat CPU 0 instructions: 50000003 cycles: 12501457 heartbeat IPC: 3.99969 cumulative IPC: 3.99954 (Simulation time: 0 hr 3 min 14 sec) 
Warmup finished CPU 0 instructions: 50000003 cycles: 12501458 cumulative IPC: 3.99954 (Simulation time: 0 hr 3 min 14 sec) 

Warmup complete CPU 0 instructions: 50000003 cycles: 12501458 (Simulation time: 0 hr 3 min 14 sec) 

Heartbeat CPU 0 instructions: 60000000 cycles: 38724373 heartbeat IPC: 0.381346 cumulative IPC: 0.381346 (Simulation time: 0 hr 4 min 32 sec) 
Heartbeat CPU 0 instructions: 70000002 cycles: 65578781 heartbeat IPC: 0.372379 cumulative IPC: 0.376809 (Simulation time: 0 hr 5 min 51 sec) 
Heartbeat CPU 0 instructions: 80000001 cycles: 91961761 heartbeat IPC: 0.379033 cumulative IPC: 0.377547 (Simulation time: 0 hr 7 min 9 sec) 
Heartbeat CPU 0 instructions: 90000000 cycles: 116422423 heartbeat IPC: 0.40882 cumulative IPC: 0.384908 (Simulation time: 0 hr 8 min 24 sec) 
Heartbeat CPU 0 instructions: 100000000 cycles: 143358960 heartbeat IPC: 0.371243 cumulative IPC: 0.382095 (Simulation time: 0 hr 9 min 43 sec) 
Heartbeat CPU 0 instructions: 110000000 cycles: 169250708 heartbeat IPC: 0.386224 cumulative IPC: 0.382777 (Simulation time: 0 hr 11 min 2 sec) 
Heartbeat CPU 0 instructions: 120000001 cycles: 194907335 heartbeat IPC: 0.389763 cumulative IPC: 0.38376 (Simulation time: 0 hr 12 min 20 sec) 
Heartbeat CPU 0 instructions: 130000002 cycles: 221008091 heartbeat IPC: 0.383131 cumulative IPC: 0.383681 (Simulation time: 0 hr 13 min 39 sec) 
Heartbeat CPU 0 instructions: 140000000 cycles: 247140073 heartbeat IPC: 0.382673 cumulative IPC: 0.383569 (Simulation time: 0 hr 14 min 58 sec) 
Heartbeat CPU 0 instructions: 150000002 cycles: 273253791 heartbeat IPC: 0.382941 cumulative IPC: 0.383506 (Simulation time: 0 hr 16 min 17 sec) 
Simulation finished CPU 0 instructions: 100000004 cycles: 260752335 cumulative IPC: 0.383506 (Simulation time: 0 hr 16 min 17 sec) 

Simulation complete CPU 0 instructions: 100000004 cycles: 260752335 (Simulation time: 0 hr 16 min 17 sec) 


ChampSim completed all CPUs

Saving instructions large page distribution to /home/bsc/bsc018186/scratch/itp_asplos25_AE/dump/smt_srv12_ap_srv259_ap_1024i.pdst...
Saving data large page distribution to /home/bsc/bsc018186/scratch/itp_asplos25_AE/dump/smt_srv12_ap_srv259_ap_1024i.pdst...
=== Simulation ===
CPU 0 runs /gpfs/projects/bsc18/MN4/bsc18/romol/ChampSim/traces/qualcomm_srv/smt_srv12_ap_srv259_ap_1024i.champsimtrace.xz

Region of Interest Statistics

CPU 0 cumulative IPC: 0.383506 instructions: 100000004 cycles: 260752335
CPU 0 Branch Prediction Accuracy: 75.8292% MPKI: 43.7686 Average ROB Occupancy at Mispredict: 10.9323
Branch type MPKI
BRANCH_DIRECT_JUMP: 1.39258
BRANCH_INDIRECT: 22.954
BRANCH_CONDITIONAL: 12.2272
BRANCH_DIRECT_CALL: 2.61101
BRANCH_INDIRECT_CALL: 1.11504
BRANCH_RETURN: 3.46884

Instructions large pages: 0
Instructions small pages: 11133
Large page distribution for instructions: 0%

Data large pages: 0
Data small pages: 9495
Large page distribution for data: 0%

cpu0_L1I TOTAL       ACCESS:   39042667  HIT:   30119728  MISS:    8922939  iACCESS:   39042667  iHIT:   30119728  iMISS:    8922939  dACCESS:          0  dHIT:          0  dMISS:          0  itACCESS:          0  itHIT:          0  itMISS:          0  dtACCESS:          0  dtHIT:          0  dtMISS:          0
cpu0_L1I LOAD         ACCESS:   11648650  HIT:    9208594  MISS:    2440056  iACCESS:   11648650  iHIT:    9208594  iMISS:    2440056  dACCESS:          0  dHIT:          0  dMISS:          0  itACCESS:          0  itHIT:          0  itMISS:          0  dtACCESS:          0  dtHIT:          0  dtMISS:          0
cpu0_L1I RFO          ACCESS:          0  HIT:          0  MISS:          0  iACCESS:          0  iHIT:          0  iMISS:          0  dACCESS:          0  dHIT:          0  dMISS:          0  itACCESS:          0  itHIT:          0  itMISS:          0  dtACCESS:          0  dtHIT:          0  dtMISS:          0
cpu0_L1I PREFETCH     ACCESS:   27394017  HIT:   20911134  MISS:    6482883  iACCESS:   27394017  iHIT:   20911134  iMISS:    6482883  dACCESS:          0  dHIT:          0  dMISS:          0  itACCESS:          0  itHIT:          0  itMISS:          0  dtACCESS:          0  dtHIT:          0  dtMISS:          0
cpu0_L1I WRITE        ACCESS:          0  HIT:          0  MISS:          0  iACCESS:          0  iHIT:          0  iMISS:          0  dACCESS:          0  dHIT:          0  dMISS:          0  itACCESS:          0  itHIT:          0  itMISS:          0  dtACCESS:          0  dtHIT:          0  dtMISS:          0
cpu0_L1I TRANSLATION  ACCESS:          0  HIT:          0  MISS:          0  iACCESS:          0  iHIT:          0  iMISS:          0  dACCESS:          0  dHIT:          0  dMISS:          0  itACCESS:          0  itHIT:          0  itMISS:          0  dtACCESS:          0  dtHIT:          0  dtMISS:          0
cpu0_L1I PREFETCH  REQUESTED:   30125813  ISSUED:   30125586  CROSSED:          0  USEFUL:    2208049  USELESS:     765312
cpu0_L1I AVERAGE iMISS LATENCY: 20.8468 cycles
cpu0_L1I AVERAGE dMISS LATENCY: 0 cycles
cpu0_L1I AVERAGE itMISS LATENCY: 0 cycles
cpu0_L1I AVERAGE dtMISS LATENCY: 0 cycles
cpu0_L1I PAGE CROSSINGS (TLB HIT):         0 
cpu0_L1I PAGE CROSSINGS (TLB MISS):         0 
cpu0_L1I AVERAGE MISS LATENCY: 20.8468 cycles
cpu0_ITLB TOTAL       ACCESS:   32959387  HIT:   30718195  MISS:    2241192  iACCESS:   32959387  iHIT:   30718195  iMISS:    2241192  dACCESS:          0  dHIT:          0  dMISS:          0  itACCESS:          0  itHIT:          0  itMISS:          0  dtACCESS:          0  dtHIT:          0  dtMISS:          0
cpu0_ITLB LOAD         ACCESS:   32959387  HIT:   30718195  MISS:    2241192  iACCESS:   32959387  iHIT:   30718195  iMISS:    2241192  dACCESS:          0  dHIT:          0  dMISS:          0  itACCESS:          0  itHIT:          0  itMISS:          0  dtACCESS:          0  dtHIT:          0  dtMISS:          0
cpu0_ITLB RFO          ACCESS:          0  HIT:          0  MISS:          0  iACCESS:          0  iHIT:          0  iMISS:          0  dACCESS:          0  dHIT:          0  dMISS:          0  itACCESS:          0  itHIT:          0  itMISS:          0  dtACCESS:          0  dtHIT:          0  dtMISS:          0
cpu0_ITLB PREFETCH     ACCESS:          0  HIT:          0  MISS:          0  iACCESS:          0  iHIT:          0  iMISS:          0  dACCESS:          0  dHIT:          0  dMISS:          0  itACCESS:          0  itHIT:          0  itMISS:          0  dtACCESS:          0  dtHIT:          0  dtMISS:          0
cpu0_ITLB WRITE        ACCESS:          0  HIT:          0  MISS:          0  iACCESS:          0  iHIT:          0  iMISS:          0  dACCESS:          0  dHIT:          0  dMISS:          0  itACCESS:          0  itHIT:          0  itMISS:          0  dtACCESS:          0  dtHIT:          0  dtMISS:          0
cpu0_ITLB TRANSLATION  ACCESS:          0  HIT:          0  MISS:          0  iACCESS:          0  iHIT:          0  iMISS:          0  dACCESS:          0  dHIT:          0  dMISS:          0  itACCESS:          0  itHIT:          0  itMISS:          0  dtACCESS:          0  dtHIT:          0  dtMISS:          0
cpu0_ITLB PREFETCH  REQUESTED:          0  ISSUED:          0  CROSSED:          0  USEFUL:     389450  USELESS:      81631
cpu0_ITLB AVERAGE iMISS LATENCY: 5.42033 cycles
cpu0_ITLB AVERAGE dMISS LATENCY: 0 cycles
cpu0_ITLB AVERAGE itMISS LATENCY: 0 cycles
cpu0_ITLB AVERAGE dtMISS LATENCY: 0 cycles
cpu0_ITLB PAGE CROSSINGS (TLB HIT):         0 
cpu0_ITLB PAGE CROSSINGS (TLB MISS):         0 
cpu0_ITLB AVERAGE MISS LATENCY: 5.42033 cycles
cpu0_DTLB TOTAL       ACCESS:   28925639  HIT:   25376489  MISS:    3549150  iACCESS:          0  iHIT:          0  iMISS:          0  dACCESS:   28925639  dHIT:   25376489  dMISS:    3549150  itACCESS:          0  itHIT:          0  itMISS:          0  dtACCESS:          0  dtHIT:          0  dtMISS:          0
cpu0_DTLB LOAD         ACCESS:   28925639  HIT:   25376489  MISS:    3549150  iACCESS:          0  iHIT:          0  iMISS:          0  dACCESS:   28925639  dHIT:   25376489  dMISS:    3549150  itACCESS:          0  itHIT:          0  itMISS:          0  dtACCESS:          0  dtHIT:          0  dtMISS:          0
cpu0_DTLB RFO          ACCESS:          0  HIT:          0  MISS:          0  iACCESS:          0  iHIT:          0  iMISS:          0  dACCESS:          0  dHIT:          0  dMISS:          0  itACCESS:          0  itHIT:          0  itMISS:          0  dtACCESS:          0  dtHIT:          0  dtMISS:          0
cpu0_DTLB PREFETCH     ACCESS:          0  HIT:          0  MISS:          0  iACCESS:          0  iHIT:          0  iMISS:          0  dACCESS:          0  dHIT:          0  dMISS:          0  itACCESS:          0  itHIT:          0  itMISS:          0  dtACCESS:          0  dtHIT:          0  dtMISS:          0
cpu0_DTLB WRITE        ACCESS:          0  HIT:          0  MISS:          0  iACCESS:          0  iHIT:          0  iMISS:          0  dACCESS:          0  dHIT:          0  dMISS:          0  itACCESS:          0  itHIT:          0  itMISS:          0  dtACCESS:          0  dtHIT:          0  dtMISS:          0
cpu0_DTLB TRANSLATION  ACCESS:          0  HIT:          0  MISS:          0  iACCESS:          0  iHIT:          0  iMISS:          0  dACCESS:          0  dHIT:          0  dMISS:          0  itACCESS:          0  itHIT:          0  itMISS:          0  dtACCESS:          0  dtHIT:          0  dtMISS:          0
cpu0_DTLB PREFETCH  REQUESTED:          0  ISSUED:          0  CROSSED:          0  USEFUL:          0  USELESS:          0
cpu0_DTLB AVERAGE iMISS LATENCY: 0 cycles
cpu0_DTLB AVERAGE dMISS LATENCY: 18.8938 cycles
cpu0_DTLB AVERAGE itMISS LATENCY: 0 cycles
cpu0_DTLB AVERAGE dtMISS LATENCY: 0 cycles
cpu0_DTLB PAGE CROSSINGS (TLB HIT):         0 
cpu0_DTLB PAGE CROSSINGS (TLB MISS):         0 
cpu0_DTLB AVERAGE MISS LATENCY: 18.8938 cycles
cpu0_STLB TOTAL       ACCESS:    2545007  HIT:    2183310  MISS:     361697  iACCESS:     471089  iHIT:     419117  iMISS:      51972  dACCESS:    2073918  dHIT:    1764193  dMISS:     309725  itACCESS:          0  itHIT:          0  itMISS:          0  dtACCESS:          0  dtHIT:          0  dtMISS:          0
cpu0_STLB LOAD         ACCESS:    2545007  HIT:    2183310  MISS:     361697  iACCESS:     471089  iHIT:     419117  iMISS:      51972  dACCESS:    2073918  dHIT:    1764193  dMISS:     309725  itACCESS:          0  itHIT:          0  itMISS:          0  dtACCESS:          0  dtHIT:          0  dtMISS:          0
cpu0_STLB RFO          ACCESS:          0  HIT:          0  MISS:          0  iACCESS:          0  iHIT:          0  iMISS:          0  dACCESS:          0  dHIT:          0  dMISS:          0  itACCESS:          0  itHIT:          0  itMISS:          0  dtACCESS:          0  dtHIT:          0  dtMISS:          0
cpu0_STLB PREFETCH     ACCESS:          0  HIT:          0  MISS:          0  iACCESS:          0  iHIT:          0  iMISS:          0  dACCESS:          0  dHIT:          0  dMISS:          0  itACCESS:          0  itHIT:          0  itMISS:          0  dtACCESS:          0  dtHIT:          0  dtMISS:          0
cpu0_STLB WRITE        ACCESS:          0  HIT:          0  MISS:          0  iACCESS:          0  iHIT:          0  iMISS:          0  dACCESS:          0  dHIT:          0  dMISS:          0  itACCESS:          0  itHIT:          0  itMISS:          0  dtACCESS:          0  dtHIT:          0  dtMISS:          0
cpu0_STLB TRANSLATION  ACCESS:          0  HIT:          0  MISS:          0  iACCESS:          0  iHIT:          0  iMISS:          0  dACCESS:          0  dHIT:          0  dMISS:          0  itACCESS:          0  itHIT:          0  itMISS:          0  dtACCESS:          0  dtHIT:          0  dtMISS:          0
cpu0_STLB PREFETCH  REQUESTED:          0  ISSUED:          0  CROSSED:          0  USEFUL:          0  USELESS:          0
cpu0_STLB AVERAGE iMISS LATENCY: 23.3665 cycles
cpu0_STLB AVERAGE dMISS LATENCY: 139.158 cycles
cpu0_STLB AVERAGE itMISS LATENCY: 0 cycles
cpu0_STLB AVERAGE dtMISS LATENCY: 0 cycles
cpu0_STLB PAGE CROSSINGS (TLB HIT):         0 
cpu0_STLB PAGE CROSSINGS (TLB MISS):         0 
cpu0_STLB AVERAGE MISS LATENCY: 162.524 cycles
cpu0_L1D TOTAL       ACCESS:   44996492  HIT:   39189280  MISS:    5807212  iACCESS:          0  iHIT:          0  iMISS:          0  dACCESS:   44436046  dHIT:   39161782  dMISS:    5274264  itACCESS:      62725  itHIT:       4415  itMISS:      58310  dtACCESS:     497721  dtHIT:      23083  dtMISS:     474638
cpu0_L1D LOAD         ACCESS:   20342092  HIT:   17980716  MISS:    2361376  iACCESS:          0  iHIT:          0  iMISS:          0  dACCESS:   20342092  dHIT:   17980716  dMISS:    2361376  itACCESS:          0  itHIT:          0  itMISS:          0  dtACCESS:          0  dtHIT:          0  dtMISS:          0
cpu0_L1D RFO          ACCESS:          0  HIT:          0  MISS:          0  iACCESS:          0  iHIT:          0  iMISS:          0  dACCESS:          0  dHIT:          0  dMISS:          0  itACCESS:          0  itHIT:          0  itMISS:          0  dtACCESS:          0  dtHIT:          0  dtMISS:          0
cpu0_L1D PREFETCH     ACCESS:   13950582  HIT:   11618249  MISS:    2332333  iACCESS:          0  iHIT:          0  iMISS:          0  dACCESS:   13950582  dHIT:   11618249  dMISS:    2332333  itACCESS:          0  itHIT:          0  itMISS:          0  dtACCESS:          0  dtHIT:          0  dtMISS:          0
cpu0_L1D WRITE        ACCESS:   10143372  HIT:    9562817  MISS:     580555  iACCESS:          0  iHIT:          0  iMISS:          0  dACCESS:   10143372  dHIT:    9562817  dMISS:     580555  itACCESS:          0  itHIT:          0  itMISS:          0  dtACCESS:          0  dtHIT:          0  dtMISS:          0
cpu0_L1D TRANSLATION  ACCESS:     560446  HIT:      27498  MISS:     532948  iACCESS:          0  iHIT:          0  iMISS:          0  dACCESS:          0  dHIT:          0  dMISS:          0  itACCESS:      62725  itHIT:       4415  itMISS:      58310  dtACCESS:     497721  dtHIT:      23083  dtMISS:     474638
cpu0_L1D PREFETCH  REQUESTED:   20342092  ISSUED:   18525129  CROSSED:          0  USEFUL:     358457  USELESS:     927138
cpu0_L1D AVERAGE iMISS LATENCY: 0 cycles
cpu0_L1D AVERAGE dMISS LATENCY: 47.7808 cycles
cpu0_L1D AVERAGE itMISS LATENCY: 1.34338 cycles
cpu0_L1D AVERAGE dtMISS LATENCY: 7.80082 cycles
cpu0_L1D PAGE CROSSINGS (TLB HIT):         0 
cpu0_L1D PAGE CROSSINGS (TLB MISS):         0 
cpu0_L1D AVERAGE MISS LATENCY: 56.925 cycles
cpu0_L2C TOTAL       ACCESS:    8601726  HIT:    2533948  MISS:    6067778  iACCESS:    3778657  iHIT:    1445229  iMISS:    2333428  dACCESS:    4320498  dHIT:     861282  dMISS:    3459216  itACCESS:      57881  itHIT:      14923  itMISS:      42958  dtACCESS:     444690  dtHIT:     212514  dtMISS:     232176
cpu0_L2C LOAD         ACCESS:    2047745  HIT:     473818  MISS:    1573927  iACCESS:     842772  iHIT:     281860  iMISS:     560912  dACCESS:    1204973  dHIT:     191958  dMISS:    1013015  itACCESS:          0  itHIT:          0  itMISS:          0  dtACCESS:          0  dtHIT:          0  dtMISS:          0
cpu0_L2C RFO          ACCESS:     214638  HIT:      30688  MISS:     183950  iACCESS:          0  iHIT:          0  iMISS:          0  dACCESS:     214638  dHIT:      30688  dMISS:     183950  itACCESS:          0  itHIT:          0  itMISS:          0  dtACCESS:          0  dtHIT:          0  dtMISS:          0
cpu0_L2C PREFETCH     ACCESS:    5501047  HIT:    1680515  MISS:    3820532  iACCESS:    2935885  iHIT:    1163369  iMISS:    1772516  dACCESS:    2565162  dHIT:     517146  dMISS:    2048016  itACCESS:          0  itHIT:          0  itMISS:          0  dtACCESS:          0  dtHIT:          0  dtMISS:          0
cpu0_L2C WRITE        ACCESS:     335725  HIT:     121490  MISS:     214235  iACCESS:          0  iHIT:          0  iMISS:          0  dACCESS:     335725  dHIT:     121490  dMISS:     214235  itACCESS:          0  itHIT:          0  itMISS:          0  dtACCESS:          0  dtHIT:          0  dtMISS:          0
cpu0_L2C TRANSLATION  ACCESS:     502571  HIT:     227437  MISS:     275134  iACCESS:          0  iHIT:          0  iMISS:          0  dACCESS:          0  dHIT:          0  dMISS:          0  itACCESS:      57881  itHIT:      14923  itMISS:      42958  dtACCESS:     444690  dtHIT:     212514  dtMISS:     232176
cpu0_L2C PREFETCH  REQUESTED:    1537742  ISSUED:    1537739  CROSSED:          0  USEFUL:     383913  USELESS:     425939
cpu0_L2C AVERAGE iMISS LATENCY: 25.1828 cycles
cpu0_L2C AVERAGE dMISS LATENCY: 54.3574 cycles
cpu0_L2C AVERAGE itMISS LATENCY: 1.19244 cycles
cpu0_L2C AVERAGE dtMISS LATENCY: 6.76461 cycles
cpu0_L2C PAGE CROSSINGS (TLB HIT):         0 
cpu0_L2C PAGE CROSSINGS (TLB MISS):         0 
cpu0_L2C AVERAGE MISS LATENCY: 87.4972 cycles
LLC TOTAL       ACCESS:    5933913  HIT:    3493325  MISS:    2440588  iACCESS:    2254663  iHIT:    1554575  iMISS:     700088  dACCESS:    3404116  dHIT:    1891942  dMISS:    1512174  itACCESS:      42958  itHIT:       6927  itMISS:      36031  dtACCESS:     232176  dtHIT:      39881  dtMISS:     192295
LLC LOAD         ACCESS:    1566371  HIT:     963205  MISS:     603166  iACCESS:     559633  iHIT:     415180  iMISS:     144453  dACCESS:    1006738  dHIT:     548025  dMISS:     458713  itACCESS:          0  itHIT:          0  itMISS:          0  dtACCESS:          0  dtHIT:          0  dtMISS:          0
LLC RFO          ACCESS:     183935  HIT:      92321  MISS:      91614  iACCESS:          0  iHIT:          0  iMISS:          0  dACCESS:     183935  dHIT:      92321  dMISS:      91614  itACCESS:          0  itHIT:          0  itMISS:          0  dtACCESS:          0  dtHIT:          0  dtMISS:          0
LLC PREFETCH     ACCESS:    3639876  HIT:    2126922  MISS:    1512954  iACCESS:    1695030  iHIT:    1139395  iMISS:     555635  dACCESS:    1944846  dHIT:     987527  dMISS:     957319  itACCESS:          0  itHIT:          0  itMISS:          0  dtACCESS:          0  dtHIT:          0  dtMISS:          0
LLC WRITE        ACCESS:     268597  HIT:     264069  MISS:       4528  iACCESS:          0  iHIT:          0  iMISS:          0  dACCESS:     268597  dHIT:     264069  dMISS:       4528  itACCESS:          0  itHIT:          0  itMISS:          0  dtACCESS:          0  dtHIT:          0  dtMISS:          0
LLC TRANSLATION  ACCESS:     275134  HIT:      46808  MISS:     228326  iACCESS:          0  iHIT:          0  iMISS:          0  dACCESS:          0  dHIT:          0  dMISS:          0  itACCESS:      42958  itHIT:       6927  itMISS:      36031  dtACCESS:     232176  dtHIT:      39881  dtMISS:     192295
LLC PREFETCH  REQUESTED:          0  ISSUED:          0  CROSSED:          0  USEFUL:          0  USELESS:          0
LLC AVERAGE iMISS LATENCY: 44.6754 cycles
LLC AVERAGE dMISS LATENCY: 111.222 cycles
LLC AVERAGE itMISS LATENCY: 2.6168 cycles
LLC AVERAGE dtMISS LATENCY: 14.9393 cycles
LLC PAGE CROSSINGS (TLB HIT):         0 
LLC PAGE CROSSINGS (TLB MISS):         0 
LLC AVERAGE MISS LATENCY: 173.453 cycles

PageTableWalker TOTAL       ACCESS:     171230  
PageTableWalker AVERAGE LATENCY: 5.89365 cycles
PageTableWalker TOTAL LATENCY: 1009168 cycles

DRAM Statistics
Channel 0
 RQ ROW_BUFFER_HIT:     538926
  ROW_BUFFER_MISS:    1877411
 AVG DBUS CONGESTED CYCLE:    3.64999
 WQ ROW_BUFFER_HIT:      65069
  ROW_BUFFER_MISS:      61506  FULL:          0

