last_page:0x200000000000000
VMEM_RES_CAP:0x100000
PAGE_SIZE:4096
LOG2_PAGE_SIZE:12
LOG2_PAGE_TABLE_SIZE:9
page_table_levels:5
WARNING: physical memory size is smaller than virtual memory size
FDiP enabled with aggresivity 16

*** ChampSim Multicore Out-of-Order Simulator ***

Warmup Instructions: 50000000
Simulation Instructions: 100000000
Number of CPUs: 1
Small page size: 4096
Large page size: 2097152

CPU 0 Bimodal branch predictor
Basic BTB sets: 1024 ways: 8 indirect buffer size: 4096 RAS size: 64
Instruction page size distrubution: 0
Loading instruction page size distribution from /home/bsc/bsc018186/scratch/itp_asplos25_AE/dump/smt_srv537_ap_srv298_ap_1024i.pdst
Data page size distrubution: 0
Loading data page size distribution from /home/bsc/bsc018186/scratch/itp_asplos25_AE/dump/smt_srv537_ap_srv298_ap_1024i.pdst
cpu0_L2C IP-based stride prefetcher
cpu0_L2C is using PTP replacement policy:
	TLB_STRESS_THRESHOLD:0
	PTE_EVICTION_RATIO:0
cpu0_L1D next line prefetcher
cpu0_STLB using iTP with max lru@8
cpu0_STLB using iTP with instr@0 and data@2
Init sat counter with 3 bits (max:50).
cpu0_L1I next line prefetcher
Off-chip DRAM Size: 4 GiB Channels: 1 Width: 64-bit Data Rate: 3200 MT/s
Heartbeat CPU 0 instructions: 10000001 cycles: 2500367 heartbeat IPC: 3.99942 cumulative IPC: 3.99942 (Simulation time: 0 hr 0 min 39 sec) 
Heartbeat CPU 0 instructions: 20000003 cycles: 5000429 heartbeat IPC: 3.99991 cumulative IPC: 3.99966 (Simulation time: 0 hr 1 min 21 sec) 
Heartbeat CPU 0 instructions: 30000003 cycles: 7500459 heartbeat IPC: 3.99996 cumulative IPC: 3.99976 (Simulation time: 0 hr 2 min 3 sec) 
Heartbeat CPU 0 instructions: 40000000 cycles: 10000532 heartbeat IPC: 3.99989 cumulative IPC: 3.99979 (Simulation time: 0 hr 2 min 46 sec) 
Heartbeat CPU 0 instructions: 50000003 cycles: 12500625 heartbeat IPC: 3.99986 cumulative IPC: 3.99981 (Simulation time: 0 hr 3 min 28 sec) 
Warmup finished CPU 0 instructions: 50000003 cycles: 12500626 cumulative IPC: 3.9998 (Simulation time: 0 hr 3 min 28 sec) 

Warmup complete CPU 0 instructions: 50000003 cycles: 12500626 (Simulation time: 0 hr 3 min 28 sec) 

Heartbeat CPU 0 instructions: 60000003 cycles: 40439110 heartbeat IPC: 0.35793 cumulative IPC: 0.35793 (Simulation time: 0 hr 4 min 52 sec) 
Heartbeat CPU 0 instructions: 70000001 cycles: 67909614 heartbeat IPC: 0.364027 cumulative IPC: 0.360953 (Simulation time: 0 hr 6 min 14 sec) 
Heartbeat CPU 0 instructions: 80000001 cycles: 94748108 heartbeat IPC: 0.3726 cumulative IPC: 0.364753 (Simulation time: 0 hr 7 min 36 sec) 
Heartbeat CPU 0 instructions: 90000000 cycles: 122656797 heartbeat IPC: 0.358312 cumulative IPC: 0.363121 (Simulation time: 0 hr 8 min 56 sec) 
Heartbeat CPU 0 instructions: 100000003 cycles: 150131351 heartbeat IPC: 0.363974 cumulative IPC: 0.363291 (Simulation time: 0 hr 10 min 14 sec) 
Heartbeat CPU 0 instructions: 110000003 cycles: 179454807 heartbeat IPC: 0.341024 cumulative IPC: 0.359381 (Simulation time: 0 hr 11 min 34 sec) 
Heartbeat CPU 0 instructions: 120000000 cycles: 207045759 heartbeat IPC: 0.362438 cumulative IPC: 0.359814 (Simulation time: 0 hr 12 min 52 sec) 
Heartbeat CPU 0 instructions: 130000003 cycles: 235967702 heartbeat IPC: 0.345759 cumulative IPC: 0.357995 (Simulation time: 0 hr 14 min 12 sec) 
Heartbeat CPU 0 instructions: 140000003 cycles: 264560519 heartbeat IPC: 0.349739 cumulative IPC: 0.357058 (Simulation time: 0 hr 15 min 31 sec) 
Heartbeat CPU 0 instructions: 150000003 cycles: 293541430 heartbeat IPC: 0.345055 cumulative IPC: 0.355821 (Simulation time: 0 hr 16 min 51 sec) 
Simulation finished CPU 0 instructions: 100000000 cycles: 281040805 cumulative IPC: 0.355821 (Simulation time: 0 hr 16 min 51 sec) 

Simulation complete CPU 0 instructions: 100000000 cycles: 281040805 (Simulation time: 0 hr 16 min 51 sec) 


ChampSim completed all CPUs

Saving instructions large page distribution to /home/bsc/bsc018186/scratch/itp_asplos25_AE/dump/smt_srv537_ap_srv298_ap_1024i.pdst...
Saving data large page distribution to /home/bsc/bsc018186/scratch/itp_asplos25_AE/dump/smt_srv537_ap_srv298_ap_1024i.pdst...
=== Simulation ===
CPU 0 runs /gpfs/projects/bsc18/MN4/bsc18/romol/ChampSim/traces/qualcomm_srv/smt_srv537_ap_srv298_ap_1024i.champsimtrace.xz

Region of Interest Statistics

CPU 0 cumulative IPC: 0.355821 instructions: 100000000 cycles: 281040805
CPU 0 Branch Prediction Accuracy: 76.2198% MPKI: 42.8862 Average ROB Occupancy at Mispredict: 11.4729
Branch type MPKI
BRANCH_DIRECT_JUMP: 1.26172
BRANCH_INDIRECT: 22.4047
BRANCH_CONDITIONAL: 12.4369
BRANCH_DIRECT_CALL: 2.43831
BRANCH_INDIRECT_CALL: 0.944601
BRANCH_RETURN: 3.40007

Instructions large pages: 0
Instructions small pages: 13840
Large page distribution for instructions: 0%

Data large pages: 0
Data small pages: 12554
Large page distribution for data: 0%

cpu0_L1I TOTAL       ACCESS:   39058236  HIT:   30356786  MISS:    8701450  iACCESS:   39058236  iHIT:   30356786  iMISS:    8701450  dACCESS:          0  dHIT:          0  dMISS:          0  itACCESS:          0  itHIT:          0  itMISS:          0  dtACCESS:          0  dtHIT:          0  dtMISS:          0
cpu0_L1I LOAD         ACCESS:   11735451  HIT:    9350231  MISS:    2385220  iACCESS:   11735451  iHIT:    9350231  iMISS:    2385220  dACCESS:          0  dHIT:          0  dMISS:          0  itACCESS:          0  itHIT:          0  itMISS:          0  dtACCESS:          0  dtHIT:          0  dtMISS:          0
cpu0_L1I RFO          ACCESS:          0  HIT:          0  MISS:          0  iACCESS:          0  iHIT:          0  iMISS:          0  dACCESS:          0  dHIT:          0  dMISS:          0  itACCESS:          0  itHIT:          0  itMISS:          0  dtACCESS:          0  dtHIT:          0  dtMISS:          0
cpu0_L1I PREFETCH     ACCESS:   27322785  HIT:   21006555  MISS:    6316230  iACCESS:   27322785  iHIT:   21006555  iMISS:    6316230  dACCESS:          0  dHIT:          0  dMISS:          0  itACCESS:          0  itHIT:          0  itMISS:          0  dtACCESS:          0  dtHIT:          0  dtMISS:          0
cpu0_L1I WRITE        ACCESS:          0  HIT:          0  MISS:          0  iACCESS:          0  iHIT:          0  iMISS:          0  dACCESS:          0  dHIT:          0  dMISS:          0  itACCESS:          0  itHIT:          0  itMISS:          0  dtACCESS:          0  dtHIT:          0  dtMISS:          0
cpu0_L1I TRANSLATION  ACCESS:          0  HIT:          0  MISS:          0  iACCESS:          0  iHIT:          0  iMISS:          0  dACCESS:          0  dHIT:          0  dMISS:          0  itACCESS:          0  itHIT:          0  itMISS:          0  dtACCESS:          0  dtHIT:          0  dtMISS:          0
cpu0_L1I PREFETCH  REQUESTED:   30191816  ISSUED:   30191802  CROSSED:          0  USEFUL:    2195314  USELESS:     757150
cpu0_L1I AVERAGE iMISS LATENCY: 22.6533 cycles
cpu0_L1I AVERAGE dMISS LATENCY: 0 cycles
cpu0_L1I AVERAGE itMISS LATENCY: 0 cycles
cpu0_L1I AVERAGE dtMISS LATENCY: 0 cycles
cpu0_L1I PAGE CROSSINGS (TLB HIT):         0 
cpu0_L1I PAGE CROSSINGS (TLB MISS):         0 
cpu0_L1I AVERAGE MISS LATENCY: 22.6533 cycles
cpu0_ITLB TOTAL       ACCESS:   32967209  HIT:   30748197  MISS:    2219012  iACCESS:   32967209  iHIT:   30748197  iMISS:    2219012  dACCESS:          0  dHIT:          0  dMISS:          0  itACCESS:          0  itHIT:          0  itMISS:          0  dtACCESS:          0  dtHIT:          0  dtMISS:          0
cpu0_ITLB LOAD         ACCESS:   32967209  HIT:   30748197  MISS:    2219012  iACCESS:   32967209  iHIT:   30748197  iMISS:    2219012  dACCESS:          0  dHIT:          0  dMISS:          0  itACCESS:          0  itHIT:          0  itMISS:          0  dtACCESS:          0  dtHIT:          0  dtMISS:          0
cpu0_ITLB RFO          ACCESS:          0  HIT:          0  MISS:          0  iACCESS:          0  iHIT:          0  iMISS:          0  dACCESS:          0  dHIT:          0  dMISS:          0  itACCESS:          0  itHIT:          0  itMISS:          0  dtACCESS:          0  dtHIT:          0  dtMISS:          0
cpu0_ITLB PREFETCH     ACCESS:          0  HIT:          0  MISS:          0  iACCESS:          0  iHIT:          0  iMISS:          0  dACCESS:          0  dHIT:          0  dMISS:          0  itACCESS:          0  itHIT:          0  itMISS:          0  dtACCESS:          0  dtHIT:          0  dtMISS:          0
cpu0_ITLB WRITE        ACCESS:          0  HIT:          0  MISS:          0  iACCESS:          0  iHIT:          0  iMISS:          0  dACCESS:          0  dHIT:          0  dMISS:          0  itACCESS:          0  itHIT:          0  itMISS:          0  dtACCESS:          0  dtHIT:          0  dtMISS:          0
cpu0_ITLB TRANSLATION  ACCESS:          0  HIT:          0  MISS:          0  iACCESS:          0  iHIT:          0  iMISS:          0  dACCESS:          0  dHIT:          0  dMISS:          0  itACCESS:          0  itHIT:          0  itMISS:          0  dtACCESS:          0  dtHIT:          0  dtMISS:          0
cpu0_ITLB PREFETCH  REQUESTED:          0  ISSUED:          0  CROSSED:          0  USEFUL:     384542  USELESS:      77851
cpu0_ITLB AVERAGE iMISS LATENCY: 5.96406 cycles
cpu0_ITLB AVERAGE dMISS LATENCY: 0 cycles
cpu0_ITLB AVERAGE itMISS LATENCY: 0 cycles
cpu0_ITLB AVERAGE dtMISS LATENCY: 0 cycles
cpu0_ITLB PAGE CROSSINGS (TLB HIT):         0 
cpu0_ITLB PAGE CROSSINGS (TLB MISS):         0 
cpu0_ITLB AVERAGE MISS LATENCY: 5.96406 cycles
cpu0_DTLB TOTAL       ACCESS:   28751210  HIT:   25259129  MISS:    3492081  iACCESS:          0  iHIT:          0  iMISS:          0  dACCESS:   28751210  dHIT:   25259129  dMISS:    3492081  itACCESS:          0  itHIT:          0  itMISS:          0  dtACCESS:          0  dtHIT:          0  dtMISS:          0
cpu0_DTLB LOAD         ACCESS:   28751210  HIT:   25259129  MISS:    3492081  iACCESS:          0  iHIT:          0  iMISS:          0  dACCESS:   28751210  dHIT:   25259129  dMISS:    3492081  itACCESS:          0  itHIT:          0  itMISS:          0  dtACCESS:          0  dtHIT:          0  dtMISS:          0
cpu0_DTLB RFO          ACCESS:          0  HIT:          0  MISS:          0  iACCESS:          0  iHIT:          0  iMISS:          0  dACCESS:          0  dHIT:          0  dMISS:          0  itACCESS:          0  itHIT:          0  itMISS:          0  dtACCESS:          0  dtHIT:          0  dtMISS:          0
cpu0_DTLB PREFETCH     ACCESS:          0  HIT:          0  MISS:          0  iACCESS:          0  iHIT:          0  iMISS:          0  dACCESS:          0  dHIT:          0  dMISS:          0  itACCESS:          0  itHIT:          0  itMISS:          0  dtACCESS:          0  dtHIT:          0  dtMISS:          0
cpu0_DTLB WRITE        ACCESS:          0  HIT:          0  MISS:          0  iACCESS:          0  iHIT:          0  iMISS:          0  dACCESS:          0  dHIT:          0  dMISS:          0  itACCESS:          0  itHIT:          0  itMISS:          0  dtACCESS:          0  dtHIT:          0  dtMISS:          0
cpu0_DTLB TRANSLATION  ACCESS:          0  HIT:          0  MISS:          0  iACCESS:          0  iHIT:          0  iMISS:          0  dACCESS:          0  dHIT:          0  dMISS:          0  itACCESS:          0  itHIT:          0  itMISS:          0  dtACCESS:          0  dtHIT:          0  dtMISS:          0
cpu0_DTLB PREFETCH  REQUESTED:          0  ISSUED:          0  CROSSED:          0  USEFUL:          0  USELESS:          0
cpu0_DTLB AVERAGE iMISS LATENCY: 0 cycles
cpu0_DTLB AVERAGE dMISS LATENCY: 26.9634 cycles
cpu0_DTLB AVERAGE itMISS LATENCY: 0 cycles
cpu0_DTLB AVERAGE dtMISS LATENCY: 0 cycles
cpu0_DTLB PAGE CROSSINGS (TLB HIT):         0 
cpu0_DTLB PAGE CROSSINGS (TLB MISS):         0 
cpu0_DTLB AVERAGE MISS LATENCY: 26.9634 cycles
cpu0_STLB TOTAL       ACCESS:    2430766  HIT:    2090993  MISS:     339773  iACCESS:     462396  iHIT:     412624  iMISS:      49772  dACCESS:    1968370  dHIT:    1678369  dMISS:     290001  itACCESS:          0  itHIT:          0  itMISS:          0  dtACCESS:          0  dtHIT:          0  dtMISS:          0
cpu0_STLB LOAD         ACCESS:    2430766  HIT:    2090993  MISS:     339773  iACCESS:     462396  iHIT:     412624  iMISS:      49772  dACCESS:    1968370  dHIT:    1678369  dMISS:     290001  itACCESS:          0  itHIT:          0  itMISS:          0  dtACCESS:          0  dtHIT:          0  dtMISS:          0
cpu0_STLB RFO          ACCESS:          0  HIT:          0  MISS:          0  iACCESS:          0  iHIT:          0  iMISS:          0  dACCESS:          0  dHIT:          0  dMISS:          0  itACCESS:          0  itHIT:          0  itMISS:          0  dtACCESS:          0  dtHIT:          0  dtMISS:          0
cpu0_STLB PREFETCH     ACCESS:          0  HIT:          0  MISS:          0  iACCESS:          0  iHIT:          0  iMISS:          0  dACCESS:          0  dHIT:          0  dMISS:          0  itACCESS:          0  itHIT:          0  itMISS:          0  dtACCESS:          0  dtHIT:          0  dtMISS:          0
cpu0_STLB WRITE        ACCESS:          0  HIT:          0  MISS:          0  iACCESS:          0  iHIT:          0  iMISS:          0  dACCESS:          0  dHIT:          0  dMISS:          0  itACCESS:          0  itHIT:          0  itMISS:          0  dtACCESS:          0  dtHIT:          0  dtMISS:          0
cpu0_STLB TRANSLATION  ACCESS:          0  HIT:          0  MISS:          0  iACCESS:          0  iHIT:          0  iMISS:          0  dACCESS:          0  dHIT:          0  dMISS:          0  itACCESS:          0  itHIT:          0  itMISS:          0  dtACCESS:          0  dtHIT:          0  dtMISS:          0
cpu0_STLB PREFETCH  REQUESTED:          0  ISSUED:          0  CROSSED:          0  USEFUL:          0  USELESS:          0
cpu0_STLB AVERAGE iMISS LATENCY: 28.2742 cycles
cpu0_STLB AVERAGE dMISS LATENCY: 230.415 cycles
cpu0_STLB AVERAGE itMISS LATENCY: 0 cycles
cpu0_STLB AVERAGE dtMISS LATENCY: 0 cycles
cpu0_STLB PAGE CROSSINGS (TLB HIT):         0 
cpu0_STLB PAGE CROSSINGS (TLB MISS):         0 
cpu0_STLB AVERAGE MISS LATENCY: 258.689 cycles
cpu0_L1D TOTAL       ACCESS:   44315039  HIT:   39044347  MISS:    5270692  iACCESS:          0  iHIT:          0  iMISS:          0  dACCESS:   43782995  dHIT:   39016822  dMISS:    4766173  itACCESS:      59207  itHIT:       5327  itMISS:      53880  dtACCESS:     472837  dtHIT:      22198  dtMISS:     450639
cpu0_L1D LOAD         ACCESS:   19957302  HIT:   17814634  MISS:    2142668  iACCESS:          0  iHIT:          0  iMISS:          0  dACCESS:   19957302  dHIT:   17814634  dMISS:    2142668  itACCESS:          0  itHIT:          0  itMISS:          0  dtACCESS:          0  dtHIT:          0  dtMISS:          0
cpu0_L1D RFO          ACCESS:          0  HIT:          0  MISS:          0  iACCESS:          0  iHIT:          0  iMISS:          0  dACCESS:          0  dHIT:          0  dMISS:          0  itACCESS:          0  itHIT:          0  itMISS:          0  dtACCESS:          0  dtHIT:          0  dtMISS:          0
cpu0_L1D PREFETCH     ACCESS:   13638527  HIT:   11556619  MISS:    2081908  iACCESS:          0  iHIT:          0  iMISS:          0  dACCESS:   13638527  dHIT:   11556619  dMISS:    2081908  itACCESS:          0  itHIT:          0  itMISS:          0  dtACCESS:          0  dtHIT:          0  dtMISS:          0
cpu0_L1D WRITE        ACCESS:   10187166  HIT:    9645569  MISS:     541597  iACCESS:          0  iHIT:          0  iMISS:          0  dACCESS:   10187166  dHIT:    9645569  dMISS:     541597  itACCESS:          0  itHIT:          0  itMISS:          0  dtACCESS:          0  dtHIT:          0  dtMISS:          0
cpu0_L1D TRANSLATION  ACCESS:     532044  HIT:      27525  MISS:     504519  iACCESS:          0  iHIT:          0  iMISS:          0  dACCESS:          0  dHIT:          0  dMISS:          0  itACCESS:      59207  itHIT:       5327  itMISS:      53880  dtACCESS:     472837  dtHIT:      22198  dtMISS:     450639
cpu0_L1D PREFETCH  REQUESTED:   19957302  ISSUED:   18226939  CROSSED:          0  USEFUL:     369261  USELESS:     910479
cpu0_L1D AVERAGE iMISS LATENCY: 0 cycles
cpu0_L1D AVERAGE dMISS LATENCY: 49.3003 cycles
cpu0_L1D AVERAGE itMISS LATENCY: 1.72101 cycles
cpu0_L1D AVERAGE dtMISS LATENCY: 13.7437 cycles
cpu0_L1D PAGE CROSSINGS (TLB HIT):         0 
cpu0_L1D PAGE CROSSINGS (TLB MISS):         0 
cpu0_L1D AVERAGE MISS LATENCY: 64.765 cycles
cpu0_L2C TOTAL       ACCESS:    8530956  HIT:    4287700  MISS:    4243256  iACCESS:    3764949  iHIT:    2357323  iMISS:    1407626  dACCESS:    4291638  dHIT:    1869245  dMISS:    2422393  itACCESS:      53753  itHIT:       7930  itMISS:      45823  dtACCESS:     420616  dtHIT:      53202  dtMISS:     367414
cpu0_L2C LOAD         ACCESS:    2052781  HIT:    1050339  MISS:    1002442  iACCESS:     851639  iHIT:     561090  iMISS:     290549  dACCESS:    1201142  dHIT:     489249  dMISS:     711893  itACCESS:          0  itHIT:          0  itMISS:          0  dtACCESS:          0  dtHIT:          0  dtMISS:          0
cpu0_L2C RFO          ACCESS:     209184  HIT:      83113  MISS:     126071  iACCESS:          0  iHIT:          0  iMISS:          0  dACCESS:     209184  dHIT:      83113  dMISS:     126071  itACCESS:          0  itHIT:          0  itMISS:          0  dtACCESS:          0  dtHIT:          0  dtMISS:          0
cpu0_L2C PREFETCH     ACCESS:    5443889  HIT:    2746545  MISS:    2697344  iACCESS:    2913310  iHIT:    1796233  iMISS:    1117077  dACCESS:    2530579  dHIT:     950312  dMISS:    1580267  itACCESS:          0  itHIT:          0  itMISS:          0  dtACCESS:          0  dtHIT:          0  dtMISS:          0
cpu0_L2C WRITE        ACCESS:     350733  HIT:     346571  MISS:       4162  iACCESS:          0  iHIT:          0  iMISS:          0  dACCESS:     350733  dHIT:     346571  dMISS:       4162  itACCESS:          0  itHIT:          0  itMISS:          0  dtACCESS:          0  dtHIT:          0  dtMISS:          0
cpu0_L2C TRANSLATION  ACCESS:     474369  HIT:      61132  MISS:     413237  iACCESS:          0  iHIT:          0  iMISS:          0  dACCESS:          0  dHIT:          0  dMISS:          0  itACCESS:      53753  itHIT:       7930  itMISS:      45823  dtACCESS:     420616  dtHIT:      53202  dtMISS:     367414
cpu0_L2C PREFETCH  REQUESTED:    1493851  ISSUED:    1493851  CROSSED:          0  USEFUL:     354146  USELESS:     311627
cpu0_L2C AVERAGE iMISS LATENCY: 38.9359 cycles
cpu0_L2C AVERAGE dMISS LATENCY: 76.2663 cycles
cpu0_L2C AVERAGE itMISS LATENCY: 2.01256 cycles
cpu0_L2C AVERAGE dtMISS LATENCY: 16.0868 cycles
cpu0_L2C PAGE CROSSINGS (TLB HIT):         0 
cpu0_L2C PAGE CROSSINGS (TLB MISS):         0 
cpu0_L2C AVERAGE MISS LATENCY: 133.302 cycles
LLC TOTAL       ACCESS:    4242869  HIT:    1382748  MISS:    2860121  iACCESS:    1318533  iHIT:     438412  iMISS:     880121  dACCESS:    2511099  dHIT:     891656  dMISS:    1619443  itACCESS:      45823  itHIT:       3176  itMISS:      42647  dtACCESS:     367414  dtHIT:      49504  dtMISS:     317910
LLC LOAD         ACCESS:     997036  HIT:     346046  MISS:     650990  iACCESS:     289356  iHIT:     103675  iMISS:     185681  dACCESS:     707680  dHIT:     242371  dMISS:     465309  itACCESS:          0  itHIT:          0  itMISS:          0  dtACCESS:          0  dtHIT:          0  dtMISS:          0
LLC RFO          ACCESS:     126063  HIT:      41286  MISS:      84777  iACCESS:          0  iHIT:          0  iMISS:          0  dACCESS:     126063  dHIT:      41286  dMISS:      84777  itACCESS:          0  itHIT:          0  itMISS:          0  dtACCESS:          0  dtHIT:          0  dtMISS:          0
LLC PREFETCH     ACCESS:    2495060  HIT:     742355  MISS:    1752705  iACCESS:    1029177  iHIT:     334737  iMISS:     694440  dACCESS:    1465883  dHIT:     407618  dMISS:    1058265  itACCESS:          0  itHIT:          0  itMISS:          0  dtACCESS:          0  dtHIT:          0  dtMISS:          0
LLC WRITE        ACCESS:     211473  HIT:     200381  MISS:      11092  iACCESS:          0  iHIT:          0  iMISS:          0  dACCESS:     211473  dHIT:     200381  dMISS:      11092  itACCESS:          0  itHIT:          0  itMISS:          0  dtACCESS:          0  dtHIT:          0  dtMISS:          0
LLC TRANSLATION  ACCESS:     413237  HIT:      52680  MISS:     360557  iACCESS:          0  iHIT:          0  iMISS:          0  dACCESS:          0  dHIT:          0  dMISS:          0  itACCESS:      45823  itHIT:       3176  itMISS:      42647  dtACCESS:     367414  dtHIT:      49504  dtMISS:     317910
LLC PREFETCH  REQUESTED:          0  ISSUED:          0  CROSSED:          0  USEFUL:          0  USELESS:          0
LLC AVERAGE iMISS LATENCY: 48.6934 cycles
LLC AVERAGE dMISS LATENCY: 97.9094 cycles
LLC AVERAGE itMISS LATENCY: 2.66806 cycles
LLC AVERAGE dtMISS LATENCY: 21.3285 cycles
LLC PAGE CROSSINGS (TLB HIT):         0 
LLC PAGE CROSSINGS (TLB MISS):         0 
LLC AVERAGE MISS LATENCY: 170.6 cycles

PageTableWalker TOTAL       ACCESS:     166623  
PageTableWalker AVERAGE LATENCY: 6.88064 cycles
PageTableWalker TOTAL LATENCY: 1146472 cycles

DRAM Statistics
Channel 0
 RQ ROW_BUFFER_HIT:     633862
  ROW_BUFFER_MISS:    2204850
 AVG DBUS CONGESTED CYCLE:    3.64943
 WQ ROW_BUFFER_HIT:      61936
  ROW_BUFFER_MISS:      53225  FULL:          0

