last_page:0x200000000000000
VMEM_RES_CAP:0x100000
PAGE_SIZE:4096
LOG2_PAGE_SIZE:12
LOG2_PAGE_TABLE_SIZE:9
page_table_levels:5
WARNING: physical memory size is smaller than virtual memory size
FDiP enabled with aggresivity 16

*** ChampSim Multicore Out-of-Order Simulator ***

Warmup Instructions: 50000000
Simulation Instructions: 100000000
Number of CPUs: 1
Small page size: 4096
Large page size: 2097152

CPU 0 Bimodal branch predictor
Basic BTB sets: 1024 ways: 8 indirect buffer size: 4096 RAS size: 64
Instruction page size distrubution: 0
Loading instruction page size distribution from /home/bsc/bsc018186/scratch/itp_asplos25_AE/dump/smt_srv537_ap_srv727_ap_1024i.pdst
Data page size distrubution: 0
Loading data page size distribution from /home/bsc/bsc018186/scratch/itp_asplos25_AE/dump/smt_srv537_ap_srv727_ap_1024i.pdst
cpu0_L2C IP-based stride prefetcher
cpu0_L1D next line prefetcher
CHiRPing...
cpu0_L1I next line prefetcher
Off-chip DRAM Size: 4 GiB Channels: 1 Width: 64-bit Data Rate: 3200 MT/s
Heartbeat CPU 0 instructions: 10000003 cycles: 2500853 heartbeat IPC: 3.99864 cumulative IPC: 3.99864 (Simulation time: 0 hr 0 min 39 sec) 
Heartbeat CPU 0 instructions: 20000001 cycles: 5001172 heartbeat IPC: 3.99949 cumulative IPC: 3.99907 (Simulation time: 0 hr 1 min 20 sec) 
Heartbeat CPU 0 instructions: 30000000 cycles: 7501367 heartbeat IPC: 3.99969 cumulative IPC: 3.99928 (Simulation time: 0 hr 2 min 2 sec) 
Heartbeat CPU 0 instructions: 40000002 cycles: 10001738 heartbeat IPC: 3.99941 cumulative IPC: 3.99931 (Simulation time: 0 hr 2 min 45 sec) 
Heartbeat CPU 0 instructions: 50000001 cycles: 12501979 heartbeat IPC: 3.99962 cumulative IPC: 3.99937 (Simulation time: 0 hr 3 min 27 sec) 
Warmup finished CPU 0 instructions: 50000001 cycles: 12501980 cumulative IPC: 3.99937 (Simulation time: 0 hr 3 min 27 sec) 

Warmup complete CPU 0 instructions: 50000001 cycles: 12501980 (Simulation time: 0 hr 3 min 27 sec) 

Heartbeat CPU 0 instructions: 60000004 cycles: 42666946 heartbeat IPC: 0.331511 cumulative IPC: 0.331511 (Simulation time: 0 hr 4 min 55 sec) 
Heartbeat CPU 0 instructions: 70000001 cycles: 72664892 heartbeat IPC: 0.333357 cumulative IPC: 0.332431 (Simulation time: 0 hr 6 min 23 sec) 
Heartbeat CPU 0 instructions: 80000000 cycles: 103132293 heartbeat IPC: 0.32822 cumulative IPC: 0.331016 (Simulation time: 0 hr 7 min 52 sec) 
Heartbeat CPU 0 instructions: 90000000 cycles: 132717526 heartbeat IPC: 0.338007 cumulative IPC: 0.332736 (Simulation time: 0 hr 9 min 19 sec) 
Heartbeat CPU 0 instructions: 100000003 cycles: 162901137 heartbeat IPC: 0.331306 cumulative IPC: 0.332449 (Simulation time: 0 hr 10 min 48 sec) 
Heartbeat CPU 0 instructions: 110000000 cycles: 194329499 heartbeat IPC: 0.318184 cumulative IPC: 0.329984 (Simulation time: 0 hr 12 min 18 sec) 
Heartbeat CPU 0 instructions: 120000002 cycles: 224022012 heartbeat IPC: 0.336786 cumulative IPC: 0.330938 (Simulation time: 0 hr 13 min 46 sec) 
Heartbeat CPU 0 instructions: 130000004 cycles: 253386943 heartbeat IPC: 0.340543 cumulative IPC: 0.332109 (Simulation time: 0 hr 15 min 13 sec) 
Heartbeat CPU 0 instructions: 140000000 cycles: 284099355 heartbeat IPC: 0.325602 cumulative IPC: 0.331373 (Simulation time: 0 hr 16 min 50 sec) 
Heartbeat CPU 0 instructions: 150000003 cycles: 314138821 heartbeat IPC: 0.332896 cumulative IPC: 0.331525 (Simulation time: 0 hr 18 min 27 sec) 
Simulation finished CPU 0 instructions: 100000002 cycles: 301636842 cumulative IPC: 0.331525 (Simulation time: 0 hr 18 min 27 sec) 

Simulation complete CPU 0 instructions: 100000002 cycles: 301636842 (Simulation time: 0 hr 18 min 27 sec) 


ChampSim completed all CPUs

Saving instructions large page distribution to /home/bsc/bsc018186/scratch/itp_asplos25_AE/dump/smt_srv537_ap_srv727_ap_1024i.pdst...
Saving data large page distribution to /home/bsc/bsc018186/scratch/itp_asplos25_AE/dump/smt_srv537_ap_srv727_ap_1024i.pdst...
=== Simulation ===
CPU 0 runs /gpfs/projects/bsc18/MN4/bsc18/romol/ChampSim/traces/qualcomm_srv/smt_srv537_ap_srv727_ap_1024i.champsimtrace.xz

Region of Interest Statistics

CPU 0 cumulative IPC: 0.331525 instructions: 100000002 cycles: 301636842
CPU 0 Branch Prediction Accuracy: 75.1661% MPKI: 44.8107 Average ROB Occupancy at Mispredict: 10.676
Branch type MPKI
BRANCH_DIRECT_JUMP: 1.38284
BRANCH_INDIRECT: 23.1163
BRANCH_CONDITIONAL: 13.0864
BRANCH_DIRECT_CALL: 2.67873
BRANCH_INDIRECT_CALL: 1.01904
BRANCH_RETURN: 3.52743

Instructions large pages: 0
Instructions small pages: 10200
Large page distribution for instructions: 0%

Data large pages: 0
Data small pages: 8763
Large page distribution for data: 0%

cpu0_L1I TOTAL       ACCESS:   39229001  HIT:   30486962  MISS:    8742039  iACCESS:   39229001  iHIT:   30486962  iMISS:    8742039  dACCESS:          0  dHIT:          0  dMISS:          0  itACCESS:          0  itHIT:          0  itMISS:          0  dtACCESS:          0  dtHIT:          0  dtMISS:          0
cpu0_L1I LOAD         ACCESS:   11728680  HIT:    9350522  MISS:    2378158  iACCESS:   11728680  iHIT:    9350522  iMISS:    2378158  dACCESS:          0  dHIT:          0  dMISS:          0  itACCESS:          0  itHIT:          0  itMISS:          0  dtACCESS:          0  dtHIT:          0  dtMISS:          0
cpu0_L1I RFO          ACCESS:          0  HIT:          0  MISS:          0  iACCESS:          0  iHIT:          0  iMISS:          0  dACCESS:          0  dHIT:          0  dMISS:          0  itACCESS:          0  itHIT:          0  itMISS:          0  dtACCESS:          0  dtHIT:          0  dtMISS:          0
cpu0_L1I PREFETCH     ACCESS:   27500321  HIT:   21136440  MISS:    6363881  iACCESS:   27500321  iHIT:   21136440  iMISS:    6363881  dACCESS:          0  dHIT:          0  dMISS:          0  itACCESS:          0  itHIT:          0  itMISS:          0  dtACCESS:          0  dtHIT:          0  dtMISS:          0
cpu0_L1I WRITE        ACCESS:          0  HIT:          0  MISS:          0  iACCESS:          0  iHIT:          0  iMISS:          0  dACCESS:          0  dHIT:          0  dMISS:          0  itACCESS:          0  itHIT:          0  itMISS:          0  dtACCESS:          0  dtHIT:          0  dtMISS:          0
cpu0_L1I TRANSLATION  ACCESS:          0  HIT:          0  MISS:          0  iACCESS:          0  iHIT:          0  iMISS:          0  dACCESS:          0  dHIT:          0  dMISS:          0  itACCESS:          0  itHIT:          0  itMISS:          0  dtACCESS:          0  dtHIT:          0  dtMISS:          0
cpu0_L1I PREFETCH  REQUESTED:   30304983  ISSUED:   30304944  CROSSED:          0  USEFUL:    2219759  USELESS:     770030
cpu0_L1I AVERAGE iMISS LATENCY: 24.7402 cycles
cpu0_L1I AVERAGE dMISS LATENCY: 0 cycles
cpu0_L1I AVERAGE itMISS LATENCY: 0 cycles
cpu0_L1I AVERAGE dtMISS LATENCY: 0 cycles
cpu0_L1I PAGE CROSSINGS (TLB HIT):         0 
cpu0_L1I PAGE CROSSINGS (TLB MISS):         0 
cpu0_L1I AVERAGE MISS LATENCY: 24.7402 cycles
cpu0_ITLB TOTAL       ACCESS:   33223792  HIT:   30971978  MISS:    2251814  iACCESS:   33223792  iHIT:   30971978  iMISS:    2251814  dACCESS:          0  dHIT:          0  dMISS:          0  itACCESS:          0  itHIT:          0  itMISS:          0  dtACCESS:          0  dtHIT:          0  dtMISS:          0
cpu0_ITLB LOAD         ACCESS:   33223792  HIT:   30971978  MISS:    2251814  iACCESS:   33223792  iHIT:   30971978  iMISS:    2251814  dACCESS:          0  dHIT:          0  dMISS:          0  itACCESS:          0  itHIT:          0  itMISS:          0  dtACCESS:          0  dtHIT:          0  dtMISS:          0
cpu0_ITLB RFO          ACCESS:          0  HIT:          0  MISS:          0  iACCESS:          0  iHIT:          0  iMISS:          0  dACCESS:          0  dHIT:          0  dMISS:          0  itACCESS:          0  itHIT:          0  itMISS:          0  dtACCESS:          0  dtHIT:          0  dtMISS:          0
cpu0_ITLB PREFETCH     ACCESS:          0  HIT:          0  MISS:          0  iACCESS:          0  iHIT:          0  iMISS:          0  dACCESS:          0  dHIT:          0  dMISS:          0  itACCESS:          0  itHIT:          0  itMISS:          0  dtACCESS:          0  dtHIT:          0  dtMISS:          0
cpu0_ITLB WRITE        ACCESS:          0  HIT:          0  MISS:          0  iACCESS:          0  iHIT:          0  iMISS:          0  dACCESS:          0  dHIT:          0  dMISS:          0  itACCESS:          0  itHIT:          0  itMISS:          0  dtACCESS:          0  dtHIT:          0  dtMISS:          0
cpu0_ITLB TRANSLATION  ACCESS:          0  HIT:          0  MISS:          0  iACCESS:          0  iHIT:          0  iMISS:          0  dACCESS:          0  dHIT:          0  dMISS:          0  itACCESS:          0  itHIT:          0  itMISS:          0  dtACCESS:          0  dtHIT:          0  dtMISS:          0
cpu0_ITLB PREFETCH  REQUESTED:          0  ISSUED:          0  CROSSED:          0  USEFUL:     392013  USELESS:      80124
cpu0_ITLB AVERAGE iMISS LATENCY: 10.1568 cycles
cpu0_ITLB AVERAGE dMISS LATENCY: 0 cycles
cpu0_ITLB AVERAGE itMISS LATENCY: 0 cycles
cpu0_ITLB AVERAGE dtMISS LATENCY: 0 cycles
cpu0_ITLB PAGE CROSSINGS (TLB HIT):         0 
cpu0_ITLB PAGE CROSSINGS (TLB MISS):         0 
cpu0_ITLB AVERAGE MISS LATENCY: 10.1568 cycles
cpu0_DTLB TOTAL       ACCESS:   28848272  HIT:   25487174  MISS:    3361098  iACCESS:          0  iHIT:          0  iMISS:          0  dACCESS:   28848272  dHIT:   25487174  dMISS:    3361098  itACCESS:          0  itHIT:          0  itMISS:          0  dtACCESS:          0  dtHIT:          0  dtMISS:          0
cpu0_DTLB LOAD         ACCESS:   28848272  HIT:   25487174  MISS:    3361098  iACCESS:          0  iHIT:          0  iMISS:          0  dACCESS:   28848272  dHIT:   25487174  dMISS:    3361098  itACCESS:          0  itHIT:          0  itMISS:          0  dtACCESS:          0  dtHIT:          0  dtMISS:          0
cpu0_DTLB RFO          ACCESS:          0  HIT:          0  MISS:          0  iACCESS:          0  iHIT:          0  iMISS:          0  dACCESS:          0  dHIT:          0  dMISS:          0  itACCESS:          0  itHIT:          0  itMISS:          0  dtACCESS:          0  dtHIT:          0  dtMISS:          0
cpu0_DTLB PREFETCH     ACCESS:          0  HIT:          0  MISS:          0  iACCESS:          0  iHIT:          0  iMISS:          0  dACCESS:          0  dHIT:          0  dMISS:          0  itACCESS:          0  itHIT:          0  itMISS:          0  dtACCESS:          0  dtHIT:          0  dtMISS:          0
cpu0_DTLB WRITE        ACCESS:          0  HIT:          0  MISS:          0  iACCESS:          0  iHIT:          0  iMISS:          0  dACCESS:          0  dHIT:          0  dMISS:          0  itACCESS:          0  itHIT:          0  itMISS:          0  dtACCESS:          0  dtHIT:          0  dtMISS:          0
cpu0_DTLB TRANSLATION  ACCESS:          0  HIT:          0  MISS:          0  iACCESS:          0  iHIT:          0  iMISS:          0  dACCESS:          0  dHIT:          0  dMISS:          0  itACCESS:          0  itHIT:          0  itMISS:          0  dtACCESS:          0  dtHIT:          0  dtMISS:          0
cpu0_DTLB PREFETCH  REQUESTED:          0  ISSUED:          0  CROSSED:          0  USEFUL:          0  USELESS:          0
cpu0_DTLB AVERAGE iMISS LATENCY: 0 cycles
cpu0_DTLB AVERAGE dMISS LATENCY: 26.2006 cycles
cpu0_DTLB AVERAGE itMISS LATENCY: 0 cycles
cpu0_DTLB AVERAGE dtMISS LATENCY: 0 cycles
cpu0_DTLB PAGE CROSSINGS (TLB HIT):         0 
cpu0_DTLB PAGE CROSSINGS (TLB MISS):         0 
cpu0_DTLB AVERAGE MISS LATENCY: 26.2006 cycles
cpu0_STLB TOTAL       ACCESS:    2411266  HIT:    2040673  MISS:     370593  iACCESS:     472142  iHIT:     354615  iMISS:     117527  dACCESS:    1939124  dHIT:    1686058  dMISS:     253066  itACCESS:          0  itHIT:          0  itMISS:          0  dtACCESS:          0  dtHIT:          0  dtMISS:          0
cpu0_STLB LOAD         ACCESS:    2411266  HIT:    2040673  MISS:     370593  iACCESS:     472142  iHIT:     354615  iMISS:     117527  dACCESS:    1939124  dHIT:    1686058  dMISS:     253066  itACCESS:          0  itHIT:          0  itMISS:          0  dtACCESS:          0  dtHIT:          0  dtMISS:          0
cpu0_STLB RFO          ACCESS:          0  HIT:          0  MISS:          0  iACCESS:          0  iHIT:          0  iMISS:          0  dACCESS:          0  dHIT:          0  dMISS:          0  itACCESS:          0  itHIT:          0  itMISS:          0  dtACCESS:          0  dtHIT:          0  dtMISS:          0
cpu0_STLB PREFETCH     ACCESS:          0  HIT:          0  MISS:          0  iACCESS:          0  iHIT:          0  iMISS:          0  dACCESS:          0  dHIT:          0  dMISS:          0  itACCESS:          0  itHIT:          0  itMISS:          0  dtACCESS:          0  dtHIT:          0  dtMISS:          0
cpu0_STLB WRITE        ACCESS:          0  HIT:          0  MISS:          0  iACCESS:          0  iHIT:          0  iMISS:          0  dACCESS:          0  dHIT:          0  dMISS:          0  itACCESS:          0  itHIT:          0  itMISS:          0  dtACCESS:          0  dtHIT:          0  dtMISS:          0
cpu0_STLB TRANSLATION  ACCESS:          0  HIT:          0  MISS:          0  iACCESS:          0  iHIT:          0  iMISS:          0  dACCESS:          0  dHIT:          0  dMISS:          0  itACCESS:          0  itHIT:          0  itMISS:          0  dtACCESS:          0  dtHIT:          0  dtMISS:          0
cpu0_STLB PREFETCH  REQUESTED:          0  ISSUED:          0  CROSSED:          0  USEFUL:          0  USELESS:          0
cpu0_STLB AVERAGE iMISS LATENCY: 51.5133 cycles
cpu0_STLB AVERAGE dMISS LATENCY: 195.539 cycles
cpu0_STLB AVERAGE itMISS LATENCY: 0 cycles
cpu0_STLB AVERAGE dtMISS LATENCY: 0 cycles
cpu0_STLB PAGE CROSSINGS (TLB HIT):         0 
cpu0_STLB PAGE CROSSINGS (TLB MISS):         0 
cpu0_STLB AVERAGE MISS LATENCY: 247.052 cycles
cpu0_L1D TOTAL       ACCESS:   45067264  HIT:   39244224  MISS:    5823040  iACCESS:          0  iHIT:          0  iMISS:          0  dACCESS:   44516003  dHIT:   39211437  dMISS:    5304566  itACCESS:     131085  itHIT:      15792  itMISS:     115293  dtACCESS:     420176  dtHIT:      16995  dtMISS:     403181
cpu0_L1D LOAD         ACCESS:   20326178  HIT:   17936346  MISS:    2389832  iACCESS:          0  iHIT:          0  iMISS:          0  dACCESS:   20326178  dHIT:   17936346  dMISS:    2389832  itACCESS:          0  itHIT:          0  itMISS:          0  dtACCESS:          0  dtHIT:          0  dtMISS:          0
cpu0_L1D RFO          ACCESS:          0  HIT:          0  MISS:          0  iACCESS:          0  iHIT:          0  iMISS:          0  dACCESS:          0  dHIT:          0  dMISS:          0  itACCESS:          0  itHIT:          0  itMISS:          0  dtACCESS:          0  dtHIT:          0  dtMISS:          0
cpu0_L1D PREFETCH     ACCESS:   14014891  HIT:   11669233  MISS:    2345658  iACCESS:          0  iHIT:          0  iMISS:          0  dACCESS:   14014891  dHIT:   11669233  dMISS:    2345658  itACCESS:          0  itHIT:          0  itMISS:          0  dtACCESS:          0  dtHIT:          0  dtMISS:          0
cpu0_L1D WRITE        ACCESS:   10174934  HIT:    9605858  MISS:     569076  iACCESS:          0  iHIT:          0  iMISS:          0  dACCESS:   10174934  dHIT:    9605858  dMISS:     569076  itACCESS:          0  itHIT:          0  itMISS:          0  dtACCESS:          0  dtHIT:          0  dtMISS:          0
cpu0_L1D TRANSLATION  ACCESS:     551261  HIT:      32787  MISS:     518474  iACCESS:          0  iHIT:          0  iMISS:          0  dACCESS:          0  dHIT:          0  dMISS:          0  itACCESS:     131085  itHIT:      15792  itMISS:     115293  dtACCESS:     420176  dtHIT:      16995  dtMISS:     403181
cpu0_L1D PREFETCH  REQUESTED:   20326178  ISSUED:   18393754  CROSSED:          0  USEFUL:     372705  USELESS:     912841
cpu0_L1D AVERAGE iMISS LATENCY: 0 cycles
cpu0_L1D AVERAGE dMISS LATENCY: 48.9463 cycles
cpu0_L1D AVERAGE itMISS LATENCY: 3.08772 cycles
cpu0_L1D AVERAGE dtMISS LATENCY: 11.6578 cycles
cpu0_L1D PAGE CROSSINGS (TLB HIT):         0 
cpu0_L1D PAGE CROSSINGS (TLB MISS):         0 
cpu0_L1D AVERAGE MISS LATENCY: 63.6918 cycles
cpu0_L2C TOTAL       ACCESS:    8640564  HIT:    4188368  MISS:    4452196  iACCESS:    3804519  iHIT:    2305773  iMISS:    1498746  dACCESS:    4359810  dHIT:    1824495  dMISS:    2535315  itACCESS:     114070  itHIT:      22001  itMISS:      92069  dtACCESS:     362165  dtHIT:      36099  dtMISS:     326066
cpu0_L2C LOAD         ACCESS:    2061343  HIT:    1008507  MISS:    1052836  iACCESS:     852971  iHIT:     539899  iMISS:     313072  dACCESS:    1208372  dHIT:     468608  dMISS:     739764  itACCESS:          0  itHIT:          0  itMISS:          0  dtACCESS:          0  dtHIT:          0  dtMISS:          0
cpu0_L2C RFO          ACCESS:     214581  HIT:      80151  MISS:     134430  iACCESS:          0  iHIT:          0  iMISS:          0  dACCESS:     214581  dHIT:      80151  dMISS:     134430  itACCESS:          0  itHIT:          0  itMISS:          0  dtACCESS:          0  dtHIT:          0  dtMISS:          0
cpu0_L2C PREFETCH     ACCESS:    5541507  HIT:    2698826  MISS:    2842681  iACCESS:    2951548  iHIT:    1765874  iMISS:    1185674  dACCESS:    2589959  dHIT:     932952  dMISS:    1657007  itACCESS:          0  itHIT:          0  itMISS:          0  dtACCESS:          0  dtHIT:          0  dtMISS:          0
cpu0_L2C WRITE        ACCESS:     346898  HIT:     342784  MISS:       4114  iACCESS:          0  iHIT:          0  iMISS:          0  dACCESS:     346898  dHIT:     342784  dMISS:       4114  itACCESS:          0  itHIT:          0  itMISS:          0  dtACCESS:          0  dtHIT:          0  dtMISS:          0
cpu0_L2C TRANSLATION  ACCESS:     476235  HIT:      58100  MISS:     418135  iACCESS:          0  iHIT:          0  iMISS:          0  dACCESS:          0  dHIT:          0  dMISS:          0  itACCESS:     114070  itHIT:      22001  itMISS:      92069  dtACCESS:     362165  dtHIT:      36099  dtMISS:     326066
cpu0_L2C PREFETCH  REQUESTED:    1548439  ISSUED:    1548437  CROSSED:          0  USEFUL:     362119  USELESS:     329136
cpu0_L2C AVERAGE iMISS LATENCY: 41.3779 cycles
cpu0_L2C AVERAGE dMISS LATENCY: 80.1876 cycles
cpu0_L2C AVERAGE itMISS LATENCY: 3.7864 cycles
cpu0_L2C AVERAGE dtMISS LATENCY: 14.4373 cycles
cpu0_L2C PAGE CROSSINGS (TLB HIT):         0 
cpu0_L2C PAGE CROSSINGS (TLB MISS):         0 
cpu0_L2C AVERAGE MISS LATENCY: 139.79 cycles
LLC TOTAL       ACCESS:    4435782  HIT:    1288176  MISS:    3147606  iACCESS:    1405083  iHIT:     415159  iMISS:     989924  dACCESS:    2612564  dHIT:     835457  dMISS:    1777107  itACCESS:      92069  itHIT:       7907  itMISS:      84162  dtACCESS:     326066  dtHIT:      29653  dtMISS:     296413
LLC LOAD         ACCESS:    1045693  HIT:     320854  MISS:     724839  iACCESS:     311851  iHIT:      99316  iMISS:     212535  dACCESS:     733842  dHIT:     221538  dMISS:     512304  itACCESS:          0  itHIT:          0  itMISS:          0  dtACCESS:          0  dtHIT:          0  dtMISS:          0
LLC RFO          ACCESS:     134419  HIT:      40699  MISS:      93720  iACCESS:          0  iHIT:          0  iMISS:          0  dACCESS:     134419  dHIT:      40699  dMISS:      93720  itACCESS:          0  itHIT:          0  itMISS:          0  dtACCESS:          0  dtHIT:          0  dtMISS:          0
LLC PREFETCH     ACCESS:    2621910  HIT:     684279  MISS:    1937631  iACCESS:    1093232  iHIT:     315843  iMISS:     777389  dACCESS:    1528678  dHIT:     368436  dMISS:    1160242  itACCESS:          0  itHIT:          0  itMISS:          0  dtACCESS:          0  dtHIT:          0  dtMISS:          0
LLC WRITE        ACCESS:     215625  HIT:     204784  MISS:      10841  iACCESS:          0  iHIT:          0  iMISS:          0  dACCESS:     215625  dHIT:     204784  dMISS:      10841  itACCESS:          0  itHIT:          0  itMISS:          0  dtACCESS:          0  dtHIT:          0  dtMISS:          0
LLC TRANSLATION  ACCESS:     418135  HIT:      37560  MISS:     380575  iACCESS:          0  iHIT:          0  iMISS:          0  dACCESS:          0  dHIT:          0  dMISS:          0  itACCESS:      92069  itHIT:       7907  itMISS:      84162  dtACCESS:     326066  dtHIT:      29653  dtMISS:     296413
LLC PREFETCH  REQUESTED:          0  ISSUED:          0  CROSSED:          0  USEFUL:          0  USELESS:          0
LLC AVERAGE iMISS LATENCY: 49.7257 cycles
LLC AVERAGE dMISS LATENCY: 99.301 cycles
LLC AVERAGE itMISS LATENCY: 4.77585 cycles
LLC AVERAGE dtMISS LATENCY: 18.3721 cycles
LLC PAGE CROSSINGS (TLB HIT):         0 
LLC PAGE CROSSINGS (TLB MISS):         0 
LLC AVERAGE MISS LATENCY: 172.175 cycles

PageTableWalker TOTAL       ACCESS:     182119  
PageTableWalker AVERAGE LATENCY: 6.52234 cycles
PageTableWalker TOTAL LATENCY: 1187842 cycles

DRAM Statistics
Channel 0
 RQ ROW_BUFFER_HIT:     664554
  ROW_BUFFER_MISS:    2451940
 AVG DBUS CONGESTED CYCLE:    3.65061
 WQ ROW_BUFFER_HIT:      66584
  ROW_BUFFER_MISS:      58645  FULL:          0

