last_page:0x200000000000000
VMEM_RES_CAP:0x100000
PAGE_SIZE:4096
LOG2_PAGE_SIZE:12
LOG2_PAGE_TABLE_SIZE:9
page_table_levels:5
WARNING: physical memory size is smaller than virtual memory size
FDiP enabled with aggresivity 16

*** ChampSim Multicore Out-of-Order Simulator ***

Warmup Instructions: 50000000
Simulation Instructions: 100000000
Number of CPUs: 1
Small page size: 4096
Large page size: 2097152

CPU 0 Bimodal branch predictor
Basic BTB sets: 1024 ways: 8 indirect buffer size: 4096 RAS size: 64
Instruction page size distrubution: 0
Loading instruction page size distribution from /home/bsc/bsc018186/scratch/itp_asplos25_AE/dump/smt_srv12_ap_srv697_ap_1024i.pdst
Data page size distrubution: 0
Loading data page size distribution from /home/bsc/bsc018186/scratch/itp_asplos25_AE/dump/smt_srv12_ap_srv697_ap_1024i.pdst
cpu0_L2C IP-based stride prefetcher
cpu0_L2C is using PTP replacement policy:
	TLB_STRESS_THRESHOLD:0
	PTE_EVICTION_RATIO:0
cpu0_L1D next line prefetcher
cpu0_STLB using iTP with max lru@8
cpu0_STLB using iTP with instr@0 and data@2
Init sat counter with 3 bits (max:50).
cpu0_L1I next line prefetcher
Off-chip DRAM Size: 4 GiB Channels: 1 Width: 64-bit Data Rate: 3200 MT/s
Heartbeat CPU 0 instructions: 10000003 cycles: 2500397 heartbeat IPC: 3.99937 cumulative IPC: 3.99937 (Simulation time: 0 hr 0 min 37 sec) 
Heartbeat CPU 0 instructions: 20000000 cycles: 5000436 heartbeat IPC: 3.99994 cumulative IPC: 3.99966 (Simulation time: 0 hr 1 min 15 sec) 
Heartbeat CPU 0 instructions: 30000001 cycles: 7500823 heartbeat IPC: 3.99939 cumulative IPC: 3.99957 (Simulation time: 0 hr 1 min 55 sec) 
Heartbeat CPU 0 instructions: 40000002 cycles: 10001058 heartbeat IPC: 3.99963 cumulative IPC: 3.99958 (Simulation time: 0 hr 2 min 34 sec) 
Heartbeat CPU 0 instructions: 50000001 cycles: 12501191 heartbeat IPC: 3.99979 cumulative IPC: 3.99962 (Simulation time: 0 hr 3 min 13 sec) 
Warmup finished CPU 0 instructions: 50000001 cycles: 12501192 cumulative IPC: 3.99962 (Simulation time: 0 hr 3 min 13 sec) 

Warmup complete CPU 0 instructions: 50000001 cycles: 12501192 (Simulation time: 0 hr 3 min 13 sec) 

Heartbeat CPU 0 instructions: 60000003 cycles: 43078689 heartbeat IPC: 0.327038 cumulative IPC: 0.327038 (Simulation time: 0 hr 4 min 35 sec) 
Heartbeat CPU 0 instructions: 70000002 cycles: 71755648 heartbeat IPC: 0.348712 cumulative IPC: 0.337528 (Simulation time: 0 hr 5 min 55 sec) 
Heartbeat CPU 0 instructions: 80000001 cycles: 101859445 heartbeat IPC: 0.332184 cumulative IPC: 0.335728 (Simulation time: 0 hr 7 min 17 sec) 
Heartbeat CPU 0 instructions: 90000000 cycles: 128089423 heartbeat IPC: 0.381244 cumulative IPC: 0.346056 (Simulation time: 0 hr 8 min 33 sec) 
Heartbeat CPU 0 instructions: 100000000 cycles: 156923843 heartbeat IPC: 0.346808 cumulative IPC: 0.346207 (Simulation time: 0 hr 9 min 53 sec) 
Heartbeat CPU 0 instructions: 110000002 cycles: 186021942 heartbeat IPC: 0.343666 cumulative IPC: 0.34578 (Simulation time: 0 hr 11 min 14 sec) 
Heartbeat CPU 0 instructions: 120000001 cycles: 214940813 heartbeat IPC: 0.345795 cumulative IPC: 0.345783 (Simulation time: 0 hr 12 min 35 sec) 
Heartbeat CPU 0 instructions: 130000004 cycles: 244784677 heartbeat IPC: 0.335078 cumulative IPC: 0.344407 (Simulation time: 0 hr 13 min 57 sec) 
Heartbeat CPU 0 instructions: 140000000 cycles: 273718864 heartbeat IPC: 0.345612 cumulative IPC: 0.344541 (Simulation time: 0 hr 15 min 18 sec) 
Heartbeat CPU 0 instructions: 150000002 cycles: 303793194 heartbeat IPC: 0.33251 cumulative IPC: 0.343299 (Simulation time: 0 hr 16 min 43 sec) 
Simulation finished CPU 0 instructions: 100000001 cycles: 291292003 cumulative IPC: 0.343299 (Simulation time: 0 hr 16 min 43 sec) 

Simulation complete CPU 0 instructions: 100000001 cycles: 291292003 (Simulation time: 0 hr 16 min 43 sec) 


ChampSim completed all CPUs

Saving instructions large page distribution to /home/bsc/bsc018186/scratch/itp_asplos25_AE/dump/smt_srv12_ap_srv697_ap_1024i.pdst...
Saving data large page distribution to /home/bsc/bsc018186/scratch/itp_asplos25_AE/dump/smt_srv12_ap_srv697_ap_1024i.pdst...
=== Simulation ===
CPU 0 runs /gpfs/projects/bsc18/MN4/bsc18/romol/ChampSim/traces/qualcomm_srv/smt_srv12_ap_srv697_ap_1024i.champsimtrace.xz

Region of Interest Statistics

CPU 0 cumulative IPC: 0.343299 instructions: 100000001 cycles: 291292003
CPU 0 Branch Prediction Accuracy: 75.5756% MPKI: 44.1382 Average ROB Occupancy at Mispredict: 11.3006
Branch type MPKI
BRANCH_DIRECT_JUMP: 1.35221
BRANCH_INDIRECT: 22.6826
BRANCH_CONDITIONAL: 13.0083
BRANCH_DIRECT_CALL: 2.59577
BRANCH_INDIRECT_CALL: 1.04259
BRANCH_RETURN: 3.45672

Instructions large pages: 0
Instructions small pages: 14672
Large page distribution for instructions: 0%

Data large pages: 0
Data small pages: 12955
Large page distribution for data: 0%

cpu0_L1I TOTAL       ACCESS:   38991778  HIT:   30394483  MISS:    8597295  iACCESS:   38991778  iHIT:   30394483  iMISS:    8597295  dACCESS:          0  dHIT:          0  dMISS:          0  itACCESS:          0  itHIT:          0  itMISS:          0  dtACCESS:          0  dtHIT:          0  dtMISS:          0
cpu0_L1I LOAD         ACCESS:   11650781  HIT:    9310204  MISS:    2340577  iACCESS:   11650781  iHIT:    9310204  iMISS:    2340577  dACCESS:          0  dHIT:          0  dMISS:          0  itACCESS:          0  itHIT:          0  itMISS:          0  dtACCESS:          0  dtHIT:          0  dtMISS:          0
cpu0_L1I RFO          ACCESS:          0  HIT:          0  MISS:          0  iACCESS:          0  iHIT:          0  iMISS:          0  dACCESS:          0  dHIT:          0  dMISS:          0  itACCESS:          0  itHIT:          0  itMISS:          0  dtACCESS:          0  dtHIT:          0  dtMISS:          0
cpu0_L1I PREFETCH     ACCESS:   27340997  HIT:   21084279  MISS:    6256718  iACCESS:   27340997  iHIT:   21084279  iMISS:    6256718  dACCESS:          0  dHIT:          0  dMISS:          0  itACCESS:          0  itHIT:          0  itMISS:          0  dtACCESS:          0  dtHIT:          0  dtMISS:          0
cpu0_L1I WRITE        ACCESS:          0  HIT:          0  MISS:          0  iACCESS:          0  iHIT:          0  iMISS:          0  dACCESS:          0  dHIT:          0  dMISS:          0  itACCESS:          0  itHIT:          0  itMISS:          0  dtACCESS:          0  dtHIT:          0  dtMISS:          0
cpu0_L1I TRANSLATION  ACCESS:          0  HIT:          0  MISS:          0  iACCESS:          0  iHIT:          0  iMISS:          0  dACCESS:          0  dHIT:          0  dMISS:          0  itACCESS:          0  itHIT:          0  itMISS:          0  dtACCESS:          0  dtHIT:          0  dtMISS:          0
cpu0_L1I PREFETCH  REQUESTED:   30153154  ISSUED:   30153146  CROSSED:          0  USEFUL:    2186567  USELESS:     754245
cpu0_L1I AVERAGE iMISS LATENCY: 24.0885 cycles
cpu0_L1I AVERAGE dMISS LATENCY: 0 cycles
cpu0_L1I AVERAGE itMISS LATENCY: 0 cycles
cpu0_L1I AVERAGE dtMISS LATENCY: 0 cycles
cpu0_L1I PAGE CROSSINGS (TLB HIT):         0 
cpu0_L1I PAGE CROSSINGS (TLB MISS):         0 
cpu0_L1I AVERAGE MISS LATENCY: 24.0885 cycles
cpu0_ITLB TOTAL       ACCESS:   32984403  HIT:   30797393  MISS:    2187010  iACCESS:   32984403  iHIT:   30797393  iMISS:    2187010  dACCESS:          0  dHIT:          0  dMISS:          0  itACCESS:          0  itHIT:          0  itMISS:          0  dtACCESS:          0  dtHIT:          0  dtMISS:          0
cpu0_ITLB LOAD         ACCESS:   32984403  HIT:   30797393  MISS:    2187010  iACCESS:   32984403  iHIT:   30797393  iMISS:    2187010  dACCESS:          0  dHIT:          0  dMISS:          0  itACCESS:          0  itHIT:          0  itMISS:          0  dtACCESS:          0  dtHIT:          0  dtMISS:          0
cpu0_ITLB RFO          ACCESS:          0  HIT:          0  MISS:          0  iACCESS:          0  iHIT:          0  iMISS:          0  dACCESS:          0  dHIT:          0  dMISS:          0  itACCESS:          0  itHIT:          0  itMISS:          0  dtACCESS:          0  dtHIT:          0  dtMISS:          0
cpu0_ITLB PREFETCH     ACCESS:          0  HIT:          0  MISS:          0  iACCESS:          0  iHIT:          0  iMISS:          0  dACCESS:          0  dHIT:          0  dMISS:          0  itACCESS:          0  itHIT:          0  itMISS:          0  dtACCESS:          0  dtHIT:          0  dtMISS:          0
cpu0_ITLB WRITE        ACCESS:          0  HIT:          0  MISS:          0  iACCESS:          0  iHIT:          0  iMISS:          0  dACCESS:          0  dHIT:          0  dMISS:          0  itACCESS:          0  itHIT:          0  itMISS:          0  dtACCESS:          0  dtHIT:          0  dtMISS:          0
cpu0_ITLB TRANSLATION  ACCESS:          0  HIT:          0  MISS:          0  iACCESS:          0  iHIT:          0  iMISS:          0  dACCESS:          0  dHIT:          0  dMISS:          0  itACCESS:          0  itHIT:          0  itMISS:          0  dtACCESS:          0  dtHIT:          0  dtMISS:          0
cpu0_ITLB PREFETCH  REQUESTED:          0  ISSUED:          0  CROSSED:          0  USEFUL:     385380  USELESS:      77490
cpu0_ITLB AVERAGE iMISS LATENCY: 6.56811 cycles
cpu0_ITLB AVERAGE dMISS LATENCY: 0 cycles
cpu0_ITLB AVERAGE itMISS LATENCY: 0 cycles
cpu0_ITLB AVERAGE dtMISS LATENCY: 0 cycles
cpu0_ITLB PAGE CROSSINGS (TLB HIT):         0 
cpu0_ITLB PAGE CROSSINGS (TLB MISS):         0 
cpu0_ITLB AVERAGE MISS LATENCY: 6.56811 cycles
cpu0_DTLB TOTAL       ACCESS:   28859819  HIT:   25235038  MISS:    3624781  iACCESS:          0  iHIT:          0  iMISS:          0  dACCESS:   28859819  dHIT:   25235038  dMISS:    3624781  itACCESS:          0  itHIT:          0  itMISS:          0  dtACCESS:          0  dtHIT:          0  dtMISS:          0
cpu0_DTLB LOAD         ACCESS:   28859819  HIT:   25235038  MISS:    3624781  iACCESS:          0  iHIT:          0  iMISS:          0  dACCESS:   28859819  dHIT:   25235038  dMISS:    3624781  itACCESS:          0  itHIT:          0  itMISS:          0  dtACCESS:          0  dtHIT:          0  dtMISS:          0
cpu0_DTLB RFO          ACCESS:          0  HIT:          0  MISS:          0  iACCESS:          0  iHIT:          0  iMISS:          0  dACCESS:          0  dHIT:          0  dMISS:          0  itACCESS:          0  itHIT:          0  itMISS:          0  dtACCESS:          0  dtHIT:          0  dtMISS:          0
cpu0_DTLB PREFETCH     ACCESS:          0  HIT:          0  MISS:          0  iACCESS:          0  iHIT:          0  iMISS:          0  dACCESS:          0  dHIT:          0  dMISS:          0  itACCESS:          0  itHIT:          0  itMISS:          0  dtACCESS:          0  dtHIT:          0  dtMISS:          0
cpu0_DTLB WRITE        ACCESS:          0  HIT:          0  MISS:          0  iACCESS:          0  iHIT:          0  iMISS:          0  dACCESS:          0  dHIT:          0  dMISS:          0  itACCESS:          0  itHIT:          0  itMISS:          0  dtACCESS:          0  dtHIT:          0  dtMISS:          0
cpu0_DTLB TRANSLATION  ACCESS:          0  HIT:          0  MISS:          0  iACCESS:          0  iHIT:          0  iMISS:          0  dACCESS:          0  dHIT:          0  dMISS:          0  itACCESS:          0  itHIT:          0  itMISS:          0  dtACCESS:          0  dtHIT:          0  dtMISS:          0
cpu0_DTLB PREFETCH  REQUESTED:          0  ISSUED:          0  CROSSED:          0  USEFUL:          0  USELESS:          0
cpu0_DTLB AVERAGE iMISS LATENCY: 0 cycles
cpu0_DTLB AVERAGE dMISS LATENCY: 27.07 cycles
cpu0_DTLB AVERAGE itMISS LATENCY: 0 cycles
cpu0_DTLB AVERAGE dtMISS LATENCY: 0 cycles
cpu0_DTLB PAGE CROSSINGS (TLB HIT):         0 
cpu0_DTLB PAGE CROSSINGS (TLB MISS):         0 
cpu0_DTLB AVERAGE MISS LATENCY: 27.07 cycles
cpu0_STLB TOTAL       ACCESS:    2566147  HIT:    2209525  MISS:     356622  iACCESS:     462876  iHIT:     407947  iMISS:      54929  dACCESS:    2103271  dHIT:    1801578  dMISS:     301693  itACCESS:          0  itHIT:          0  itMISS:          0  dtACCESS:          0  dtHIT:          0  dtMISS:          0
cpu0_STLB LOAD         ACCESS:    2566147  HIT:    2209525  MISS:     356622  iACCESS:     462876  iHIT:     407947  iMISS:      54929  dACCESS:    2103271  dHIT:    1801578  dMISS:     301693  itACCESS:          0  itHIT:          0  itMISS:          0  dtACCESS:          0  dtHIT:          0  dtMISS:          0
cpu0_STLB RFO          ACCESS:          0  HIT:          0  MISS:          0  iACCESS:          0  iHIT:          0  iMISS:          0  dACCESS:          0  dHIT:          0  dMISS:          0  itACCESS:          0  itHIT:          0  itMISS:          0  dtACCESS:          0  dtHIT:          0  dtMISS:          0
cpu0_STLB PREFETCH     ACCESS:          0  HIT:          0  MISS:          0  iACCESS:          0  iHIT:          0  iMISS:          0  dACCESS:          0  dHIT:          0  dMISS:          0  itACCESS:          0  itHIT:          0  itMISS:          0  dtACCESS:          0  dtHIT:          0  dtMISS:          0
cpu0_STLB WRITE        ACCESS:          0  HIT:          0  MISS:          0  iACCESS:          0  iHIT:          0  iMISS:          0  dACCESS:          0  dHIT:          0  dMISS:          0  itACCESS:          0  itHIT:          0  itMISS:          0  dtACCESS:          0  dtHIT:          0  dtMISS:          0
cpu0_STLB TRANSLATION  ACCESS:          0  HIT:          0  MISS:          0  iACCESS:          0  iHIT:          0  iMISS:          0  dACCESS:          0  dHIT:          0  dMISS:          0  itACCESS:          0  itHIT:          0  itMISS:          0  dtACCESS:          0  dtHIT:          0  dtMISS:          0
cpu0_STLB PREFETCH  REQUESTED:          0  ISSUED:          0  CROSSED:          0  USEFUL:          0  USELESS:          0
cpu0_STLB AVERAGE iMISS LATENCY: 30.0814 cycles
cpu0_STLB AVERAGE dMISS LATENCY: 227.549 cycles
cpu0_STLB AVERAGE itMISS LATENCY: 0 cycles
cpu0_STLB AVERAGE dtMISS LATENCY: 0 cycles
cpu0_STLB PAGE CROSSINGS (TLB HIT):         0 
cpu0_STLB PAGE CROSSINGS (TLB MISS):         0 
cpu0_STLB AVERAGE MISS LATENCY: 257.63 cycles
cpu0_L1D TOTAL       ACCESS:   44424568  HIT:   39154412  MISS:    5270156  iACCESS:          0  iHIT:          0  iMISS:          0  dACCESS:   43871200  dHIT:   39125169  dMISS:    4746031  itACCESS:      65424  itHIT:       5737  itMISS:      59687  dtACCESS:     487944  dtHIT:      23506  dtMISS:     464438
cpu0_L1D LOAD         ACCESS:   20052868  HIT:   17934125  MISS:    2118743  iACCESS:          0  iHIT:          0  iMISS:          0  dACCESS:   20052868  dHIT:   17934125  dMISS:    2118743  itACCESS:          0  itHIT:          0  itMISS:          0  dtACCESS:          0  dtHIT:          0  dtMISS:          0
cpu0_L1D RFO          ACCESS:          0  HIT:          0  MISS:          0  iACCESS:          0  iHIT:          0  iMISS:          0  dACCESS:          0  dHIT:          0  dMISS:          0  itACCESS:          0  itHIT:          0  itMISS:          0  dtACCESS:          0  dtHIT:          0  dtMISS:          0
cpu0_L1D PREFETCH     ACCESS:   13661234  HIT:   11585617  MISS:    2075617  iACCESS:          0  iHIT:          0  iMISS:          0  dACCESS:   13661234  dHIT:   11585617  dMISS:    2075617  itACCESS:          0  itHIT:          0  itMISS:          0  dtACCESS:          0  dtHIT:          0  dtMISS:          0
cpu0_L1D WRITE        ACCESS:   10157098  HIT:    9605427  MISS:     551671  iACCESS:          0  iHIT:          0  iMISS:          0  dACCESS:   10157098  dHIT:    9605427  dMISS:     551671  itACCESS:          0  itHIT:          0  itMISS:          0  dtACCESS:          0  dtHIT:          0  dtMISS:          0
cpu0_L1D TRANSLATION  ACCESS:     553368  HIT:      29243  MISS:     524125  iACCESS:          0  iHIT:          0  iMISS:          0  dACCESS:          0  dHIT:          0  dMISS:          0  itACCESS:      65424  itHIT:       5737  itMISS:      59687  dtACCESS:     487944  dtHIT:      23506  dtMISS:     464438
cpu0_L1D PREFETCH  REQUESTED:   20052868  ISSUED:   18387211  CROSSED:          0  USEFUL:     359607  USELESS:     926102
cpu0_L1D AVERAGE iMISS LATENCY: 0 cycles
cpu0_L1D AVERAGE dMISS LATENCY: 51.0415 cycles
cpu0_L1D AVERAGE itMISS LATENCY: 1.91112 cycles
cpu0_L1D AVERAGE dtMISS LATENCY: 14.2537 cycles
cpu0_L1D PAGE CROSSINGS (TLB HIT):         0 
cpu0_L1D PAGE CROSSINGS (TLB MISS):         0 
cpu0_L1D AVERAGE MISS LATENCY: 67.2063 cycles
cpu0_L2C TOTAL       ACCESS:    8521237  HIT:    4166932  MISS:    4354305  iACCESS:    3737200  iHIT:    2266064  iMISS:    1471136  dACCESS:    4289192  dHIT:    1836511  dMISS:    2452681  itACCESS:      59305  itHIT:       8220  itMISS:      51085  dtACCESS:     435540  dtHIT:      56137  dtMISS:     379403
cpu0_L2C LOAD         ACCESS:    2027923  HIT:    1007015  MISS:    1020908  iACCESS:     834681  iHIT:     529888  iMISS:     304793  dACCESS:    1193242  dHIT:     477127  dMISS:     716115  itACCESS:          0  itHIT:          0  itMISS:          0  dtACCESS:          0  dtHIT:          0  dtMISS:          0
cpu0_L2C RFO          ACCESS:     208756  HIT:      80698  MISS:     128058  iACCESS:          0  iHIT:          0  iMISS:          0  dACCESS:     208756  dHIT:      80698  dMISS:     128058  itACCESS:          0  itHIT:          0  itMISS:          0  dtACCESS:          0  dtHIT:          0  dtMISS:          0
cpu0_L2C PREFETCH     ACCESS:    5448543  HIT:    2677986  MISS:    2770557  iACCESS:    2902519  iHIT:    1736176  iMISS:    1166343  dACCESS:    2546024  dHIT:     941810  dMISS:    1604214  itACCESS:          0  itHIT:          0  itMISS:          0  dtACCESS:          0  dtHIT:          0  dtMISS:          0
cpu0_L2C WRITE        ACCESS:     341170  HIT:     336876  MISS:       4294  iACCESS:          0  iHIT:          0  iMISS:          0  dACCESS:     341170  dHIT:     336876  dMISS:       4294  itACCESS:          0  itHIT:          0  itMISS:          0  dtACCESS:          0  dtHIT:          0  dtMISS:          0
cpu0_L2C TRANSLATION  ACCESS:     494845  HIT:      64357  MISS:     430488  iACCESS:          0  iHIT:          0  iMISS:          0  dACCESS:          0  dHIT:          0  dMISS:          0  itACCESS:      59305  itHIT:       8220  itMISS:      51085  dtACCESS:     435540  dtHIT:      56137  dtMISS:     379403
cpu0_L2C PREFETCH  REQUESTED:    1500440  ISSUED:    1500439  CROSSED:          0  USEFUL:     357068  USELESS:     322106
cpu0_L2C AVERAGE iMISS LATENCY: 40.3234 cycles
cpu0_L2C AVERAGE dMISS LATENCY: 77.2195 cycles
cpu0_L2C AVERAGE itMISS LATENCY: 2.17842 cycles
cpu0_L2C AVERAGE dtMISS LATENCY: 16.2584 cycles
cpu0_L2C PAGE CROSSINGS (TLB HIT):         0 
cpu0_L2C PAGE CROSSINGS (TLB MISS):         0 
cpu0_L2C AVERAGE MISS LATENCY: 135.98 cycles
LLC TOTAL       ACCESS:    4354269  HIT:    1382102  MISS:    2972167  iACCESS:    1381508  iHIT:     448933  iMISS:     932575  dACCESS:    2542273  dHIT:     878580  dMISS:    1663693  itACCESS:      51085  itHIT:       3747  itMISS:      47338  dtACCESS:     379403  dtHIT:      50842  dtMISS:     328561
LLC LOAD         ACCESS:    1016502  HIT:     341947  MISS:     674555  iACCESS:     303647  iHIT:     106354  iMISS:     197293  dACCESS:     712855  dHIT:     235593  dMISS:     477262  itACCESS:          0  itHIT:          0  itMISS:          0  dtACCESS:          0  dtHIT:          0  dtMISS:          0
LLC RFO          ACCESS:     128049  HIT:      40418  MISS:      87631  iACCESS:          0  iHIT:          0  iMISS:          0  dACCESS:     128049  dHIT:      40418  dMISS:      87631  itACCESS:          0  itHIT:          0  itMISS:          0  dtACCESS:          0  dtHIT:          0  dtMISS:          0
LLC PREFETCH     ACCESS:    2569674  HIT:     746187  MISS:    1823487  iACCESS:    1077861  iHIT:     342579  iMISS:     735282  dACCESS:    1491813  dHIT:     403608  dMISS:    1088205  itACCESS:          0  itHIT:          0  itMISS:          0  dtACCESS:          0  dtHIT:          0  dtMISS:          0
LLC WRITE        ACCESS:     209556  HIT:     198961  MISS:      10595  iACCESS:          0  iHIT:          0  iMISS:          0  dACCESS:     209556  dHIT:     198961  dMISS:      10595  itACCESS:          0  itHIT:          0  itMISS:          0  dtACCESS:          0  dtHIT:          0  dtMISS:          0
LLC TRANSLATION  ACCESS:     430488  HIT:      54589  MISS:     375899  iACCESS:          0  iHIT:          0  iMISS:          0  dACCESS:          0  dHIT:          0  dMISS:          0  itACCESS:      51085  itHIT:       3747  itMISS:      47338  dtACCESS:     379403  dtHIT:      50842  dtMISS:     328561
LLC PREFETCH  REQUESTED:          0  ISSUED:          0  CROSSED:          0  USEFUL:          0  USELESS:          0
LLC AVERAGE iMISS LATENCY: 49.9254 cycles
LLC AVERAGE dMISS LATENCY: 98.2632 cycles
LLC AVERAGE itMISS LATENCY: 2.85071 cycles
LLC AVERAGE dtMISS LATENCY: 21.2974 cycles
LLC PAGE CROSSINGS (TLB HIT):         0 
LLC PAGE CROSSINGS (TLB MISS):         0 
LLC AVERAGE MISS LATENCY: 172.337 cycles

PageTableWalker TOTAL       ACCESS:     169684  
PageTableWalker AVERAGE LATENCY: 6.85567 cycles
PageTableWalker TOTAL LATENCY: 1163296 cycles

DRAM Statistics
Channel 0
 RQ ROW_BUFFER_HIT:     632313
  ROW_BUFFER_MISS:    2319433
 AVG DBUS CONGESTED CYCLE:    3.64885
 WQ ROW_BUFFER_HIT:      63421
  ROW_BUFFER_MISS:      53247  FULL:          0

