last_page:0x200000000000000
VMEM_RES_CAP:0x100000
PAGE_SIZE:4096
LOG2_PAGE_SIZE:12
LOG2_PAGE_TABLE_SIZE:9
page_table_levels:5
WARNING: physical memory size is smaller than virtual memory size
FDiP enabled with aggresivity 16

*** ChampSim Multicore Out-of-Order Simulator ***

Warmup Instructions: 50000000
Simulation Instructions: 100000000
Number of CPUs: 1
Small page size: 4096
Large page size: 2097152

CPU 0 Bimodal branch predictor
Basic BTB sets: 1024 ways: 8 indirect buffer size: 4096 RAS size: 64
Instruction page size distrubution: 0
Loading instruction page size distribution from /home/bsc/bsc018186/scratch/itp_asplos25_AE/dump/smt_srv207_ap_srv259_ap_1024i.pdst
Data page size distrubution: 0
Loading data page size distribution from /home/bsc/bsc018186/scratch/itp_asplos25_AE/dump/smt_srv207_ap_srv259_ap_1024i.pdst
cpu0_L2C IP-based stride prefetcher
cpu0_L1D next line prefetcher
cpu0_STLB using iTP with max lru@8
cpu0_STLB using iTP with instr@0 and data@2
Init sat counter with 3 bits (max:50).
cpu0_L1I next line prefetcher
Off-chip DRAM Size: 4 GiB Channels: 1 Width: 64-bit Data Rate: 3200 MT/s
Heartbeat CPU 0 instructions: 10000001 cycles: 2500304 heartbeat IPC: 3.99952 cumulative IPC: 3.99952 (Simulation time: 0 hr 0 min 35 sec) 
Heartbeat CPU 0 instructions: 20000002 cycles: 5000498 heartbeat IPC: 3.9997 cumulative IPC: 3.99961 (Simulation time: 0 hr 1 min 13 sec) 
Heartbeat CPU 0 instructions: 30000001 cycles: 7500594 heartbeat IPC: 3.99985 cumulative IPC: 3.99969 (Simulation time: 0 hr 1 min 52 sec) 
Heartbeat CPU 0 instructions: 40000002 cycles: 10000904 heartbeat IPC: 3.99951 cumulative IPC: 3.99964 (Simulation time: 0 hr 2 min 30 sec) 
Heartbeat CPU 0 instructions: 50000001 cycles: 12501121 heartbeat IPC: 3.99966 cumulative IPC: 3.99965 (Simulation time: 0 hr 3 min 9 sec) 
Warmup finished CPU 0 instructions: 50000001 cycles: 12501122 cumulative IPC: 3.99965 (Simulation time: 0 hr 3 min 9 sec) 

Warmup complete CPU 0 instructions: 50000001 cycles: 12501122 (Simulation time: 0 hr 3 min 9 sec) 

Heartbeat CPU 0 instructions: 60000000 cycles: 39201393 heartbeat IPC: 0.374528 cumulative IPC: 0.374528 (Simulation time: 0 hr 4 min 27 sec) 
Heartbeat CPU 0 instructions: 70000002 cycles: 66829412 heartbeat IPC: 0.361952 cumulative IPC: 0.368133 (Simulation time: 0 hr 5 min 47 sec) 
Heartbeat CPU 0 instructions: 80000002 cycles: 94197816 heartbeat IPC: 0.365385 cumulative IPC: 0.367212 (Simulation time: 0 hr 7 min 6 sec) 
Heartbeat CPU 0 instructions: 90000003 cycles: 121072113 heartbeat IPC: 0.372103 cumulative IPC: 0.368423 (Simulation time: 0 hr 8 min 24 sec) 
Heartbeat CPU 0 instructions: 100000000 cycles: 148764139 heartbeat IPC: 0.361115 cumulative IPC: 0.366938 (Simulation time: 0 hr 9 min 44 sec) 
Heartbeat CPU 0 instructions: 110000002 cycles: 176263618 heartbeat IPC: 0.363644 cumulative IPC: 0.366385 (Simulation time: 0 hr 11 min 4 sec) 
Heartbeat CPU 0 instructions: 120000003 cycles: 202410410 heartbeat IPC: 0.382457 cumulative IPC: 0.368598 (Simulation time: 0 hr 12 min 22 sec) 
Heartbeat CPU 0 instructions: 130000002 cycles: 228646337 heartbeat IPC: 0.381157 cumulative IPC: 0.370122 (Simulation time: 0 hr 13 min 40 sec) 
Heartbeat CPU 0 instructions: 140000000 cycles: 255897683 heartbeat IPC: 0.366955 cumulative IPC: 0.369767 (Simulation time: 0 hr 15 min 0 sec) 
Heartbeat CPU 0 instructions: 150000000 cycles: 283613744 heartbeat IPC: 0.360802 cumulative IPC: 0.368851 (Simulation time: 0 hr 16 min 20 sec) 
Simulation finished CPU 0 instructions: 100000004 cycles: 271112624 cumulative IPC: 0.368851 (Simulation time: 0 hr 16 min 20 sec) 

Simulation complete CPU 0 instructions: 100000004 cycles: 271112624 (Simulation time: 0 hr 16 min 20 sec) 


ChampSim completed all CPUs

Saving instructions large page distribution to /home/bsc/bsc018186/scratch/itp_asplos25_AE/dump/smt_srv207_ap_srv259_ap_1024i.pdst...
Saving data large page distribution to /home/bsc/bsc018186/scratch/itp_asplos25_AE/dump/smt_srv207_ap_srv259_ap_1024i.pdst...
=== Simulation ===
CPU 0 runs /gpfs/projects/bsc18/MN4/bsc18/romol/ChampSim/traces/qualcomm_srv/smt_srv207_ap_srv259_ap_1024i.champsimtrace.xz

Region of Interest Statistics

CPU 0 cumulative IPC: 0.368851 instructions: 100000004 cycles: 271112624
CPU 0 Branch Prediction Accuracy: 75.9618% MPKI: 43.2597 Average ROB Occupancy at Mispredict: 11.2201
Branch type MPKI
BRANCH_DIRECT_JUMP: 1.33408
BRANCH_INDIRECT: 23.4031
BRANCH_CONDITIONAL: 11.6055
BRANCH_DIRECT_CALL: 2.45749
BRANCH_INDIRECT_CALL: 1.00685
BRANCH_RETURN: 3.4527

Instructions large pages: 0
Instructions small pages: 11193
Large page distribution for instructions: 0%

Data large pages: 0
Data small pages: 9904
Large page distribution for data: 0%

cpu0_L1I TOTAL       ACCESS:   39093262  HIT:   29786972  MISS:    9306290  iACCESS:   39093262  iHIT:   29786972  iMISS:    9306290  dACCESS:          0  dHIT:          0  dMISS:          0  itACCESS:          0  itHIT:          0  itMISS:          0  dtACCESS:          0  dtHIT:          0  dtMISS:          0
cpu0_L1I LOAD         ACCESS:   11604707  HIT:    9046939  MISS:    2557768  iACCESS:   11604707  iHIT:    9046939  iMISS:    2557768  dACCESS:          0  dHIT:          0  dMISS:          0  itACCESS:          0  itHIT:          0  itMISS:          0  dtACCESS:          0  dtHIT:          0  dtMISS:          0
cpu0_L1I RFO          ACCESS:          0  HIT:          0  MISS:          0  iACCESS:          0  iHIT:          0  iMISS:          0  dACCESS:          0  dHIT:          0  dMISS:          0  itACCESS:          0  itHIT:          0  itMISS:          0  dtACCESS:          0  dtHIT:          0  dtMISS:          0
cpu0_L1I PREFETCH     ACCESS:   27488555  HIT:   20740033  MISS:    6748522  iACCESS:   27488555  iHIT:   20740033  iMISS:    6748522  dACCESS:          0  dHIT:          0  dMISS:          0  itACCESS:          0  itHIT:          0  itMISS:          0  dtACCESS:          0  dtHIT:          0  dtMISS:          0
cpu0_L1I WRITE        ACCESS:          0  HIT:          0  MISS:          0  iACCESS:          0  iHIT:          0  iMISS:          0  dACCESS:          0  dHIT:          0  dMISS:          0  itACCESS:          0  itHIT:          0  itMISS:          0  dtACCESS:          0  dtHIT:          0  dtMISS:          0
cpu0_L1I TRANSLATION  ACCESS:          0  HIT:          0  MISS:          0  iACCESS:          0  iHIT:          0  iMISS:          0  dACCESS:          0  dHIT:          0  dMISS:          0  itACCESS:          0  itHIT:          0  itMISS:          0  dtACCESS:          0  dtHIT:          0  dtMISS:          0
cpu0_L1I PREFETCH  REQUESTED:   30062692  ISSUED:   30061475  CROSSED:          0  USEFUL:    2207678  USELESS:     788665
cpu0_L1I AVERAGE iMISS LATENCY: 22.3287 cycles
cpu0_L1I AVERAGE dMISS LATENCY: 0 cycles
cpu0_L1I AVERAGE itMISS LATENCY: 0 cycles
cpu0_L1I AVERAGE dtMISS LATENCY: 0 cycles
cpu0_L1I PAGE CROSSINGS (TLB HIT):         0 
cpu0_L1I PAGE CROSSINGS (TLB MISS):         0 
cpu0_L1I AVERAGE MISS LATENCY: 22.3287 cycles
cpu0_ITLB TOTAL       ACCESS:   32863184  HIT:   30578108  MISS:    2285076  iACCESS:   32863184  iHIT:   30578108  iMISS:    2285076  dACCESS:          0  dHIT:          0  dMISS:          0  itACCESS:          0  itHIT:          0  itMISS:          0  dtACCESS:          0  dtHIT:          0  dtMISS:          0
cpu0_ITLB LOAD         ACCESS:   32863184  HIT:   30578108  MISS:    2285076  iACCESS:   32863184  iHIT:   30578108  iMISS:    2285076  dACCESS:          0  dHIT:          0  dMISS:          0  itACCESS:          0  itHIT:          0  itMISS:          0  dtACCESS:          0  dtHIT:          0  dtMISS:          0
cpu0_ITLB RFO          ACCESS:          0  HIT:          0  MISS:          0  iACCESS:          0  iHIT:          0  iMISS:          0  dACCESS:          0  dHIT:          0  dMISS:          0  itACCESS:          0  itHIT:          0  itMISS:          0  dtACCESS:          0  dtHIT:          0  dtMISS:          0
cpu0_ITLB PREFETCH     ACCESS:          0  HIT:          0  MISS:          0  iACCESS:          0  iHIT:          0  iMISS:          0  dACCESS:          0  dHIT:          0  dMISS:          0  itACCESS:          0  itHIT:          0  itMISS:          0  dtACCESS:          0  dtHIT:          0  dtMISS:          0
cpu0_ITLB WRITE        ACCESS:          0  HIT:          0  MISS:          0  iACCESS:          0  iHIT:          0  iMISS:          0  dACCESS:          0  dHIT:          0  dMISS:          0  itACCESS:          0  itHIT:          0  itMISS:          0  dtACCESS:          0  dtHIT:          0  dtMISS:          0
cpu0_ITLB TRANSLATION  ACCESS:          0  HIT:          0  MISS:          0  iACCESS:          0  iHIT:          0  iMISS:          0  dACCESS:          0  dHIT:          0  dMISS:          0  itACCESS:          0  itHIT:          0  itMISS:          0  dtACCESS:          0  dtHIT:          0  dtMISS:          0
cpu0_ITLB PREFETCH  REQUESTED:          0  ISSUED:          0  CROSSED:          0  USEFUL:     394570  USELESS:      84334
cpu0_ITLB AVERAGE iMISS LATENCY: 5.21335 cycles
cpu0_ITLB AVERAGE dMISS LATENCY: 0 cycles
cpu0_ITLB AVERAGE itMISS LATENCY: 0 cycles
cpu0_ITLB AVERAGE dtMISS LATENCY: 0 cycles
cpu0_ITLB PAGE CROSSINGS (TLB HIT):         0 
cpu0_ITLB PAGE CROSSINGS (TLB MISS):         0 
cpu0_ITLB AVERAGE MISS LATENCY: 5.21335 cycles
cpu0_DTLB TOTAL       ACCESS:   29163466  HIT:   25571414  MISS:    3592052  iACCESS:          0  iHIT:          0  iMISS:          0  dACCESS:   29163466  dHIT:   25571414  dMISS:    3592052  itACCESS:          0  itHIT:          0  itMISS:          0  dtACCESS:          0  dtHIT:          0  dtMISS:          0
cpu0_DTLB LOAD         ACCESS:   29163466  HIT:   25571414  MISS:    3592052  iACCESS:          0  iHIT:          0  iMISS:          0  dACCESS:   29163466  dHIT:   25571414  dMISS:    3592052  itACCESS:          0  itHIT:          0  itMISS:          0  dtACCESS:          0  dtHIT:          0  dtMISS:          0
cpu0_DTLB RFO          ACCESS:          0  HIT:          0  MISS:          0  iACCESS:          0  iHIT:          0  iMISS:          0  dACCESS:          0  dHIT:          0  dMISS:          0  itACCESS:          0  itHIT:          0  itMISS:          0  dtACCESS:          0  dtHIT:          0  dtMISS:          0
cpu0_DTLB PREFETCH     ACCESS:          0  HIT:          0  MISS:          0  iACCESS:          0  iHIT:          0  iMISS:          0  dACCESS:          0  dHIT:          0  dMISS:          0  itACCESS:          0  itHIT:          0  itMISS:          0  dtACCESS:          0  dtHIT:          0  dtMISS:          0
cpu0_DTLB WRITE        ACCESS:          0  HIT:          0  MISS:          0  iACCESS:          0  iHIT:          0  iMISS:          0  dACCESS:          0  dHIT:          0  dMISS:          0  itACCESS:          0  itHIT:          0  itMISS:          0  dtACCESS:          0  dtHIT:          0  dtMISS:          0
cpu0_DTLB TRANSLATION  ACCESS:          0  HIT:          0  MISS:          0  iACCESS:          0  iHIT:          0  iMISS:          0  dACCESS:          0  dHIT:          0  dMISS:          0  itACCESS:          0  itHIT:          0  itMISS:          0  dtACCESS:          0  dtHIT:          0  dtMISS:          0
cpu0_DTLB PREFETCH  REQUESTED:          0  ISSUED:          0  CROSSED:          0  USEFUL:          0  USELESS:          0
cpu0_DTLB AVERAGE iMISS LATENCY: 0 cycles
cpu0_DTLB AVERAGE dMISS LATENCY: 19.3438 cycles
cpu0_DTLB AVERAGE itMISS LATENCY: 0 cycles
cpu0_DTLB AVERAGE dtMISS LATENCY: 0 cycles
cpu0_DTLB PAGE CROSSINGS (TLB HIT):         0 
cpu0_DTLB PAGE CROSSINGS (TLB MISS):         0 
cpu0_DTLB AVERAGE MISS LATENCY: 19.3438 cycles
cpu0_STLB TOTAL       ACCESS:    2574707  HIT:    2200819  MISS:     373888  iACCESS:     478911  iHIT:     427305  iMISS:      51606  dACCESS:    2095796  dHIT:    1773514  dMISS:     322282  itACCESS:          0  itHIT:          0  itMISS:          0  dtACCESS:          0  dtHIT:          0  dtMISS:          0
cpu0_STLB LOAD         ACCESS:    2574707  HIT:    2200819  MISS:     373888  iACCESS:     478911  iHIT:     427305  iMISS:      51606  dACCESS:    2095796  dHIT:    1773514  dMISS:     322282  itACCESS:          0  itHIT:          0  itMISS:          0  dtACCESS:          0  dtHIT:          0  dtMISS:          0
cpu0_STLB RFO          ACCESS:          0  HIT:          0  MISS:          0  iACCESS:          0  iHIT:          0  iMISS:          0  dACCESS:          0  dHIT:          0  dMISS:          0  itACCESS:          0  itHIT:          0  itMISS:          0  dtACCESS:          0  dtHIT:          0  dtMISS:          0
cpu0_STLB PREFETCH     ACCESS:          0  HIT:          0  MISS:          0  iACCESS:          0  iHIT:          0  iMISS:          0  dACCESS:          0  dHIT:          0  dMISS:          0  itACCESS:          0  itHIT:          0  itMISS:          0  dtACCESS:          0  dtHIT:          0  dtMISS:          0
cpu0_STLB WRITE        ACCESS:          0  HIT:          0  MISS:          0  iACCESS:          0  iHIT:          0  iMISS:          0  dACCESS:          0  dHIT:          0  dMISS:          0  itACCESS:          0  itHIT:          0  itMISS:          0  dtACCESS:          0  dtHIT:          0  dtMISS:          0
cpu0_STLB TRANSLATION  ACCESS:          0  HIT:          0  MISS:          0  iACCESS:          0  iHIT:          0  iMISS:          0  dACCESS:          0  dHIT:          0  dMISS:          0  itACCESS:          0  itHIT:          0  itMISS:          0  dtACCESS:          0  dtHIT:          0  dtMISS:          0
cpu0_STLB PREFETCH  REQUESTED:          0  ISSUED:          0  CROSSED:          0  USEFUL:          0  USELESS:          0
cpu0_STLB AVERAGE iMISS LATENCY: 21.8174 cycles
cpu0_STLB AVERAGE dMISS LATENCY: 140.642 cycles
cpu0_STLB AVERAGE itMISS LATENCY: 0 cycles
cpu0_STLB AVERAGE dtMISS LATENCY: 0 cycles
cpu0_STLB PAGE CROSSINGS (TLB HIT):         0 
cpu0_STLB PAGE CROSSINGS (TLB MISS):         0 
cpu0_STLB AVERAGE MISS LATENCY: 162.459 cycles
cpu0_L1D TOTAL       ACCESS:   45620240  HIT:   39513920  MISS:    6106320  iACCESS:          0  iHIT:          0  iMISS:          0  dACCESS:   45044181  dHIT:   39486038  dMISS:    5558143  itACCESS:      62460  itHIT:       4194  itMISS:      58266  dtACCESS:     513599  dtHIT:      23688  dtMISS:     489911
cpu0_L1D LOAD         ACCESS:   20672575  HIT:   18151202  MISS:    2521373  iACCESS:          0  iHIT:          0  iMISS:          0  dACCESS:   20672575  dHIT:   18151202  dMISS:    2521373  itACCESS:          0  itHIT:          0  itMISS:          0  dtACCESS:          0  dtHIT:          0  dtMISS:          0
cpu0_L1D RFO          ACCESS:          0  HIT:          0  MISS:          0  iACCESS:          0  iHIT:          0  iMISS:          0  dACCESS:          0  dHIT:          0  dMISS:          0  itACCESS:          0  itHIT:          0  itMISS:          0  dtACCESS:          0  dtHIT:          0  dtMISS:          0
cpu0_L1D PREFETCH     ACCESS:   14281747  HIT:   11842459  MISS:    2439288  iACCESS:          0  iHIT:          0  iMISS:          0  dACCESS:   14281747  dHIT:   11842459  dMISS:    2439288  itACCESS:          0  itHIT:          0  itMISS:          0  dtACCESS:          0  dtHIT:          0  dtMISS:          0
cpu0_L1D WRITE        ACCESS:   10089859  HIT:    9492377  MISS:     597482  iACCESS:          0  iHIT:          0  iMISS:          0  dACCESS:   10089859  dHIT:    9492377  dMISS:     597482  itACCESS:          0  itHIT:          0  itMISS:          0  dtACCESS:          0  dtHIT:          0  dtMISS:          0
cpu0_L1D TRANSLATION  ACCESS:     576059  HIT:      27882  MISS:     548177  iACCESS:          0  iHIT:          0  iMISS:          0  dACCESS:          0  dHIT:          0  dMISS:          0  itACCESS:      62460  itHIT:       4194  itMISS:      58266  dtACCESS:     513599  dtHIT:      23688  dtMISS:     489911
cpu0_L1D PREFETCH  REQUESTED:   20672575  ISSUED:   18823902  CROSSED:          0  USEFUL:     375912  USELESS:     953060
cpu0_L1D AVERAGE iMISS LATENCY: 0 cycles
cpu0_L1D AVERAGE dMISS LATENCY: 49.5885 cycles
cpu0_L1D AVERAGE itMISS LATENCY: 1.24518 cycles
cpu0_L1D AVERAGE dtMISS LATENCY: 7.77384 cycles
cpu0_L1D PAGE CROSSINGS (TLB HIT):         0 
cpu0_L1D PAGE CROSSINGS (TLB MISS):         0 
cpu0_L1D AVERAGE MISS LATENCY: 58.6075 cycles
cpu0_L2C TOTAL       ACCESS:    8752324  HIT:    1530352  MISS:    7221972  iACCESS:    3824757  iHIT:     784859  iMISS:    3039898  dACCESS:    4410163  dHIT:     541004  dMISS:    3869159  itACCESS:      58096  itHIT:      14104  itMISS:      43992  dtACCESS:     459308  dtHIT:     190385  dtMISS:     268923
cpu0_L2C LOAD         ACCESS:    2113576  HIT:     206982  MISS:    1906594  iACCESS:     861457  iHIT:     108681  iMISS:     752776  dACCESS:    1252119  dHIT:      98301  dMISS:    1153818  itACCESS:          0  itHIT:          0  itMISS:          0  dtACCESS:          0  dtHIT:          0  dtMISS:          0
cpu0_L2C RFO          ACCESS:     224730  HIT:      28525  MISS:     196205  iACCESS:          0  iHIT:          0  iMISS:          0  dACCESS:     224730  dHIT:      28525  dMISS:     196205  itACCESS:          0  itHIT:          0  itMISS:          0  dtACCESS:          0  dtHIT:          0  dtMISS:          0
cpu0_L2C PREFETCH     ACCESS:    5550624  HIT:     985769  MISS:    4564855  iACCESS:    2963300  iHIT:     676178  iMISS:    2287122  dACCESS:    2587324  dHIT:     309591  dMISS:    2277733  itACCESS:          0  itHIT:          0  itMISS:          0  dtACCESS:          0  dtHIT:          0  dtMISS:          0
cpu0_L2C WRITE        ACCESS:     345990  HIT:     104587  MISS:     241403  iACCESS:          0  iHIT:          0  iMISS:          0  dACCESS:     345990  dHIT:     104587  dMISS:     241403  itACCESS:          0  itHIT:          0  itMISS:          0  dtACCESS:          0  dtHIT:          0  dtMISS:          0
cpu0_L2C TRANSLATION  ACCESS:     517404  HIT:     204489  MISS:     312915  iACCESS:          0  iHIT:          0  iMISS:          0  dACCESS:          0  dHIT:          0  dMISS:          0  itACCESS:      58096  itHIT:      14104  itMISS:      43992  dtACCESS:     459308  dtHIT:     190385  dtMISS:     268923
cpu0_L2C PREFETCH  REQUESTED:    1516751  ISSUED:    1516751  CROSSED:          0  USEFUL:     416179  USELESS:     481652
cpu0_L2C AVERAGE iMISS LATENCY: 24.0779 cycles
cpu0_L2C AVERAGE dMISS LATENCY: 49.7143 cycles
cpu0_L2C AVERAGE itMISS LATENCY: 0.974039 cycles
cpu0_L2C AVERAGE dtMISS LATENCY: 5.96028 cycles
cpu0_L2C PAGE CROSSINGS (TLB HIT):         0 
cpu0_L2C PAGE CROSSINGS (TLB MISS):         0 
cpu0_L2C AVERAGE MISS LATENCY: 80.7264 cycles
LLC TOTAL       ACCESS:    7062332  HIT:    4470195  MISS:    2592137  iACCESS:    2961652  iHIT:    2225833  iMISS:     735819  dACCESS:    3787765  dHIT:    2165261  dMISS:    1622504  itACCESS:      43992  itHIT:       9304  itMISS:      34688  dtACCESS:     268923  dtHIT:      69797  dtMISS:     199126
LLC LOAD         ACCESS:    1897934  HIT:    1241023  MISS:     656911  iACCESS:     751433  iHIT:     598071  iMISS:     153362  dACCESS:    1146501  dHIT:     642952  dMISS:     503549  itACCESS:          0  itHIT:          0  itMISS:          0  dtACCESS:          0  dtHIT:          0  dtMISS:          0
LLC RFO          ACCESS:     196173  HIT:     103812  MISS:      92361  iACCESS:          0  iHIT:          0  iMISS:          0  dACCESS:     196173  dHIT:     103812  dMISS:      92361  itACCESS:          0  itHIT:          0  itMISS:          0  dtACCESS:          0  dtHIT:          0  dtMISS:          0
LLC PREFETCH     ACCESS:    4382776  HIT:    2780707  MISS:    1602069  iACCESS:    2210219  iHIT:    1627762  iMISS:     582457  dACCESS:    2172557  dHIT:    1152945  dMISS:    1019612  itACCESS:          0  itHIT:          0  itMISS:          0  dtACCESS:          0  dtHIT:          0  dtMISS:          0
LLC WRITE        ACCESS:     272534  HIT:     265552  MISS:       6982  iACCESS:          0  iHIT:          0  iMISS:          0  dACCESS:     272534  dHIT:     265552  dMISS:       6982  itACCESS:          0  itHIT:          0  itMISS:          0  dtACCESS:          0  dtHIT:          0  dtMISS:          0
LLC TRANSLATION  ACCESS:     312915  HIT:      79101  MISS:     233814  iACCESS:          0  iHIT:          0  iMISS:          0  dACCESS:          0  dHIT:          0  dMISS:          0  itACCESS:      43992  itHIT:       9304  itMISS:      34688  dtACCESS:     268923  dtHIT:      69797  dtMISS:     199126
LLC PREFETCH  REQUESTED:          0  ISSUED:          0  CROSSED:          0  USEFUL:          0  USELESS:          0
LLC AVERAGE iMISS LATENCY: 44.9372 cycles
LLC AVERAGE dMISS LATENCY: 113.106 cycles
LLC AVERAGE itMISS LATENCY: 2.37915 cycles
LLC AVERAGE dtMISS LATENCY: 14.564 cycles
LLC PAGE CROSSINGS (TLB HIT):         0 
LLC PAGE CROSSINGS (TLB MISS):         0 
LLC AVERAGE MISS LATENCY: 174.987 cycles

PageTableWalker TOTAL       ACCESS:     180627  
PageTableWalker AVERAGE LATENCY: 6.18737 cycles
PageTableWalker TOTAL LATENCY: 1117606 cycles

DRAM Statistics
Channel 0
 RQ ROW_BUFFER_HIT:     552276
  ROW_BUFFER_MISS:    2012094
 AVG DBUS CONGESTED CYCLE:    3.65177
 WQ ROW_BUFFER_HIT:      65481
  ROW_BUFFER_MISS:      63036  FULL:          0

