last_page:0x200000000000000
VMEM_RES_CAP:0x100000
PAGE_SIZE:4096
LOG2_PAGE_SIZE:12
LOG2_PAGE_TABLE_SIZE:9
page_table_levels:5
WARNING: physical memory size is smaller than virtual memory size
FDiP enabled with aggresivity 16

*** ChampSim Multicore Out-of-Order Simulator ***

Warmup Instructions: 50000000
Simulation Instructions: 100000000
Number of CPUs: 1
Small page size: 4096
Large page size: 2097152

CPU 0 Bimodal branch predictor
Basic BTB sets: 1024 ways: 8 indirect buffer size: 4096 RAS size: 64
Instruction page size distrubution: 0
Loading instruction page size distribution from /home/bsc/bsc018186/scratch/itp_asplos25_AE/dump/smt_srv12_ap_srv551_ap_1024i.pdst
Data page size distrubution: 0
Loading data page size distribution from /home/bsc/bsc018186/scratch/itp_asplos25_AE/dump/smt_srv12_ap_srv551_ap_1024i.pdst
cpu0_L2C IP-based stride prefetcher
cpu0_L1D next line prefetcher
CHiRPing...
cpu0_L1I next line prefetcher
Off-chip DRAM Size: 4 GiB Channels: 1 Width: 64-bit Data Rate: 3200 MT/s
Heartbeat CPU 0 instructions: 10000000 cycles: 2500514 heartbeat IPC: 3.99918 cumulative IPC: 3.99918 (Simulation time: 0 hr 0 min 40 sec) 
Heartbeat CPU 0 instructions: 20000000 cycles: 5001084 heartbeat IPC: 3.99909 cumulative IPC: 3.99914 (Simulation time: 0 hr 1 min 22 sec) 
Heartbeat CPU 0 instructions: 30000001 cycles: 7501787 heartbeat IPC: 3.99888 cumulative IPC: 3.99905 (Simulation time: 0 hr 2 min 6 sec) 
Heartbeat CPU 0 instructions: 40000000 cycles: 10002243 heartbeat IPC: 3.99928 cumulative IPC: 3.99911 (Simulation time: 0 hr 2 min 49 sec) 
Heartbeat CPU 0 instructions: 50000000 cycles: 12502664 heartbeat IPC: 3.99933 cumulative IPC: 3.99915 (Simulation time: 0 hr 3 min 32 sec) 
Warmup finished CPU 0 instructions: 50000000 cycles: 12502665 cumulative IPC: 3.99915 (Simulation time: 0 hr 3 min 32 sec) 

Warmup complete CPU 0 instructions: 50000000 cycles: 12502665 (Simulation time: 0 hr 3 min 32 sec) 

Heartbeat CPU 0 instructions: 60000000 cycles: 41824730 heartbeat IPC: 0.341041 cumulative IPC: 0.341041 (Simulation time: 0 hr 5 min 0 sec) 
Heartbeat CPU 0 instructions: 70000000 cycles: 71849863 heartbeat IPC: 0.333055 cumulative IPC: 0.337 (Simulation time: 0 hr 6 min 28 sec) 
Heartbeat CPU 0 instructions: 80000001 cycles: 100992411 heartbeat IPC: 0.343141 cumulative IPC: 0.339023 (Simulation time: 0 hr 7 min 56 sec) 
Heartbeat CPU 0 instructions: 90000000 cycles: 126956887 heartbeat IPC: 0.385142 cumulative IPC: 0.349485 (Simulation time: 0 hr 9 min 19 sec) 
Heartbeat CPU 0 instructions: 100000000 cycles: 155716552 heartbeat IPC: 0.34771 cumulative IPC: 0.349129 (Simulation time: 0 hr 10 min 46 sec) 
Heartbeat CPU 0 instructions: 110000000 cycles: 183990850 heartbeat IPC: 0.353679 cumulative IPC: 0.349879 (Simulation time: 0 hr 12 min 13 sec) 
Heartbeat CPU 0 instructions: 120000001 cycles: 208886128 heartbeat IPC: 0.401683 cumulative IPC: 0.356446 (Simulation time: 0 hr 13 min 39 sec) 
Heartbeat CPU 0 instructions: 130000001 cycles: 226933207 heartbeat IPC: 0.554107 cumulative IPC: 0.373082 (Simulation time: 0 hr 14 min 58 sec) 
Heartbeat CPU 0 instructions: 140000000 cycles: 245562635 heartbeat IPC: 0.536786 cumulative IPC: 0.386167 (Simulation time: 0 hr 16 min 16 sec) 
Heartbeat CPU 0 instructions: 150000002 cycles: 275271175 heartbeat IPC: 0.336604 cumulative IPC: 0.380564 (Simulation time: 0 hr 17 min 47 sec) 
Simulation finished CPU 0 instructions: 100000002 cycles: 262768511 cumulative IPC: 0.380564 (Simulation time: 0 hr 17 min 47 sec) 

Simulation complete CPU 0 instructions: 100000002 cycles: 262768511 (Simulation time: 0 hr 17 min 47 sec) 


ChampSim completed all CPUs

Saving instructions large page distribution to /home/bsc/bsc018186/scratch/itp_asplos25_AE/dump/smt_srv12_ap_srv551_ap_1024i.pdst...
Saving data large page distribution to /home/bsc/bsc018186/scratch/itp_asplos25_AE/dump/smt_srv12_ap_srv551_ap_1024i.pdst...
=== Simulation ===
CPU 0 runs /gpfs/projects/bsc18/MN4/bsc18/romol/ChampSim/traces/qualcomm_srv/smt_srv12_ap_srv551_ap_1024i.champsimtrace.xz

Region of Interest Statistics

CPU 0 cumulative IPC: 0.380564 instructions: 100000002 cycles: 262768511
CPU 0 Branch Prediction Accuracy: 77.4284% MPKI: 43.7503 Average ROB Occupancy at Mispredict: 10.9914
Branch type MPKI
BRANCH_DIRECT_JUMP: 1.31189
BRANCH_INDIRECT: 23.221
BRANCH_CONDITIONAL: 12.1681
BRANCH_DIRECT_CALL: 2.50058
BRANCH_INDIRECT_CALL: 1.1935
BRANCH_RETURN: 3.35538

Instructions large pages: 0
Instructions small pages: 11842
Large page distribution for instructions: 0%

Data large pages: 0
Data small pages: 9976
Large page distribution for data: 0%

cpu0_L1I TOTAL       ACCESS:   40245906  HIT:   32086137  MISS:    8159769  iACCESS:   40245906  iHIT:   32086137  iMISS:    8159769  dACCESS:          0  dHIT:          0  dMISS:          0  itACCESS:          0  itHIT:          0  itMISS:          0  dtACCESS:          0  dtHIT:          0  dtMISS:          0
cpu0_L1I LOAD         ACCESS:   11452031  HIT:    9242483  MISS:    2209548  iACCESS:   11452031  iHIT:    9242483  iMISS:    2209548  dACCESS:          0  dHIT:          0  dMISS:          0  itACCESS:          0  itHIT:          0  itMISS:          0  dtACCESS:          0  dtHIT:          0  dtMISS:          0
cpu0_L1I RFO          ACCESS:          0  HIT:          0  MISS:          0  iACCESS:          0  iHIT:          0  iMISS:          0  dACCESS:          0  dHIT:          0  dMISS:          0  itACCESS:          0  itHIT:          0  itMISS:          0  dtACCESS:          0  dtHIT:          0  dtMISS:          0
cpu0_L1I PREFETCH     ACCESS:   28793875  HIT:   22843654  MISS:    5950221  iACCESS:   28793875  iHIT:   22843654  iMISS:    5950221  dACCESS:          0  dHIT:          0  dMISS:          0  itACCESS:          0  itHIT:          0  itMISS:          0  dtACCESS:          0  dtHIT:          0  dtMISS:          0
cpu0_L1I WRITE        ACCESS:          0  HIT:          0  MISS:          0  iACCESS:          0  iHIT:          0  iMISS:          0  dACCESS:          0  dHIT:          0  dMISS:          0  itACCESS:          0  itHIT:          0  itMISS:          0  dtACCESS:          0  dtHIT:          0  dtMISS:          0
cpu0_L1I TRANSLATION  ACCESS:          0  HIT:          0  MISS:          0  iACCESS:          0  iHIT:          0  iMISS:          0  dACCESS:          0  dHIT:          0  dMISS:          0  itACCESS:          0  itHIT:          0  itMISS:          0  dtACCESS:          0  dtHIT:          0  dtMISS:          0
cpu0_L1I PREFETCH  REQUESTED:   31310722  ISSUED:   31309591  CROSSED:          0  USEFUL:    1984434  USELESS:     691548
cpu0_L1I AVERAGE iMISS LATENCY: 25.0503 cycles
cpu0_L1I AVERAGE dMISS LATENCY: 0 cycles
cpu0_L1I AVERAGE itMISS LATENCY: 0 cycles
cpu0_L1I AVERAGE dtMISS LATENCY: 0 cycles
cpu0_L1I PAGE CROSSINGS (TLB HIT):         0 
cpu0_L1I PAGE CROSSINGS (TLB MISS):         0 
cpu0_L1I AVERAGE MISS LATENCY: 25.0503 cycles
cpu0_ITLB TOTAL       ACCESS:   33746470  HIT:   31763549  MISS:    1982921  iACCESS:   33746470  iHIT:   31763549  iMISS:    1982921  dACCESS:          0  dHIT:          0  dMISS:          0  itACCESS:          0  itHIT:          0  itMISS:          0  dtACCESS:          0  dtHIT:          0  dtMISS:          0
cpu0_ITLB LOAD         ACCESS:   33746470  HIT:   31763549  MISS:    1982921  iACCESS:   33746470  iHIT:   31763549  iMISS:    1982921  dACCESS:          0  dHIT:          0  dMISS:          0  itACCESS:          0  itHIT:          0  itMISS:          0  dtACCESS:          0  dtHIT:          0  dtMISS:          0
cpu0_ITLB RFO          ACCESS:          0  HIT:          0  MISS:          0  iACCESS:          0  iHIT:          0  iMISS:          0  dACCESS:          0  dHIT:          0  dMISS:          0  itACCESS:          0  itHIT:          0  itMISS:          0  dtACCESS:          0  dtHIT:          0  dtMISS:          0
cpu0_ITLB PREFETCH     ACCESS:          0  HIT:          0  MISS:          0  iACCESS:          0  iHIT:          0  iMISS:          0  dACCESS:          0  dHIT:          0  dMISS:          0  itACCESS:          0  itHIT:          0  itMISS:          0  dtACCESS:          0  dtHIT:          0  dtMISS:          0
cpu0_ITLB WRITE        ACCESS:          0  HIT:          0  MISS:          0  iACCESS:          0  iHIT:          0  iMISS:          0  dACCESS:          0  dHIT:          0  dMISS:          0  itACCESS:          0  itHIT:          0  itMISS:          0  dtACCESS:          0  dtHIT:          0  dtMISS:          0
cpu0_ITLB TRANSLATION  ACCESS:          0  HIT:          0  MISS:          0  iACCESS:          0  iHIT:          0  iMISS:          0  dACCESS:          0  dHIT:          0  dMISS:          0  itACCESS:          0  itHIT:          0  itMISS:          0  dtACCESS:          0  dtHIT:          0  dtMISS:          0
cpu0_ITLB PREFETCH  REQUESTED:          0  ISSUED:          0  CROSSED:          0  USEFUL:     353940  USELESS:      71394
cpu0_ITLB AVERAGE iMISS LATENCY: 8.2173 cycles
cpu0_ITLB AVERAGE dMISS LATENCY: 0 cycles
cpu0_ITLB AVERAGE itMISS LATENCY: 0 cycles
cpu0_ITLB AVERAGE dtMISS LATENCY: 0 cycles
cpu0_ITLB PAGE CROSSINGS (TLB HIT):         0 
cpu0_ITLB PAGE CROSSINGS (TLB MISS):         0 
cpu0_ITLB AVERAGE MISS LATENCY: 8.2173 cycles
cpu0_DTLB TOTAL       ACCESS:   30904228  HIT:   24974745  MISS:    5929483  iACCESS:          0  iHIT:          0  iMISS:          0  dACCESS:   30904228  dHIT:   24974745  dMISS:    5929483  itACCESS:          0  itHIT:          0  itMISS:          0  dtACCESS:          0  dtHIT:          0  dtMISS:          0
cpu0_DTLB LOAD         ACCESS:   30904228  HIT:   24974745  MISS:    5929483  iACCESS:          0  iHIT:          0  iMISS:          0  dACCESS:   30904228  dHIT:   24974745  dMISS:    5929483  itACCESS:          0  itHIT:          0  itMISS:          0  dtACCESS:          0  dtHIT:          0  dtMISS:          0
cpu0_DTLB RFO          ACCESS:          0  HIT:          0  MISS:          0  iACCESS:          0  iHIT:          0  iMISS:          0  dACCESS:          0  dHIT:          0  dMISS:          0  itACCESS:          0  itHIT:          0  itMISS:          0  dtACCESS:          0  dtHIT:          0  dtMISS:          0
cpu0_DTLB PREFETCH     ACCESS:          0  HIT:          0  MISS:          0  iACCESS:          0  iHIT:          0  iMISS:          0  dACCESS:          0  dHIT:          0  dMISS:          0  itACCESS:          0  itHIT:          0  itMISS:          0  dtACCESS:          0  dtHIT:          0  dtMISS:          0
cpu0_DTLB WRITE        ACCESS:          0  HIT:          0  MISS:          0  iACCESS:          0  iHIT:          0  iMISS:          0  dACCESS:          0  dHIT:          0  dMISS:          0  itACCESS:          0  itHIT:          0  itMISS:          0  dtACCESS:          0  dtHIT:          0  dtMISS:          0
cpu0_DTLB TRANSLATION  ACCESS:          0  HIT:          0  MISS:          0  iACCESS:          0  iHIT:          0  iMISS:          0  dACCESS:          0  dHIT:          0  dMISS:          0  itACCESS:          0  itHIT:          0  itMISS:          0  dtACCESS:          0  dtHIT:          0  dtMISS:          0
cpu0_DTLB PREFETCH  REQUESTED:          0  ISSUED:          0  CROSSED:          0  USEFUL:          0  USELESS:          0
cpu0_DTLB AVERAGE iMISS LATENCY: 0 cycles
cpu0_DTLB AVERAGE dMISS LATENCY: 10.9438 cycles
cpu0_DTLB AVERAGE itMISS LATENCY: 0 cycles
cpu0_DTLB AVERAGE dtMISS LATENCY: 0 cycles
cpu0_DTLB PAGE CROSSINGS (TLB HIT):         0 
cpu0_DTLB PAGE CROSSINGS (TLB MISS):         0 
cpu0_DTLB AVERAGE MISS LATENCY: 10.9438 cycles
cpu0_STLB TOTAL       ACCESS:    3634563  HIT:    3304673  MISS:     329890  iACCESS:     425344  iHIT:     318314  iMISS:     107030  dACCESS:    3209219  dHIT:    2986359  dMISS:     222860  itACCESS:          0  itHIT:          0  itMISS:          0  dtACCESS:          0  dtHIT:          0  dtMISS:          0
cpu0_STLB LOAD         ACCESS:    3634563  HIT:    3304673  MISS:     329890  iACCESS:     425344  iHIT:     318314  iMISS:     107030  dACCESS:    3209219  dHIT:    2986359  dMISS:     222860  itACCESS:          0  itHIT:          0  itMISS:          0  dtACCESS:          0  dtHIT:          0  dtMISS:          0
cpu0_STLB RFO          ACCESS:          0  HIT:          0  MISS:          0  iACCESS:          0  iHIT:          0  iMISS:          0  dACCESS:          0  dHIT:          0  dMISS:          0  itACCESS:          0  itHIT:          0  itMISS:          0  dtACCESS:          0  dtHIT:          0  dtMISS:          0
cpu0_STLB PREFETCH     ACCESS:          0  HIT:          0  MISS:          0  iACCESS:          0  iHIT:          0  iMISS:          0  dACCESS:          0  dHIT:          0  dMISS:          0  itACCESS:          0  itHIT:          0  itMISS:          0  dtACCESS:          0  dtHIT:          0  dtMISS:          0
cpu0_STLB WRITE        ACCESS:          0  HIT:          0  MISS:          0  iACCESS:          0  iHIT:          0  iMISS:          0  dACCESS:          0  dHIT:          0  dMISS:          0  itACCESS:          0  itHIT:          0  itMISS:          0  dtACCESS:          0  dtHIT:          0  dtMISS:          0
cpu0_STLB TRANSLATION  ACCESS:          0  HIT:          0  MISS:          0  iACCESS:          0  iHIT:          0  iMISS:          0  dACCESS:          0  dHIT:          0  dMISS:          0  itACCESS:          0  itHIT:          0  itMISS:          0  dtACCESS:          0  dtHIT:          0  dtMISS:          0
cpu0_STLB PREFETCH  REQUESTED:          0  ISSUED:          0  CROSSED:          0  USEFUL:          0  USELESS:          0
cpu0_STLB AVERAGE iMISS LATENCY: 39.0769 cycles
cpu0_STLB AVERAGE dMISS LATENCY: 118.095 cycles
cpu0_STLB AVERAGE itMISS LATENCY: 0 cycles
cpu0_STLB AVERAGE dtMISS LATENCY: 0 cycles
cpu0_STLB PAGE CROSSINGS (TLB HIT):         0 
cpu0_STLB PAGE CROSSINGS (TLB MISS):         0 
cpu0_STLB AVERAGE MISS LATENCY: 157.172 cycles
cpu0_L1D TOTAL       ACCESS:   49960103  HIT:   39837513  MISS:   10122590  iACCESS:          0  iHIT:          0  iMISS:          0  dACCESS:   49478123  dHIT:   39809145  dMISS:    9668978  itACCESS:     119839  itHIT:      13189  itMISS:     106650  dtACCESS:     362141  dtHIT:      15179  dtMISS:     346962
cpu0_L1D LOAD         ACCESS:   23866300  HIT:   18532402  MISS:    5333898  iACCESS:          0  iHIT:          0  iMISS:          0  dACCESS:   23866300  dHIT:   18532402  dMISS:    5333898  itACCESS:          0  itHIT:          0  itMISS:          0  dtACCESS:          0  dtHIT:          0  dtMISS:          0
cpu0_L1D RFO          ACCESS:          0  HIT:          0  MISS:          0  iACCESS:          0  iHIT:          0  iMISS:          0  dACCESS:          0  dHIT:          0  dMISS:          0  itACCESS:          0  itHIT:          0  itMISS:          0  dtACCESS:          0  dtHIT:          0  dtMISS:          0
cpu0_L1D PREFETCH     ACCESS:   15809219  HIT:   12048149  MISS:    3761070  iACCESS:          0  iHIT:          0  iMISS:          0  dACCESS:   15809219  dHIT:   12048149  dMISS:    3761070  itACCESS:          0  itHIT:          0  itMISS:          0  dtACCESS:          0  dtHIT:          0  dtMISS:          0
cpu0_L1D WRITE        ACCESS:    9802604  HIT:    9228594  MISS:     574010  iACCESS:          0  iHIT:          0  iMISS:          0  dACCESS:    9802604  dHIT:    9228594  dMISS:     574010  itACCESS:          0  itHIT:          0  itMISS:          0  dtACCESS:          0  dtHIT:          0  dtMISS:          0
cpu0_L1D TRANSLATION  ACCESS:     481980  HIT:      28368  MISS:     453612  iACCESS:          0  iHIT:          0  iMISS:          0  dACCESS:          0  dHIT:          0  dMISS:          0  itACCESS:     119839  itHIT:      13189  itMISS:     106650  dtACCESS:     362141  dtHIT:      15179  dtMISS:     346962
cpu0_L1D PREFETCH  REQUESTED:   23866300  ISSUED:   19096892  CROSSED:          0  USEFUL:     332538  USELESS:    1054534
cpu0_L1D AVERAGE iMISS LATENCY: 0 cycles
cpu0_L1D AVERAGE dMISS LATENCY: 30.2111 cycles
cpu0_L1D AVERAGE itMISS LATENCY: 1.16578 cycles
cpu0_L1D AVERAGE dtMISS LATENCY: 3.4316 cycles
cpu0_L1D PAGE CROSSINGS (TLB HIT):         0 
cpu0_L1D PAGE CROSSINGS (TLB MISS):         0 
cpu0_L1D AVERAGE MISS LATENCY: 34.8085 cycles
cpu0_L2C TOTAL       ACCESS:    9794257  HIT:    1993016  MISS:    7801241  iACCESS:    3386831  iHIT:     704772  iMISS:    2682059  dACCESS:    5984446  dHIT:    1122833  dMISS:    4861613  itACCESS:     106071  itHIT:      37708  itMISS:      68363  dtACCESS:     316909  dtHIT:     127703  dtMISS:     189206
cpu0_L2C LOAD         ACCESS:    3606273  HIT:     706844  MISS:    2899429  iACCESS:     742289  iHIT:      99300  iMISS:     642989  dACCESS:    2863984  dHIT:     607544  dMISS:    2256440  itACCESS:          0  itHIT:          0  itMISS:          0  dtACCESS:          0  dtHIT:          0  dtMISS:          0
cpu0_L2C RFO          ACCESS:     228850  HIT:      44822  MISS:     184028  iACCESS:          0  iHIT:          0  iMISS:          0  dACCESS:     228850  dHIT:      44822  dMISS:     184028  itACCESS:          0  itHIT:          0  itMISS:          0  dtACCESS:          0  dtHIT:          0  dtMISS:          0
cpu0_L2C PREFETCH     ACCESS:    5217982  HIT:     976516  MISS:    4241466  iACCESS:    2644542  iHIT:     605472  iMISS:    2039070  dACCESS:    2573440  dHIT:     371044  dMISS:    2202396  itACCESS:          0  itHIT:          0  itMISS:          0  dtACCESS:          0  dtHIT:          0  dtMISS:          0
cpu0_L2C WRITE        ACCESS:     318172  HIT:      99423  MISS:     218749  iACCESS:          0  iHIT:          0  iMISS:          0  dACCESS:     318172  dHIT:      99423  dMISS:     218749  itACCESS:          0  itHIT:          0  itMISS:          0  dtACCESS:          0  dtHIT:          0  dtMISS:          0
cpu0_L2C TRANSLATION  ACCESS:     422980  HIT:     165411  MISS:     257569  iACCESS:          0  iHIT:          0  iMISS:          0  dACCESS:          0  dHIT:          0  dMISS:          0  itACCESS:     106071  itHIT:      37708  itMISS:      68363  dtACCESS:     316909  dtHIT:     127703  dtMISS:     189206
cpu0_L2C PREFETCH  REQUESTED:    1395499  ISSUED:    1395498  CROSSED:          0  USEFUL:     370544  USELESS:     447197
cpu0_L2C AVERAGE iMISS LATENCY: 22.4937 cycles
cpu0_L2C AVERAGE dMISS LATENCY: 44.4494 cycles
cpu0_L2C AVERAGE itMISS LATENCY: 1.3812 cycles
cpu0_L2C AVERAGE dtMISS LATENCY: 4.06116 cycles
cpu0_L2C PAGE CROSSINGS (TLB HIT):         0 
cpu0_L2C PAGE CROSSINGS (TLB MISS):         0 
cpu0_L2C AVERAGE MISS LATENCY: 72.3854 cycles
LLC TOTAL       ACCESS:    7626609  HIT:    5149116  MISS:    2477493  iACCESS:    2598751  iHIT:    1796187  iMISS:     802564  dACCESS:    4770289  dHIT:    3292733  dMISS:    1477556  itACCESS:      68363  itHIT:      15581  itMISS:      52782  dtACCESS:     189206  dtHIT:      44615  dtMISS:     144591
LLC LOAD         ACCESS:    2892471  HIT:    2303192  MISS:     589279  iACCESS:     641800  iHIT:     474860  iMISS:     166940  dACCESS:    2250671  dHIT:    1828332  dMISS:     422339  itACCESS:          0  itHIT:          0  itMISS:          0  dtACCESS:          0  dtHIT:          0  dtMISS:          0
LLC RFO          ACCESS:     183999  HIT:     101707  MISS:      82292  iACCESS:          0  iHIT:          0  iMISS:          0  dACCESS:     183999  dHIT:     101707  dMISS:      82292  itACCESS:          0  itHIT:          0  itMISS:          0  dtACCESS:          0  dtHIT:          0  dtMISS:          0
LLC PREFETCH     ACCESS:    4044043  HIT:    2441320  MISS:    1602723  iACCESS:    1956951  iHIT:    1321327  iMISS:     635624  dACCESS:    2087092  dHIT:    1119993  dMISS:     967099  itACCESS:          0  itHIT:          0  itMISS:          0  dtACCESS:          0  dtHIT:          0  dtMISS:          0
LLC WRITE        ACCESS:     248527  HIT:     242701  MISS:       5826  iACCESS:          0  iHIT:          0  iMISS:          0  dACCESS:     248527  dHIT:     242701  dMISS:       5826  itACCESS:          0  itHIT:          0  itMISS:          0  dtACCESS:          0  dtHIT:          0  dtMISS:          0
LLC TRANSLATION  ACCESS:     257569  HIT:      60196  MISS:     197373  iACCESS:          0  iHIT:          0  iMISS:          0  dACCESS:          0  dHIT:          0  dMISS:          0  itACCESS:      68363  itHIT:      15581  itMISS:      52782  dtACCESS:     189206  dtHIT:      44615  dtMISS:     144591
LLC PREFETCH  REQUESTED:          0  ISSUED:          0  CROSSED:          0  USEFUL:          0  USELESS:          0
LLC AVERAGE iMISS LATENCY: 50.4563 cycles
LLC AVERAGE dMISS LATENCY: 105.32 cycles
LLC AVERAGE itMISS LATENCY: 3.80544 cycles
LLC AVERAGE dtMISS LATENCY: 11.2846 cycles
LLC PAGE CROSSINGS (TLB HIT):         0 
LLC PAGE CROSSINGS (TLB MISS):         0 
LLC AVERAGE MISS LATENCY: 170.866 cycles

PageTableWalker TOTAL       ACCESS:     186971  
PageTableWalker AVERAGE LATENCY: 5.87025 cycles
PageTableWalker TOTAL LATENCY: 1097565 cycles

DRAM Statistics
Channel 0
 RQ ROW_BUFFER_HIT:     574435
  ROW_BUFFER_MISS:    1879991
 AVG DBUS CONGESTED CYCLE:    3.65529
 WQ ROW_BUFFER_HIT:      58978
  ROW_BUFFER_MISS:      52864  FULL:          0

