last_page:0x200000000000000
VMEM_RES_CAP:0x100000
PAGE_SIZE:4096
LOG2_PAGE_SIZE:12
LOG2_PAGE_TABLE_SIZE:9
page_table_levels:5
WARNING: physical memory size is smaller than virtual memory size
FDiP enabled with aggresivity 16

*** ChampSim Multicore Out-of-Order Simulator ***

Warmup Instructions: 50000000
Simulation Instructions: 100000000
Number of CPUs: 1
Small page size: 4096
Large page size: 2097152

CPU 0 Bimodal branch predictor
Basic BTB sets: 1024 ways: 8 indirect buffer size: 4096 RAS size: 64
Instruction page size distrubution: 0
Loading instruction page size distribution from /home/bsc/bsc018186/scratch/itp_asplos25_AE/dump/smt_srv12_ap_srv346_ap_1024i.pdst
Data page size distrubution: 0
Loading data page size distribution from /home/bsc/bsc018186/scratch/itp_asplos25_AE/dump/smt_srv12_ap_srv346_ap_1024i.pdst
cpu0_L2C IP-based stride prefetcher
cpu0_L1D next line prefetcher
CHiRPing...
cpu0_L1I next line prefetcher
Off-chip DRAM Size: 4 GiB Channels: 1 Width: 64-bit Data Rate: 3200 MT/s
Heartbeat CPU 0 instructions: 10000003 cycles: 2500529 heartbeat IPC: 3.99916 cumulative IPC: 3.99916 (Simulation time: 0 hr 0 min 46 sec) 
Heartbeat CPU 0 instructions: 20000003 cycles: 5000963 heartbeat IPC: 3.99931 cumulative IPC: 3.99924 (Simulation time: 0 hr 1 min 31 sec) 
Heartbeat CPU 0 instructions: 30000000 cycles: 7501761 heartbeat IPC: 3.99873 cumulative IPC: 3.99907 (Simulation time: 0 hr 2 min 15 sec) 
Heartbeat CPU 0 instructions: 40000003 cycles: 10001974 heartbeat IPC: 3.99967 cumulative IPC: 3.99922 (Simulation time: 0 hr 2 min 57 sec) 
Heartbeat CPU 0 instructions: 50000000 cycles: 12502183 heartbeat IPC: 3.99967 cumulative IPC: 3.99931 (Simulation time: 0 hr 3 min 40 sec) 
Warmup finished CPU 0 instructions: 50000000 cycles: 12502184 cumulative IPC: 3.99931 (Simulation time: 0 hr 3 min 40 sec) 

Warmup complete CPU 0 instructions: 50000000 cycles: 12502184 (Simulation time: 0 hr 3 min 40 sec) 

Heartbeat CPU 0 instructions: 60000000 cycles: 42884378 heartbeat IPC: 0.329141 cumulative IPC: 0.329141 (Simulation time: 0 hr 5 min 8 sec) 
Heartbeat CPU 0 instructions: 70000003 cycles: 72826362 heartbeat IPC: 0.33398 cumulative IPC: 0.331543 (Simulation time: 0 hr 6 min 36 sec) 
Heartbeat CPU 0 instructions: 80000001 cycles: 103835415 heartbeat IPC: 0.322487 cumulative IPC: 0.328468 (Simulation time: 0 hr 8 min 6 sec) 
Heartbeat CPU 0 instructions: 90000001 cycles: 129133685 heartbeat IPC: 0.395284 cumulative IPC: 0.342961 (Simulation time: 0 hr 9 min 32 sec) 
Heartbeat CPU 0 instructions: 100000000 cycles: 158557033 heartbeat IPC: 0.339867 cumulative IPC: 0.342338 (Simulation time: 0 hr 11 min 5 sec) 
Heartbeat CPU 0 instructions: 110000001 cycles: 188453453 heartbeat IPC: 0.334489 cumulative IPC: 0.341004 (Simulation time: 0 hr 12 min 32 sec) 
Heartbeat CPU 0 instructions: 120000000 cycles: 217046934 heartbeat IPC: 0.349731 cumulative IPC: 0.342224 (Simulation time: 0 hr 13 min 59 sec) 
Heartbeat CPU 0 instructions: 130000000 cycles: 246629916 heartbeat IPC: 0.338033 cumulative IPC: 0.341694 (Simulation time: 0 hr 15 min 40 sec) 
Heartbeat CPU 0 instructions: 140000000 cycles: 276378382 heartbeat IPC: 0.336152 cumulative IPC: 0.34107 (Simulation time: 0 hr 17 min 21 sec) 
Heartbeat CPU 0 instructions: 150000002 cycles: 306265359 heartbeat IPC: 0.334594 cumulative IPC: 0.340411 (Simulation time: 0 hr 19 min 1 sec) 
Simulation finished CPU 0 instructions: 100000002 cycles: 293763176 cumulative IPC: 0.340411 (Simulation time: 0 hr 19 min 1 sec) 

Simulation complete CPU 0 instructions: 100000002 cycles: 293763176 (Simulation time: 0 hr 19 min 1 sec) 


ChampSim completed all CPUs

Saving instructions large page distribution to /home/bsc/bsc018186/scratch/itp_asplos25_AE/dump/smt_srv12_ap_srv346_ap_1024i.pdst...
Saving data large page distribution to /home/bsc/bsc018186/scratch/itp_asplos25_AE/dump/smt_srv12_ap_srv346_ap_1024i.pdst...
=== Simulation ===
CPU 0 runs /gpfs/projects/bsc18/MN4/bsc18/romol/ChampSim/traces/qualcomm_srv/smt_srv12_ap_srv346_ap_1024i.champsimtrace.xz

Region of Interest Statistics

CPU 0 cumulative IPC: 0.340411 instructions: 100000002 cycles: 293763176
CPU 0 Branch Prediction Accuracy: 75.5397% MPKI: 44.1957 Average ROB Occupancy at Mispredict: 11.1265
Branch type MPKI
BRANCH_DIRECT_JUMP: 1.3554
BRANCH_INDIRECT: 22.7019
BRANCH_CONDITIONAL: 13.0378
BRANCH_DIRECT_CALL: 2.60332
BRANCH_INDIRECT_CALL: 1.04025
BRANCH_RETURN: 3.45711

Instructions large pages: 0
Instructions small pages: 14619
Large page distribution for instructions: 0%

Data large pages: 0
Data small pages: 12879
Large page distribution for data: 0%

cpu0_L1I TOTAL       ACCESS:   39026920  HIT:   30411161  MISS:    8615759  iACCESS:   39026920  iHIT:   30411161  iMISS:    8615759  dACCESS:          0  dHIT:          0  dMISS:          0  itACCESS:          0  itHIT:          0  itMISS:          0  dtACCESS:          0  dtHIT:          0  dtMISS:          0
cpu0_L1I LOAD         ACCESS:   11667043  HIT:    9320406  MISS:    2346637  iACCESS:   11667043  iHIT:    9320406  iMISS:    2346637  dACCESS:          0  dHIT:          0  dMISS:          0  itACCESS:          0  itHIT:          0  itMISS:          0  dtACCESS:          0  dtHIT:          0  dtMISS:          0
cpu0_L1I RFO          ACCESS:          0  HIT:          0  MISS:          0  iACCESS:          0  iHIT:          0  iMISS:          0  dACCESS:          0  dHIT:          0  dMISS:          0  itACCESS:          0  itHIT:          0  itMISS:          0  dtACCESS:          0  dtHIT:          0  dtMISS:          0
cpu0_L1I PREFETCH     ACCESS:   27359877  HIT:   21090755  MISS:    6269122  iACCESS:   27359877  iHIT:   21090755  iMISS:    6269122  dACCESS:          0  dHIT:          0  dMISS:          0  itACCESS:          0  itHIT:          0  itMISS:          0  dtACCESS:          0  dtHIT:          0  dtMISS:          0
cpu0_L1I WRITE        ACCESS:          0  HIT:          0  MISS:          0  iACCESS:          0  iHIT:          0  iMISS:          0  dACCESS:          0  dHIT:          0  dMISS:          0  itACCESS:          0  itHIT:          0  itMISS:          0  dtACCESS:          0  dtHIT:          0  dtMISS:          0
cpu0_L1I TRANSLATION  ACCESS:          0  HIT:          0  MISS:          0  iACCESS:          0  iHIT:          0  iMISS:          0  dACCESS:          0  dHIT:          0  dMISS:          0  itACCESS:          0  itHIT:          0  itMISS:          0  dtACCESS:          0  dtHIT:          0  dtMISS:          0
cpu0_L1I PREFETCH  REQUESTED:   30179181  ISSUED:   30179161  CROSSED:          0  USEFUL:    2188714  USELESS:     755304
cpu0_L1I AVERAGE iMISS LATENCY: 24.0567 cycles
cpu0_L1I AVERAGE dMISS LATENCY: 0 cycles
cpu0_L1I AVERAGE itMISS LATENCY: 0 cycles
cpu0_L1I AVERAGE dtMISS LATENCY: 0 cycles
cpu0_L1I PAGE CROSSINGS (TLB HIT):         0 
cpu0_L1I PAGE CROSSINGS (TLB MISS):         0 
cpu0_L1I AVERAGE MISS LATENCY: 24.0567 cycles
cpu0_ITLB TOTAL       ACCESS:   33009984  HIT:   30814102  MISS:    2195882  iACCESS:   33009984  iHIT:   30814102  iMISS:    2195882  dACCESS:          0  dHIT:          0  dMISS:          0  itACCESS:          0  itHIT:          0  itMISS:          0  dtACCESS:          0  dtHIT:          0  dtMISS:          0
cpu0_ITLB LOAD         ACCESS:   33009984  HIT:   30814102  MISS:    2195882  iACCESS:   33009984  iHIT:   30814102  iMISS:    2195882  dACCESS:          0  dHIT:          0  dMISS:          0  itACCESS:          0  itHIT:          0  itMISS:          0  dtACCESS:          0  dtHIT:          0  dtMISS:          0
cpu0_ITLB RFO          ACCESS:          0  HIT:          0  MISS:          0  iACCESS:          0  iHIT:          0  iMISS:          0  dACCESS:          0  dHIT:          0  dMISS:          0  itACCESS:          0  itHIT:          0  itMISS:          0  dtACCESS:          0  dtHIT:          0  dtMISS:          0
cpu0_ITLB PREFETCH     ACCESS:          0  HIT:          0  MISS:          0  iACCESS:          0  iHIT:          0  iMISS:          0  dACCESS:          0  dHIT:          0  dMISS:          0  itACCESS:          0  itHIT:          0  itMISS:          0  dtACCESS:          0  dtHIT:          0  dtMISS:          0
cpu0_ITLB WRITE        ACCESS:          0  HIT:          0  MISS:          0  iACCESS:          0  iHIT:          0  iMISS:          0  dACCESS:          0  dHIT:          0  dMISS:          0  itACCESS:          0  itHIT:          0  itMISS:          0  dtACCESS:          0  dtHIT:          0  dtMISS:          0
cpu0_ITLB TRANSLATION  ACCESS:          0  HIT:          0  MISS:          0  iACCESS:          0  iHIT:          0  iMISS:          0  dACCESS:          0  dHIT:          0  dMISS:          0  itACCESS:          0  itHIT:          0  itMISS:          0  dtACCESS:          0  dtHIT:          0  dtMISS:          0
cpu0_ITLB PREFETCH  REQUESTED:          0  ISSUED:          0  CROSSED:          0  USEFUL:     386305  USELESS:      78010
cpu0_ITLB AVERAGE iMISS LATENCY: 10.2358 cycles
cpu0_ITLB AVERAGE dMISS LATENCY: 0 cycles
cpu0_ITLB AVERAGE itMISS LATENCY: 0 cycles
cpu0_ITLB AVERAGE dtMISS LATENCY: 0 cycles
cpu0_ITLB PAGE CROSSINGS (TLB HIT):         0 
cpu0_ITLB PAGE CROSSINGS (TLB MISS):         0 
cpu0_ITLB AVERAGE MISS LATENCY: 10.2358 cycles
cpu0_DTLB TOTAL       ACCESS:   28866386  HIT:   25327289  MISS:    3539097  iACCESS:          0  iHIT:          0  iMISS:          0  dACCESS:   28866386  dHIT:   25327289  dMISS:    3539097  itACCESS:          0  itHIT:          0  itMISS:          0  dtACCESS:          0  dtHIT:          0  dtMISS:          0
cpu0_DTLB LOAD         ACCESS:   28866386  HIT:   25327289  MISS:    3539097  iACCESS:          0  iHIT:          0  iMISS:          0  dACCESS:   28866386  dHIT:   25327289  dMISS:    3539097  itACCESS:          0  itHIT:          0  itMISS:          0  dtACCESS:          0  dtHIT:          0  dtMISS:          0
cpu0_DTLB RFO          ACCESS:          0  HIT:          0  MISS:          0  iACCESS:          0  iHIT:          0  iMISS:          0  dACCESS:          0  dHIT:          0  dMISS:          0  itACCESS:          0  itHIT:          0  itMISS:          0  dtACCESS:          0  dtHIT:          0  dtMISS:          0
cpu0_DTLB PREFETCH     ACCESS:          0  HIT:          0  MISS:          0  iACCESS:          0  iHIT:          0  iMISS:          0  dACCESS:          0  dHIT:          0  dMISS:          0  itACCESS:          0  itHIT:          0  itMISS:          0  dtACCESS:          0  dtHIT:          0  dtMISS:          0
cpu0_DTLB WRITE        ACCESS:          0  HIT:          0  MISS:          0  iACCESS:          0  iHIT:          0  iMISS:          0  dACCESS:          0  dHIT:          0  dMISS:          0  itACCESS:          0  itHIT:          0  itMISS:          0  dtACCESS:          0  dtHIT:          0  dtMISS:          0
cpu0_DTLB TRANSLATION  ACCESS:          0  HIT:          0  MISS:          0  iACCESS:          0  iHIT:          0  iMISS:          0  dACCESS:          0  dHIT:          0  dMISS:          0  itACCESS:          0  itHIT:          0  itMISS:          0  dtACCESS:          0  dtHIT:          0  dtMISS:          0
cpu0_DTLB PREFETCH  REQUESTED:          0  ISSUED:          0  CROSSED:          0  USEFUL:          0  USELESS:          0
cpu0_DTLB AVERAGE iMISS LATENCY: 0 cycles
cpu0_DTLB AVERAGE dMISS LATENCY: 24.8975 cycles
cpu0_DTLB AVERAGE itMISS LATENCY: 0 cycles
cpu0_DTLB AVERAGE dtMISS LATENCY: 0 cycles
cpu0_DTLB PAGE CROSSINGS (TLB HIT):         0 
cpu0_DTLB PAGE CROSSINGS (TLB MISS):         0 
cpu0_DTLB AVERAGE MISS LATENCY: 24.8975 cycles
cpu0_STLB TOTAL       ACCESS:    2532838  HIT:    2173052  MISS:     359786  iACCESS:     464322  iHIT:     354462  iMISS:     109860  dACCESS:    2068516  dHIT:    1818590  dMISS:     249926  itACCESS:          0  itHIT:          0  itMISS:          0  dtACCESS:          0  dtHIT:          0  dtMISS:          0
cpu0_STLB LOAD         ACCESS:    2532838  HIT:    2173052  MISS:     359786  iACCESS:     464322  iHIT:     354462  iMISS:     109860  dACCESS:    2068516  dHIT:    1818590  dMISS:     249926  itACCESS:          0  itHIT:          0  itMISS:          0  dtACCESS:          0  dtHIT:          0  dtMISS:          0
cpu0_STLB RFO          ACCESS:          0  HIT:          0  MISS:          0  iACCESS:          0  iHIT:          0  iMISS:          0  dACCESS:          0  dHIT:          0  dMISS:          0  itACCESS:          0  itHIT:          0  itMISS:          0  dtACCESS:          0  dtHIT:          0  dtMISS:          0
cpu0_STLB PREFETCH     ACCESS:          0  HIT:          0  MISS:          0  iACCESS:          0  iHIT:          0  iMISS:          0  dACCESS:          0  dHIT:          0  dMISS:          0  itACCESS:          0  itHIT:          0  itMISS:          0  dtACCESS:          0  dtHIT:          0  dtMISS:          0
cpu0_STLB WRITE        ACCESS:          0  HIT:          0  MISS:          0  iACCESS:          0  iHIT:          0  iMISS:          0  dACCESS:          0  dHIT:          0  dMISS:          0  itACCESS:          0  itHIT:          0  itMISS:          0  dtACCESS:          0  dtHIT:          0  dtMISS:          0
cpu0_STLB TRANSLATION  ACCESS:          0  HIT:          0  MISS:          0  iACCESS:          0  iHIT:          0  iMISS:          0  dACCESS:          0  dHIT:          0  dMISS:          0  itACCESS:          0  itHIT:          0  itMISS:          0  dtACCESS:          0  dtHIT:          0  dtMISS:          0
cpu0_STLB PREFETCH  REQUESTED:          0  ISSUED:          0  CROSSED:          0  USEFUL:          0  USELESS:          0
cpu0_STLB AVERAGE iMISS LATENCY: 52.1587 cycles
cpu0_STLB AVERAGE dMISS LATENCY: 198.647 cycles
cpu0_STLB AVERAGE itMISS LATENCY: 0 cycles
cpu0_STLB AVERAGE dtMISS LATENCY: 0 cycles
cpu0_STLB PAGE CROSSINGS (TLB HIT):         0 
cpu0_STLB PAGE CROSSINGS (TLB MISS):         0 
cpu0_STLB AVERAGE MISS LATENCY: 250.806 cycles
cpu0_L1D TOTAL       ACCESS:   44327468  HIT:   39193367  MISS:    5134101  iACCESS:          0  iHIT:          0  iMISS:          0  dACCESS:   43793834  dHIT:   39158708  dMISS:    4635126  itACCESS:     123740  itHIT:      15182  itMISS:     108558  dtACCESS:     409894  dtHIT:      19477  dtMISS:     390417
cpu0_L1D LOAD         ACCESS:   20028517  HIT:   17966878  MISS:    2061639  iACCESS:          0  iHIT:          0  iMISS:          0  dACCESS:   20028517  dHIT:   17966878  dMISS:    2061639  itACCESS:          0  itHIT:          0  itMISS:          0  dtACCESS:          0  dtHIT:          0  dtMISS:          0
cpu0_L1D RFO          ACCESS:          0  HIT:          0  MISS:          0  iACCESS:          0  iHIT:          0  iMISS:          0  dACCESS:          0  dHIT:          0  dMISS:          0  itACCESS:          0  itHIT:          0  itMISS:          0  dtACCESS:          0  dtHIT:          0  dtMISS:          0
cpu0_L1D PREFETCH     ACCESS:   13609613  HIT:   11585276  MISS:    2024337  iACCESS:          0  iHIT:          0  iMISS:          0  dACCESS:   13609613  dHIT:   11585276  dMISS:    2024337  itACCESS:          0  itHIT:          0  itMISS:          0  dtACCESS:          0  dtHIT:          0  dtMISS:          0
cpu0_L1D WRITE        ACCESS:   10155704  HIT:    9606554  MISS:     549150  iACCESS:          0  iHIT:          0  iMISS:          0  dACCESS:   10155704  dHIT:    9606554  dMISS:     549150  itACCESS:          0  itHIT:          0  itMISS:          0  dtACCESS:          0  dtHIT:          0  dtMISS:          0
cpu0_L1D TRANSLATION  ACCESS:     533634  HIT:      34659  MISS:     498975  iACCESS:          0  iHIT:          0  iMISS:          0  dACCESS:          0  dHIT:          0  dMISS:          0  itACCESS:     123740  itHIT:      15182  itMISS:     108558  dtACCESS:     409894  dtHIT:      19477  dtMISS:     390417
cpu0_L1D PREFETCH  REQUESTED:   20028517  ISSUED:   18373589  CROSSED:          0  USEFUL:     357968  USELESS:     924303
cpu0_L1D AVERAGE iMISS LATENCY: 0 cycles
cpu0_L1D AVERAGE dMISS LATENCY: 52.4065 cycles
cpu0_L1D AVERAGE itMISS LATENCY: 3.43661 cycles
cpu0_L1D AVERAGE dtMISS LATENCY: 12.8657 cycles
cpu0_L1D PAGE CROSSINGS (TLB HIT):         0 
cpu0_L1D PAGE CROSSINGS (TLB MISS):         0 
cpu0_L1D AVERAGE MISS LATENCY: 68.7087 cycles
cpu0_L2C TOTAL       ACCESS:    8495729  HIT:    4150538  MISS:    4345191  iACCESS:    3742324  iHIT:    2263072  iMISS:    1479252  dACCESS:    4285245  dHIT:    1832048  dMISS:    2453197  itACCESS:     107867  itHIT:      18671  itMISS:      89196  dtACCESS:     360293  dtHIT:      36747  dtMISS:     323546
cpu0_L2C LOAD         ACCESS:    2028373  HIT:    1006445  MISS:    1021928  iACCESS:     836889  iHIT:     530684  iMISS:     306205  dACCESS:    1191484  dHIT:     475761  dMISS:     715723  itACCESS:          0  itHIT:          0  itMISS:          0  dtACCESS:          0  dtHIT:          0  dtMISS:          0
cpu0_L2C RFO          ACCESS:     209197  HIT:      82939  MISS:     126258  iACCESS:          0  iHIT:          0  iMISS:          0  dACCESS:     209197  dHIT:      82939  dMISS:     126258  itACCESS:          0  itHIT:          0  itMISS:          0  dtACCESS:          0  dtHIT:          0  dtMISS:          0
cpu0_L2C PREFETCH     ACCESS:    5449960  HIT:    2669109  MISS:    2780851  iACCESS:    2905435  iHIT:    1732388  iMISS:    1173047  dACCESS:    2544525  dHIT:     936721  dMISS:    1607804  itACCESS:          0  itHIT:          0  itMISS:          0  dtACCESS:          0  dtHIT:          0  dtMISS:          0
cpu0_L2C WRITE        ACCESS:     340039  HIT:     336627  MISS:       3412  iACCESS:          0  iHIT:          0  iMISS:          0  dACCESS:     340039  dHIT:     336627  dMISS:       3412  itACCESS:          0  itHIT:          0  itMISS:          0  dtACCESS:          0  dtHIT:          0  dtMISS:          0
cpu0_L2C TRANSLATION  ACCESS:     468160  HIT:      55418  MISS:     412742  iACCESS:          0  iHIT:          0  iMISS:          0  dACCESS:          0  dHIT:          0  dMISS:          0  itACCESS:     107867  itHIT:      18671  itMISS:      89196  dtACCESS:     360293  dtHIT:      36747  dtMISS:     323546
cpu0_L2C PREFETCH  REQUESTED:    1501644  ISSUED:    1501640  CROSSED:          0  USEFUL:     358849  USELESS:     323094
cpu0_L2C AVERAGE iMISS LATENCY: 40.3978 cycles
cpu0_L2C AVERAGE dMISS LATENCY: 77.4209 cycles
cpu0_L2C AVERAGE itMISS LATENCY: 3.81595 cycles
cpu0_L2C AVERAGE dtMISS LATENCY: 14.3762 cycles
cpu0_L2C PAGE CROSSINGS (TLB HIT):         0 
cpu0_L2C PAGE CROSSINGS (TLB MISS):         0 
cpu0_L2C AVERAGE MISS LATENCY: 136.011 cycles
LLC TOTAL       ACCESS:    4339640  HIT:    1338549  MISS:    3001091  iACCESS:    1388101  iHIT:     439766  iMISS:     948335  dACCESS:    2538797  dHIT:     859722  dMISS:    1679075  itACCESS:      89196  itHIT:       6234  itMISS:      82962  dtACCESS:     323546  dtHIT:      32827  dtMISS:     290719
LLC LOAD         ACCESS:    1017486  HIT:     334222  MISS:     683264  iACCESS:     305038  iHIT:     104130  iMISS:     200908  dACCESS:     712448  dHIT:     230092  dMISS:     482356  itACCESS:          0  itHIT:          0  itMISS:          0  dtACCESS:          0  dtHIT:          0  dtMISS:          0
LLC RFO          ACCESS:     126249  HIT:      39848  MISS:      86401  iACCESS:          0  iHIT:          0  iMISS:          0  dACCESS:     126249  dHIT:      39848  dMISS:      86401  itACCESS:          0  itHIT:          0  itMISS:          0  dtACCESS:          0  dtHIT:          0  dtMISS:          0
LLC PREFETCH     ACCESS:    2576179  HIT:     728843  MISS:    1847336  iACCESS:    1083063  iHIT:     335636  iMISS:     747427  dACCESS:    1493116  dHIT:     393207  dMISS:    1099909  itACCESS:          0  itHIT:          0  itMISS:          0  dtACCESS:          0  dtHIT:          0  dtMISS:          0
LLC WRITE        ACCESS:     206984  HIT:     196575  MISS:      10409  iACCESS:          0  iHIT:          0  iMISS:          0  dACCESS:     206984  dHIT:     196575  dMISS:      10409  itACCESS:          0  itHIT:          0  itMISS:          0  dtACCESS:          0  dtHIT:          0  dtMISS:          0
LLC TRANSLATION  ACCESS:     412742  HIT:      39061  MISS:     373681  iACCESS:          0  iHIT:          0  iMISS:          0  dACCESS:          0  dHIT:          0  dMISS:          0  itACCESS:      89196  itHIT:       6234  itMISS:      82962  dtACCESS:     323546  dtHIT:      32827  dtMISS:     290719
LLC PREFETCH  REQUESTED:          0  ISSUED:          0  CROSSED:          0  USEFUL:          0  USELESS:          0
LLC AVERAGE iMISS LATENCY: 49.3829 cycles
LLC AVERAGE dMISS LATENCY: 97.3521 cycles
LLC AVERAGE itMISS LATENCY: 4.93552 cycles
LLC AVERAGE dtMISS LATENCY: 18.6833 cycles
LLC PAGE CROSSINGS (TLB HIT):         0 
LLC PAGE CROSSINGS (TLB MISS):         0 
LLC AVERAGE MISS LATENCY: 170.354 cycles

PageTableWalker TOTAL       ACCESS:     174061  
PageTableWalker AVERAGE LATENCY: 6.53966 cycles
PageTableWalker TOTAL LATENCY: 1138299 cycles

DRAM Statistics
Channel 0
 RQ ROW_BUFFER_HIT:     669370
  ROW_BUFFER_MISS:    2311811
 AVG DBUS CONGESTED CYCLE:    3.64602
 WQ ROW_BUFFER_HIT:      63939
  ROW_BUFFER_MISS:      51556  FULL:          0

