last_page:0x200000000000000
VMEM_RES_CAP:0x100000
PAGE_SIZE:4096
LOG2_PAGE_SIZE:12
LOG2_PAGE_TABLE_SIZE:9
page_table_levels:5
WARNING: physical memory size is smaller than virtual memory size
FDiP enabled with aggresivity 16

*** ChampSim Multicore Out-of-Order Simulator ***

Warmup Instructions: 50000000
Simulation Instructions: 100000000
Number of CPUs: 1
Small page size: 4096
Large page size: 2097152

CPU 0 Bimodal branch predictor
Basic BTB sets: 1024 ways: 8 indirect buffer size: 4096 RAS size: 64
Instruction page size distrubution: 0
Loading instruction page size distribution from /home/bsc/bsc018186/scratch/itp_asplos25_AE/dump/smt_srv540_ap_srv526_ap_1024i.pdst
Data page size distrubution: 0
Loading data page size distribution from /home/bsc/bsc018186/scratch/itp_asplos25_AE/dump/smt_srv540_ap_srv526_ap_1024i.pdst
cpu0_L2C IP-based stride prefetcher
cpu0_L2C is using PTP replacement policy:
	TLB_STRESS_THRESHOLD:0
	PTE_EVICTION_RATIO:0
cpu0_L1D next line prefetcher
cpu0_STLB using iTP with max lru@8
cpu0_STLB using iTP with instr@0 and data@2
Init sat counter with 3 bits (max:50).
cpu0_L1I next line prefetcher
Off-chip DRAM Size: 4 GiB Channels: 1 Width: 64-bit Data Rate: 3200 MT/s
Heartbeat CPU 0 instructions: 10000000 cycles: 2500216 heartbeat IPC: 3.99966 cumulative IPC: 3.99966 (Simulation time: 0 hr 0 min 37 sec) 
Heartbeat CPU 0 instructions: 20000003 cycles: 5000330 heartbeat IPC: 3.99982 cumulative IPC: 3.99974 (Simulation time: 0 hr 1 min 16 sec) 
Heartbeat CPU 0 instructions: 30000003 cycles: 7580156 heartbeat IPC: 3.87624 cumulative IPC: 3.95771 (Simulation time: 0 hr 1 min 55 sec) 
Heartbeat CPU 0 instructions: 40000001 cycles: 10120716 heartbeat IPC: 3.93614 cumulative IPC: 3.95229 (Simulation time: 0 hr 2 min 36 sec) 
Heartbeat CPU 0 instructions: 50000000 cycles: 12643326 heartbeat IPC: 3.96415 cumulative IPC: 3.95466 (Simulation time: 0 hr 3 min 16 sec) 
Warmup finished CPU 0 instructions: 50000000 cycles: 12643327 cumulative IPC: 3.95466 (Simulation time: 0 hr 3 min 16 sec) 

Warmup complete CPU 0 instructions: 50000000 cycles: 12643327 (Simulation time: 0 hr 3 min 16 sec) 

Heartbeat CPU 0 instructions: 60000003 cycles: 41186485 heartbeat IPC: 0.350347 cumulative IPC: 0.350347 (Simulation time: 0 hr 4 min 36 sec) 
Heartbeat CPU 0 instructions: 70000004 cycles: 70995352 heartbeat IPC: 0.335471 cumulative IPC: 0.342748 (Simulation time: 0 hr 5 min 57 sec) 
Heartbeat CPU 0 instructions: 80000002 cycles: 100498604 heartbeat IPC: 0.338946 cumulative IPC: 0.341471 (Simulation time: 0 hr 7 min 18 sec) 
Heartbeat CPU 0 instructions: 90000000 cycles: 129299492 heartbeat IPC: 0.347212 cumulative IPC: 0.342889 (Simulation time: 0 hr 8 min 39 sec) 
Heartbeat CPU 0 instructions: 100000001 cycles: 159969707 heartbeat IPC: 0.32605 cumulative IPC: 0.339383 (Simulation time: 0 hr 10 min 2 sec) 
Heartbeat CPU 0 instructions: 110000000 cycles: 189727811 heartbeat IPC: 0.336043 cumulative IPC: 0.338822 (Simulation time: 0 hr 11 min 23 sec) 
Heartbeat CPU 0 instructions: 120000000 cycles: 219113384 heartbeat IPC: 0.340304 cumulative IPC: 0.339033 (Simulation time: 0 hr 12 min 45 sec) 
Heartbeat CPU 0 instructions: 130000002 cycles: 248626497 heartbeat IPC: 0.338833 cumulative IPC: 0.339008 (Simulation time: 0 hr 14 min 6 sec) 
Heartbeat CPU 0 instructions: 140000002 cycles: 278824173 heartbeat IPC: 0.331152 cumulative IPC: 0.338116 (Simulation time: 0 hr 15 min 29 sec) 
Heartbeat CPU 0 instructions: 150000001 cycles: 308561890 heartbeat IPC: 0.336274 cumulative IPC: 0.337931 (Simulation time: 0 hr 16 min 50 sec) 
Simulation finished CPU 0 instructions: 100000001 cycles: 295918564 cumulative IPC: 0.337931 (Simulation time: 0 hr 16 min 50 sec) 

Simulation complete CPU 0 instructions: 100000001 cycles: 295918564 (Simulation time: 0 hr 16 min 50 sec) 


ChampSim completed all CPUs

Saving instructions large page distribution to /home/bsc/bsc018186/scratch/itp_asplos25_AE/dump/smt_srv540_ap_srv526_ap_1024i.pdst...
Saving data large page distribution to /home/bsc/bsc018186/scratch/itp_asplos25_AE/dump/smt_srv540_ap_srv526_ap_1024i.pdst...
=== Simulation ===
CPU 0 runs /gpfs/projects/bsc18/MN4/bsc18/romol/ChampSim/traces/qualcomm_srv/smt_srv540_ap_srv526_ap_1024i.champsimtrace.xz

Region of Interest Statistics

CPU 0 cumulative IPC: 0.337931 instructions: 100000001 cycles: 295918564
CPU 0 Branch Prediction Accuracy: 75.4686% MPKI: 44.1966 Average ROB Occupancy at Mispredict: 11.0955
Branch type MPKI
BRANCH_DIRECT_JUMP: 1.45597
BRANCH_INDIRECT: 22.808
BRANCH_CONDITIONAL: 12.6845
BRANCH_DIRECT_CALL: 2.66873
BRANCH_INDIRECT_CALL: 1.00036
BRANCH_RETURN: 3.57917

Instructions large pages: 0
Instructions small pages: 13358
Large page distribution for instructions: 0%

Data large pages: 0
Data small pages: 11962
Large page distribution for data: 0%

cpu0_L1I TOTAL       ACCESS:   39055844  HIT:   30360648  MISS:    8695196  iACCESS:   39055844  iHIT:   30360648  iMISS:    8695196  dACCESS:          0  dHIT:          0  dMISS:          0  itACCESS:          0  itHIT:          0  itMISS:          0  dtACCESS:          0  dtHIT:          0  dtMISS:          0
cpu0_L1I LOAD         ACCESS:   11669361  HIT:    9293711  MISS:    2375650  iACCESS:   11669361  iHIT:    9293711  iMISS:    2375650  dACCESS:          0  dHIT:          0  dMISS:          0  itACCESS:          0  itHIT:          0  itMISS:          0  dtACCESS:          0  dtHIT:          0  dtMISS:          0
cpu0_L1I RFO          ACCESS:          0  HIT:          0  MISS:          0  iACCESS:          0  iHIT:          0  iMISS:          0  dACCESS:          0  dHIT:          0  dMISS:          0  itACCESS:          0  itHIT:          0  itMISS:          0  dtACCESS:          0  dtHIT:          0  dtMISS:          0
cpu0_L1I PREFETCH     ACCESS:   27386483  HIT:   21066937  MISS:    6319546  iACCESS:   27386483  iHIT:   21066937  iMISS:    6319546  dACCESS:          0  dHIT:          0  dMISS:          0  itACCESS:          0  itHIT:          0  itMISS:          0  dtACCESS:          0  dtHIT:          0  dtMISS:          0
cpu0_L1I WRITE        ACCESS:          0  HIT:          0  MISS:          0  iACCESS:          0  iHIT:          0  iMISS:          0  dACCESS:          0  dHIT:          0  dMISS:          0  itACCESS:          0  itHIT:          0  itMISS:          0  dtACCESS:          0  dtHIT:          0  dtMISS:          0
cpu0_L1I TRANSLATION  ACCESS:          0  HIT:          0  MISS:          0  iACCESS:          0  iHIT:          0  iMISS:          0  dACCESS:          0  dHIT:          0  dMISS:          0  itACCESS:          0  itHIT:          0  itMISS:          0  dtACCESS:          0  dtHIT:          0  dtMISS:          0
cpu0_L1I PREFETCH  REQUESTED:   30196815  ISSUED:   30196802  CROSSED:          0  USEFUL:    2195675  USELESS:     763149
cpu0_L1I AVERAGE iMISS LATENCY: 24.2407 cycles
cpu0_L1I AVERAGE dMISS LATENCY: 0 cycles
cpu0_L1I AVERAGE itMISS LATENCY: 0 cycles
cpu0_L1I AVERAGE dtMISS LATENCY: 0 cycles
cpu0_L1I PAGE CROSSINGS (TLB HIT):         0 
cpu0_L1I PAGE CROSSINGS (TLB MISS):         0 
cpu0_L1I AVERAGE MISS LATENCY: 24.2407 cycles
cpu0_ITLB TOTAL       ACCESS:   33064520  HIT:   30812998  MISS:    2251522  iACCESS:   33064520  iHIT:   30812998  iMISS:    2251522  dACCESS:          0  dHIT:          0  dMISS:          0  itACCESS:          0  itHIT:          0  itMISS:          0  dtACCESS:          0  dtHIT:          0  dtMISS:          0
cpu0_ITLB LOAD         ACCESS:   33064520  HIT:   30812998  MISS:    2251522  iACCESS:   33064520  iHIT:   30812998  iMISS:    2251522  dACCESS:          0  dHIT:          0  dMISS:          0  itACCESS:          0  itHIT:          0  itMISS:          0  dtACCESS:          0  dtHIT:          0  dtMISS:          0
cpu0_ITLB RFO          ACCESS:          0  HIT:          0  MISS:          0  iACCESS:          0  iHIT:          0  iMISS:          0  dACCESS:          0  dHIT:          0  dMISS:          0  itACCESS:          0  itHIT:          0  itMISS:          0  dtACCESS:          0  dtHIT:          0  dtMISS:          0
cpu0_ITLB PREFETCH     ACCESS:          0  HIT:          0  MISS:          0  iACCESS:          0  iHIT:          0  iMISS:          0  dACCESS:          0  dHIT:          0  dMISS:          0  itACCESS:          0  itHIT:          0  itMISS:          0  dtACCESS:          0  dtHIT:          0  dtMISS:          0
cpu0_ITLB WRITE        ACCESS:          0  HIT:          0  MISS:          0  iACCESS:          0  iHIT:          0  iMISS:          0  dACCESS:          0  dHIT:          0  dMISS:          0  itACCESS:          0  itHIT:          0  itMISS:          0  dtACCESS:          0  dtHIT:          0  dtMISS:          0
cpu0_ITLB TRANSLATION  ACCESS:          0  HIT:          0  MISS:          0  iACCESS:          0  iHIT:          0  iMISS:          0  dACCESS:          0  dHIT:          0  dMISS:          0  itACCESS:          0  itHIT:          0  itMISS:          0  dtACCESS:          0  dtHIT:          0  dtMISS:          0
cpu0_ITLB PREFETCH  REQUESTED:          0  ISSUED:          0  CROSSED:          0  USEFUL:     393318  USELESS:      83319
cpu0_ITLB AVERAGE iMISS LATENCY: 6.95716 cycles
cpu0_ITLB AVERAGE dMISS LATENCY: 0 cycles
cpu0_ITLB AVERAGE itMISS LATENCY: 0 cycles
cpu0_ITLB AVERAGE dtMISS LATENCY: 0 cycles
cpu0_ITLB PAGE CROSSINGS (TLB HIT):         0 
cpu0_ITLB PAGE CROSSINGS (TLB MISS):         0 
cpu0_ITLB AVERAGE MISS LATENCY: 6.95716 cycles
cpu0_DTLB TOTAL       ACCESS:   28886652  HIT:   25222108  MISS:    3664544  iACCESS:          0  iHIT:          0  iMISS:          0  dACCESS:   28886652  dHIT:   25222108  dMISS:    3664544  itACCESS:          0  itHIT:          0  itMISS:          0  dtACCESS:          0  dtHIT:          0  dtMISS:          0
cpu0_DTLB LOAD         ACCESS:   28886652  HIT:   25222108  MISS:    3664544  iACCESS:          0  iHIT:          0  iMISS:          0  dACCESS:   28886652  dHIT:   25222108  dMISS:    3664544  itACCESS:          0  itHIT:          0  itMISS:          0  dtACCESS:          0  dtHIT:          0  dtMISS:          0
cpu0_DTLB RFO          ACCESS:          0  HIT:          0  MISS:          0  iACCESS:          0  iHIT:          0  iMISS:          0  dACCESS:          0  dHIT:          0  dMISS:          0  itACCESS:          0  itHIT:          0  itMISS:          0  dtACCESS:          0  dtHIT:          0  dtMISS:          0
cpu0_DTLB PREFETCH     ACCESS:          0  HIT:          0  MISS:          0  iACCESS:          0  iHIT:          0  iMISS:          0  dACCESS:          0  dHIT:          0  dMISS:          0  itACCESS:          0  itHIT:          0  itMISS:          0  dtACCESS:          0  dtHIT:          0  dtMISS:          0
cpu0_DTLB WRITE        ACCESS:          0  HIT:          0  MISS:          0  iACCESS:          0  iHIT:          0  iMISS:          0  dACCESS:          0  dHIT:          0  dMISS:          0  itACCESS:          0  itHIT:          0  itMISS:          0  dtACCESS:          0  dtHIT:          0  dtMISS:          0
cpu0_DTLB TRANSLATION  ACCESS:          0  HIT:          0  MISS:          0  iACCESS:          0  iHIT:          0  iMISS:          0  dACCESS:          0  dHIT:          0  dMISS:          0  itACCESS:          0  itHIT:          0  itMISS:          0  dtACCESS:          0  dtHIT:          0  dtMISS:          0
cpu0_DTLB PREFETCH  REQUESTED:          0  ISSUED:          0  CROSSED:          0  USEFUL:          0  USELESS:          0
cpu0_DTLB AVERAGE iMISS LATENCY: 0 cycles
cpu0_DTLB AVERAGE dMISS LATENCY: 26.7358 cycles
cpu0_DTLB AVERAGE itMISS LATENCY: 0 cycles
cpu0_DTLB AVERAGE dtMISS LATENCY: 0 cycles
cpu0_DTLB PAGE CROSSINGS (TLB HIT):         0 
cpu0_DTLB PAGE CROSSINGS (TLB MISS):         0 
cpu0_DTLB AVERAGE MISS LATENCY: 26.7358 cycles
cpu0_STLB TOTAL       ACCESS:    2588235  HIT:    2207875  MISS:     380360  iACCESS:     476638  iHIT:     413414  iMISS:      63224  dACCESS:    2111597  dHIT:    1794461  dMISS:     317136  itACCESS:          0  itHIT:          0  itMISS:          0  dtACCESS:          0  dtHIT:          0  dtMISS:          0
cpu0_STLB LOAD         ACCESS:    2588235  HIT:    2207875  MISS:     380360  iACCESS:     476638  iHIT:     413414  iMISS:      63224  dACCESS:    2111597  dHIT:    1794461  dMISS:     317136  itACCESS:          0  itHIT:          0  itMISS:          0  dtACCESS:          0  dtHIT:          0  dtMISS:          0
cpu0_STLB RFO          ACCESS:          0  HIT:          0  MISS:          0  iACCESS:          0  iHIT:          0  iMISS:          0  dACCESS:          0  dHIT:          0  dMISS:          0  itACCESS:          0  itHIT:          0  itMISS:          0  dtACCESS:          0  dtHIT:          0  dtMISS:          0
cpu0_STLB PREFETCH     ACCESS:          0  HIT:          0  MISS:          0  iACCESS:          0  iHIT:          0  iMISS:          0  dACCESS:          0  dHIT:          0  dMISS:          0  itACCESS:          0  itHIT:          0  itMISS:          0  dtACCESS:          0  dtHIT:          0  dtMISS:          0
cpu0_STLB WRITE        ACCESS:          0  HIT:          0  MISS:          0  iACCESS:          0  iHIT:          0  iMISS:          0  dACCESS:          0  dHIT:          0  dMISS:          0  itACCESS:          0  itHIT:          0  itMISS:          0  dtACCESS:          0  dtHIT:          0  dtMISS:          0
cpu0_STLB TRANSLATION  ACCESS:          0  HIT:          0  MISS:          0  iACCESS:          0  iHIT:          0  iMISS:          0  dACCESS:          0  dHIT:          0  dMISS:          0  itACCESS:          0  itHIT:          0  itMISS:          0  dtACCESS:          0  dtHIT:          0  dtMISS:          0
cpu0_STLB PREFETCH  REQUESTED:          0  ISSUED:          0  CROSSED:          0  USEFUL:          0  USELESS:          0
cpu0_STLB AVERAGE iMISS LATENCY: 31.3125 cycles
cpu0_STLB AVERAGE dMISS LATENCY: 212.757 cycles
cpu0_STLB AVERAGE itMISS LATENCY: 0 cycles
cpu0_STLB AVERAGE dtMISS LATENCY: 0 cycles
cpu0_STLB PAGE CROSSINGS (TLB HIT):         0 
cpu0_STLB PAGE CROSSINGS (TLB MISS):         0 
cpu0_STLB AVERAGE MISS LATENCY: 244.069 cycles
cpu0_L1D TOTAL       ACCESS:   44491536  HIT:   39112806  MISS:    5378730  iACCESS:          0  iHIT:          0  iMISS:          0  dACCESS:   43913702  dHIT:   39080143  dMISS:    4833559  itACCESS:      73915  itHIT:       5760  itMISS:      68155  dtACCESS:     503919  dtHIT:      26903  dtMISS:     477016
cpu0_L1D LOAD         ACCESS:   20021277  HIT:   17874814  MISS:    2146463  iACCESS:          0  iHIT:          0  iMISS:          0  dACCESS:   20021277  dHIT:   17874814  dMISS:    2146463  itACCESS:          0  itHIT:          0  itMISS:          0  dtACCESS:          0  dtHIT:          0  dtMISS:          0
cpu0_L1D RFO          ACCESS:          0  HIT:          0  MISS:          0  iACCESS:          0  iHIT:          0  iMISS:          0  dACCESS:          0  dHIT:          0  dMISS:          0  itACCESS:          0  itHIT:          0  itMISS:          0  dtACCESS:          0  dtHIT:          0  dtMISS:          0
cpu0_L1D PREFETCH     ACCESS:   13669087  HIT:   11565602  MISS:    2103485  iACCESS:          0  iHIT:          0  iMISS:          0  dACCESS:   13669087  dHIT:   11565602  dMISS:    2103485  itACCESS:          0  itHIT:          0  itMISS:          0  dtACCESS:          0  dtHIT:          0  dtMISS:          0
cpu0_L1D WRITE        ACCESS:   10223338  HIT:    9639727  MISS:     583611  iACCESS:          0  iHIT:          0  iMISS:          0  dACCESS:   10223338  dHIT:    9639727  dMISS:     583611  itACCESS:          0  itHIT:          0  itMISS:          0  dtACCESS:          0  dtHIT:          0  dtMISS:          0
cpu0_L1D TRANSLATION  ACCESS:     577834  HIT:      32663  MISS:     545171  iACCESS:          0  iHIT:          0  iMISS:          0  dACCESS:          0  dHIT:          0  dMISS:          0  itACCESS:      73915  itHIT:       5760  itMISS:      68155  dtACCESS:     503919  dtHIT:      26903  dtMISS:     477016
cpu0_L1D PREFETCH  REQUESTED:   20021277  ISSUED:   18383350  CROSSED:          0  USEFUL:     354454  USELESS:     934854
cpu0_L1D AVERAGE iMISS LATENCY: 0 cycles
cpu0_L1D AVERAGE dMISS LATENCY: 51.9903 cycles
cpu0_L1D AVERAGE itMISS LATENCY: 2.09647 cycles
cpu0_L1D AVERAGE dtMISS LATENCY: 13.9018 cycles
cpu0_L1D PAGE CROSSINGS (TLB HIT):         0 
cpu0_L1D PAGE CROSSINGS (TLB MISS):         0 
cpu0_L1D AVERAGE MISS LATENCY: 67.9885 cycles
cpu0_L2C TOTAL       ACCESS:    8594299  HIT:    3850500  MISS:    4743799  iACCESS:    3767360  iHIT:    2122758  iMISS:    1644602  dACCESS:    4306550  dHIT:    1648166  dMISS:    2658384  itACCESS:      68049  itHIT:       8850  itMISS:      59199  dtACCESS:     452340  dtHIT:      70726  dtMISS:     381614
cpu0_L2C LOAD         ACCESS:    2044018  HIT:     900559  MISS:    1143459  iACCESS:     845017  iHIT:     488610  iMISS:     356407  dACCESS:    1199001  dHIT:     411949  dMISS:     787052  itACCESS:          0  itHIT:          0  itMISS:          0  dtACCESS:          0  dtHIT:          0  dtMISS:          0
cpu0_L2C RFO          ACCESS:     224660  HIT:      75204  MISS:     149456  iACCESS:          0  iHIT:          0  iMISS:          0  dACCESS:     224660  dHIT:      75204  dMISS:     149456  itACCESS:          0  itHIT:          0  itMISS:          0  dtACCESS:          0  dtHIT:          0  dtMISS:          0
cpu0_L2C PREFETCH     ACCESS:    5456833  HIT:    2484014  MISS:    2972819  iACCESS:    2922343  iHIT:    1634148  iMISS:    1288195  dACCESS:    2534490  dHIT:     849866  dMISS:    1684624  itACCESS:          0  itHIT:          0  itMISS:          0  dtACCESS:          0  dtHIT:          0  dtMISS:          0
cpu0_L2C WRITE        ACCESS:     348399  HIT:     311147  MISS:      37252  iACCESS:          0  iHIT:          0  iMISS:          0  dACCESS:     348399  dHIT:     311147  dMISS:      37252  itACCESS:          0  itHIT:          0  itMISS:          0  dtACCESS:          0  dtHIT:          0  dtMISS:          0
cpu0_L2C TRANSLATION  ACCESS:     520389  HIT:      79576  MISS:     440813  iACCESS:          0  iHIT:          0  iMISS:          0  dACCESS:          0  dHIT:          0  dMISS:          0  itACCESS:      68049  itHIT:       8850  itMISS:      59199  dtACCESS:     452340  dtHIT:      70726  dtMISS:     381614
cpu0_L2C PREFETCH  REQUESTED:    1480288  ISSUED:    1480285  CROSSED:          0  USEFUL:     354735  USELESS:     335620
cpu0_L2C AVERAGE iMISS LATENCY: 37.7919 cycles
cpu0_L2C AVERAGE dMISS LATENCY: 72.7747 cycles
cpu0_L2C AVERAGE itMISS LATENCY: 2.23509 cycles
cpu0_L2C AVERAGE dtMISS LATENCY: 14.8182 cycles
cpu0_L2C PAGE CROSSINGS (TLB HIT):         0 
cpu0_L2C PAGE CROSSINGS (TLB MISS):         0 
cpu0_L2C AVERAGE MISS LATENCY: 127.62 cycles
LLC TOTAL       ACCESS:    4725672  HIT:    1721913  MISS:    3003759  iACCESS:    1555938  iHIT:     622696  iMISS:     933242  dACCESS:    2728921  dHIT:    1039357  dMISS:    1689564  itACCESS:      59199  itHIT:       6084  itMISS:      53115  dtACCESS:     381614  dtHIT:      53776  dtMISS:     327838
LLC LOAD         ACCESS:    1138069  HIT:     446228  MISS:     691841  iACCESS:     355079  iHIT:     155716  iMISS:     199363  dACCESS:     782990  dHIT:     290512  dMISS:     492478  itACCESS:          0  itHIT:          0  itMISS:          0  dtACCESS:          0  dtHIT:          0  dtMISS:          0
LLC RFO          ACCESS:     149448  HIT:      52448  MISS:      97000  iACCESS:          0  iHIT:          0  iMISS:          0  dACCESS:     149448  dHIT:      52448  dMISS:      97000  itACCESS:          0  itHIT:          0  itMISS:          0  dtACCESS:          0  dtHIT:          0  dtMISS:          0
LLC PREFETCH     ACCESS:    2771500  HIT:     946423  MISS:    1825077  iACCESS:    1200859  iHIT:     466980  iMISS:     733879  dACCESS:    1570641  dHIT:     479443  dMISS:    1091198  itACCESS:          0  itHIT:          0  itMISS:          0  dtACCESS:          0  dtHIT:          0  dtMISS:          0
LLC WRITE        ACCESS:     225842  HIT:     216954  MISS:       8888  iACCESS:          0  iHIT:          0  iMISS:          0  dACCESS:     225842  dHIT:     216954  dMISS:       8888  itACCESS:          0  itHIT:          0  itMISS:          0  dtACCESS:          0  dtHIT:          0  dtMISS:          0
LLC TRANSLATION  ACCESS:     440813  HIT:      59860  MISS:     380953  iACCESS:          0  iHIT:          0  iMISS:          0  dACCESS:          0  dHIT:          0  dMISS:          0  itACCESS:      59199  itHIT:       6084  itMISS:      53115  dtACCESS:     381614  dtHIT:      53776  dtMISS:     327838
LLC PREFETCH  REQUESTED:          0  ISSUED:          0  CROSSED:          0  USEFUL:          0  USELESS:          0
LLC AVERAGE iMISS LATENCY: 49.5147 cycles
LLC AVERAGE dMISS LATENCY: 99.2516 cycles
LLC AVERAGE itMISS LATENCY: 3.1395 cycles
LLC AVERAGE dtMISS LATENCY: 20.8932 cycles
LLC PAGE CROSSINGS (TLB HIT):         0 
LLC PAGE CROSSINGS (TLB MISS):         0 
LLC AVERAGE MISS LATENCY: 172.799 cycles

PageTableWalker TOTAL       ACCESS:     137762  
PageTableWalker AVERAGE LATENCY: 6.48911 cycles
PageTableWalker TOTAL LATENCY: 893952 cycles

DRAM Statistics
Channel 0
 RQ ROW_BUFFER_HIT:     624629
  ROW_BUFFER_MISS:    2358806
 AVG DBUS CONGESTED CYCLE:     3.6493
 WQ ROW_BUFFER_HIT:      66057
  ROW_BUFFER_MISS:      57297  FULL:          0

