last_page:0x200000000000000
VMEM_RES_CAP:0x100000
PAGE_SIZE:4096
LOG2_PAGE_SIZE:12
LOG2_PAGE_TABLE_SIZE:9
page_table_levels:5
WARNING: physical memory size is smaller than virtual memory size
FDiP enabled with aggresivity 16

*** ChampSim Multicore Out-of-Order Simulator ***

Warmup Instructions: 50000000
Simulation Instructions: 100000000
Number of CPUs: 1
Small page size: 4096
Large page size: 2097152

CPU 0 Bimodal branch predictor
Basic BTB sets: 1024 ways: 8 indirect buffer size: 4096 RAS size: 64
Instruction page size distrubution: 0
Loading instruction page size distribution from /home/bsc/bsc018186/scratch/itp_asplos25_AE/dump/smt_srv537_ap_srv259_ap_1024i.pdst
Data page size distrubution: 0
Loading data page size distribution from /home/bsc/bsc018186/scratch/itp_asplos25_AE/dump/smt_srv537_ap_srv259_ap_1024i.pdst
cpu0_L2C IP-based stride prefetcher
cpu0_L2C is using xPTP/LRU
	TLB_LOWER_STRESS_THRESHOLD:1
	TLB_UPPER_STRESS_THRESHOLD:4
	MIN_EVICTION_POSITION:4
cpu0_L1D next line prefetcher
cpu0_STLB using iTP with max lru@8
cpu0_STLB using iTP with instr@0 and data@2
Init sat counter with 3 bits (max:50).
cpu0_L1I next line prefetcher
Off-chip DRAM Size: 4 GiB Channels: 1 Width: 64-bit Data Rate: 3200 MT/s
Heartbeat CPU 0 instructions: 10000002 cycles: 2500331 heartbeat IPC: 3.99948 cumulative IPC: 3.99948 (Simulation time: 0 hr 0 min 37 sec) 
Heartbeat CPU 0 instructions: 20000001 cycles: 5000387 heartbeat IPC: 3.99992 cumulative IPC: 3.9997 (Simulation time: 0 hr 1 min 16 sec) 
Heartbeat CPU 0 instructions: 30000000 cycles: 7500647 heartbeat IPC: 3.99959 cumulative IPC: 3.99966 (Simulation time: 0 hr 1 min 55 sec) 
Heartbeat CPU 0 instructions: 40000001 cycles: 10000756 heartbeat IPC: 3.99983 cumulative IPC: 3.9997 (Simulation time: 0 hr 2 min 35 sec) 
Heartbeat CPU 0 instructions: 50000002 cycles: 12500979 heartbeat IPC: 3.99965 cumulative IPC: 3.99969 (Simulation time: 0 hr 3 min 14 sec) 
Warmup finished CPU 0 instructions: 50000002 cycles: 12500980 cumulative IPC: 3.99969 (Simulation time: 0 hr 3 min 14 sec) 

Warmup complete CPU 0 instructions: 50000002 cycles: 12500980 (Simulation time: 0 hr 3 min 14 sec) 

Heartbeat CPU 0 instructions: 60000000 cycles: 37901688 heartbeat IPC: 0.39369 cumulative IPC: 0.39369 (Simulation time: 0 hr 4 min 32 sec) 
Heartbeat CPU 0 instructions: 70000002 cycles: 64062486 heartbeat IPC: 0.382252 cumulative IPC: 0.387887 (Simulation time: 0 hr 5 min 51 sec) 
Heartbeat CPU 0 instructions: 80000001 cycles: 89033258 heartbeat IPC: 0.400469 cumulative IPC: 0.391992 (Simulation time: 0 hr 7 min 8 sec) 
Heartbeat CPU 0 instructions: 90000000 cycles: 113104599 heartbeat IPC: 0.415432 cumulative IPC: 0.3976 (Simulation time: 0 hr 8 min 24 sec) 
Heartbeat CPU 0 instructions: 100000003 cycles: 139139331 heartbeat IPC: 0.384103 cumulative IPC: 0.394826 (Simulation time: 0 hr 9 min 43 sec) 
Heartbeat CPU 0 instructions: 110000002 cycles: 163781038 heartbeat IPC: 0.405817 cumulative IPC: 0.396616 (Simulation time: 0 hr 11 min 0 sec) 
Heartbeat CPU 0 instructions: 120000004 cycles: 188470908 heartbeat IPC: 0.405025 cumulative IPC: 0.397796 (Simulation time: 0 hr 12 min 17 sec) 
Heartbeat CPU 0 instructions: 130000002 cycles: 212071128 heartbeat IPC: 0.423725 cumulative IPC: 0.400862 (Simulation time: 0 hr 13 min 32 sec) 
Heartbeat CPU 0 instructions: 140000003 cycles: 236288549 heartbeat IPC: 0.412926 cumulative IPC: 0.402168 (Simulation time: 0 hr 14 min 49 sec) 
Heartbeat CPU 0 instructions: 150000002 cycles: 261073155 heartbeat IPC: 0.403477 cumulative IPC: 0.402298 (Simulation time: 0 hr 16 min 6 sec) 
Simulation finished CPU 0 instructions: 100000000 cycles: 248572176 cumulative IPC: 0.402298 (Simulation time: 0 hr 16 min 6 sec) 

Simulation complete CPU 0 instructions: 100000000 cycles: 248572176 (Simulation time: 0 hr 16 min 6 sec) 


ChampSim completed all CPUs

Saving instructions large page distribution to /home/bsc/bsc018186/scratch/itp_asplos25_AE/dump/smt_srv537_ap_srv259_ap_1024i.pdst...
Saving data large page distribution to /home/bsc/bsc018186/scratch/itp_asplos25_AE/dump/smt_srv537_ap_srv259_ap_1024i.pdst...
=== Simulation ===
CPU 0 runs /gpfs/projects/bsc18/MN4/bsc18/romol/ChampSim/traces/qualcomm_srv/smt_srv537_ap_srv259_ap_1024i.champsimtrace.xz

Region of Interest Statistics

CPU 0 cumulative IPC: 0.402298 instructions: 100000000 cycles: 248572176
CPU 0 Branch Prediction Accuracy: 76.8324% MPKI: 41.8155 Average ROB Occupancy at Mispredict: 11.2727
Branch type MPKI
BRANCH_DIRECT_JUMP: 1.26647
BRANCH_INDIRECT: 22.3034
BRANCH_CONDITIONAL: 11.5263
BRANCH_DIRECT_CALL: 2.36183
BRANCH_INDIRECT_CALL: 0.998821
BRANCH_RETURN: 3.35864

Instructions large pages: 0
Instructions small pages: 10008
Large page distribution for instructions: 0%

Data large pages: 0
Data small pages: 8818
Large page distribution for data: 0%

cpu0_L1I TOTAL       ACCESS:   38942329  HIT:   29909224  MISS:    9033105  iACCESS:   38942329  iHIT:   29909224  iMISS:    9033105  dACCESS:          0  dHIT:          0  dMISS:          0  itACCESS:          0  itHIT:          0  itMISS:          0  dtACCESS:          0  dtHIT:          0  dtMISS:          0
cpu0_L1I LOAD         ACCESS:   11687031  HIT:    9197111  MISS:    2489920  iACCESS:   11687031  iHIT:    9197111  iMISS:    2489920  dACCESS:          0  dHIT:          0  dMISS:          0  itACCESS:          0  itHIT:          0  itMISS:          0  dtACCESS:          0  dtHIT:          0  dtMISS:          0
cpu0_L1I RFO          ACCESS:          0  HIT:          0  MISS:          0  iACCESS:          0  iHIT:          0  iMISS:          0  dACCESS:          0  dHIT:          0  dMISS:          0  itACCESS:          0  itHIT:          0  itMISS:          0  dtACCESS:          0  dtHIT:          0  dtMISS:          0
cpu0_L1I PREFETCH     ACCESS:   27255298  HIT:   20712113  MISS:    6543185  iACCESS:   27255298  iHIT:   20712113  iMISS:    6543185  dACCESS:          0  dHIT:          0  dMISS:          0  itACCESS:          0  itHIT:          0  itMISS:          0  dtACCESS:          0  dtHIT:          0  dtMISS:          0
cpu0_L1I WRITE        ACCESS:          0  HIT:          0  MISS:          0  iACCESS:          0  iHIT:          0  iMISS:          0  dACCESS:          0  dHIT:          0  dMISS:          0  itACCESS:          0  itHIT:          0  itMISS:          0  dtACCESS:          0  dtHIT:          0  dtMISS:          0
cpu0_L1I TRANSLATION  ACCESS:          0  HIT:          0  MISS:          0  iACCESS:          0  iHIT:          0  iMISS:          0  dACCESS:          0  dHIT:          0  dMISS:          0  itACCESS:          0  itHIT:          0  itMISS:          0  dtACCESS:          0  dtHIT:          0  dtMISS:          0
cpu0_L1I PREFETCH  REQUESTED:   30035038  ISSUED:   30034684  CROSSED:          0  USEFUL:    2204721  USELESS:     763365
cpu0_L1I AVERAGE iMISS LATENCY: 19.3506 cycles
cpu0_L1I AVERAGE dMISS LATENCY: 0 cycles
cpu0_L1I AVERAGE itMISS LATENCY: 0 cycles
cpu0_L1I AVERAGE dtMISS LATENCY: 0 cycles
cpu0_L1I PAGE CROSSINGS (TLB HIT):         0 
cpu0_L1I PAGE CROSSINGS (TLB MISS):         0 
cpu0_L1I AVERAGE MISS LATENCY: 19.3506 cycles
cpu0_ITLB TOTAL       ACCESS:   32760455  HIT:   30497516  MISS:    2262939  iACCESS:   32760455  iHIT:   30497516  iMISS:    2262939  dACCESS:          0  dHIT:          0  dMISS:          0  itACCESS:          0  itHIT:          0  itMISS:          0  dtACCESS:          0  dtHIT:          0  dtMISS:          0
cpu0_ITLB LOAD         ACCESS:   32760455  HIT:   30497516  MISS:    2262939  iACCESS:   32760455  iHIT:   30497516  iMISS:    2262939  dACCESS:          0  dHIT:          0  dMISS:          0  itACCESS:          0  itHIT:          0  itMISS:          0  dtACCESS:          0  dtHIT:          0  dtMISS:          0
cpu0_ITLB RFO          ACCESS:          0  HIT:          0  MISS:          0  iACCESS:          0  iHIT:          0  iMISS:          0  dACCESS:          0  dHIT:          0  dMISS:          0  itACCESS:          0  itHIT:          0  itMISS:          0  dtACCESS:          0  dtHIT:          0  dtMISS:          0
cpu0_ITLB PREFETCH     ACCESS:          0  HIT:          0  MISS:          0  iACCESS:          0  iHIT:          0  iMISS:          0  dACCESS:          0  dHIT:          0  dMISS:          0  itACCESS:          0  itHIT:          0  itMISS:          0  dtACCESS:          0  dtHIT:          0  dtMISS:          0
cpu0_ITLB WRITE        ACCESS:          0  HIT:          0  MISS:          0  iACCESS:          0  iHIT:          0  iMISS:          0  dACCESS:          0  dHIT:          0  dMISS:          0  itACCESS:          0  itHIT:          0  itMISS:          0  dtACCESS:          0  dtHIT:          0  dtMISS:          0
cpu0_ITLB TRANSLATION  ACCESS:          0  HIT:          0  MISS:          0  iACCESS:          0  iHIT:          0  iMISS:          0  dACCESS:          0  dHIT:          0  dMISS:          0  itACCESS:          0  itHIT:          0  itMISS:          0  dtACCESS:          0  dtHIT:          0  dtMISS:          0
cpu0_ITLB PREFETCH  REQUESTED:          0  ISSUED:          0  CROSSED:          0  USEFUL:     385022  USELESS:      81691
cpu0_ITLB AVERAGE iMISS LATENCY: 4.81817 cycles
cpu0_ITLB AVERAGE dMISS LATENCY: 0 cycles
cpu0_ITLB AVERAGE itMISS LATENCY: 0 cycles
cpu0_ITLB AVERAGE dtMISS LATENCY: 0 cycles
cpu0_ITLB PAGE CROSSINGS (TLB HIT):         0 
cpu0_ITLB PAGE CROSSINGS (TLB MISS):         0 
cpu0_ITLB AVERAGE MISS LATENCY: 4.81817 cycles
cpu0_DTLB TOTAL       ACCESS:   28777542  HIT:   25342890  MISS:    3434652  iACCESS:          0  iHIT:          0  iMISS:          0  dACCESS:   28777542  dHIT:   25342890  dMISS:    3434652  itACCESS:          0  itHIT:          0  itMISS:          0  dtACCESS:          0  dtHIT:          0  dtMISS:          0
cpu0_DTLB LOAD         ACCESS:   28777542  HIT:   25342890  MISS:    3434652  iACCESS:          0  iHIT:          0  iMISS:          0  dACCESS:   28777542  dHIT:   25342890  dMISS:    3434652  itACCESS:          0  itHIT:          0  itMISS:          0  dtACCESS:          0  dtHIT:          0  dtMISS:          0
cpu0_DTLB RFO          ACCESS:          0  HIT:          0  MISS:          0  iACCESS:          0  iHIT:          0  iMISS:          0  dACCESS:          0  dHIT:          0  dMISS:          0  itACCESS:          0  itHIT:          0  itMISS:          0  dtACCESS:          0  dtHIT:          0  dtMISS:          0
cpu0_DTLB PREFETCH     ACCESS:          0  HIT:          0  MISS:          0  iACCESS:          0  iHIT:          0  iMISS:          0  dACCESS:          0  dHIT:          0  dMISS:          0  itACCESS:          0  itHIT:          0  itMISS:          0  dtACCESS:          0  dtHIT:          0  dtMISS:          0
cpu0_DTLB WRITE        ACCESS:          0  HIT:          0  MISS:          0  iACCESS:          0  iHIT:          0  iMISS:          0  dACCESS:          0  dHIT:          0  dMISS:          0  itACCESS:          0  itHIT:          0  itMISS:          0  dtACCESS:          0  dtHIT:          0  dtMISS:          0
cpu0_DTLB TRANSLATION  ACCESS:          0  HIT:          0  MISS:          0  iACCESS:          0  iHIT:          0  iMISS:          0  dACCESS:          0  dHIT:          0  dMISS:          0  itACCESS:          0  itHIT:          0  itMISS:          0  dtACCESS:          0  dtHIT:          0  dtMISS:          0
cpu0_DTLB PREFETCH  REQUESTED:          0  ISSUED:          0  CROSSED:          0  USEFUL:          0  USELESS:          0
cpu0_DTLB AVERAGE iMISS LATENCY: 0 cycles
cpu0_DTLB AVERAGE dMISS LATENCY: 18.4781 cycles
cpu0_DTLB AVERAGE itMISS LATENCY: 0 cycles
cpu0_DTLB AVERAGE dtMISS LATENCY: 0 cycles
cpu0_DTLB PAGE CROSSINGS (TLB HIT):         0 
cpu0_DTLB PAGE CROSSINGS (TLB MISS):         0 
cpu0_DTLB AVERAGE MISS LATENCY: 18.4781 cycles
cpu0_STLB TOTAL       ACCESS:    2419220  HIT:    2077586  MISS:     341634  iACCESS:     466718  iHIT:     422600  iMISS:      44118  dACCESS:    1952502  dHIT:    1654986  dMISS:     297516  itACCESS:          0  itHIT:          0  itMISS:          0  dtACCESS:          0  dtHIT:          0  dtMISS:          0
cpu0_STLB LOAD         ACCESS:    2419220  HIT:    2077586  MISS:     341634  iACCESS:     466718  iHIT:     422600  iMISS:      44118  dACCESS:    1952502  dHIT:    1654986  dMISS:     297516  itACCESS:          0  itHIT:          0  itMISS:          0  dtACCESS:          0  dtHIT:          0  dtMISS:          0
cpu0_STLB RFO          ACCESS:          0  HIT:          0  MISS:          0  iACCESS:          0  iHIT:          0  iMISS:          0  dACCESS:          0  dHIT:          0  dMISS:          0  itACCESS:          0  itHIT:          0  itMISS:          0  dtACCESS:          0  dtHIT:          0  dtMISS:          0
cpu0_STLB PREFETCH     ACCESS:          0  HIT:          0  MISS:          0  iACCESS:          0  iHIT:          0  iMISS:          0  dACCESS:          0  dHIT:          0  dMISS:          0  itACCESS:          0  itHIT:          0  itMISS:          0  dtACCESS:          0  dtHIT:          0  dtMISS:          0
cpu0_STLB WRITE        ACCESS:          0  HIT:          0  MISS:          0  iACCESS:          0  iHIT:          0  iMISS:          0  dACCESS:          0  dHIT:          0  dMISS:          0  itACCESS:          0  itHIT:          0  itMISS:          0  dtACCESS:          0  dtHIT:          0  dtMISS:          0
cpu0_STLB TRANSLATION  ACCESS:          0  HIT:          0  MISS:          0  iACCESS:          0  iHIT:          0  iMISS:          0  dACCESS:          0  dHIT:          0  dMISS:          0  itACCESS:          0  itHIT:          0  itMISS:          0  dtACCESS:          0  dtHIT:          0  dtMISS:          0
cpu0_STLB PREFETCH  REQUESTED:          0  ISSUED:          0  CROSSED:          0  USEFUL:          0  USELESS:          0
cpu0_STLB AVERAGE iMISS LATENCY: 21.2176 cycles
cpu0_STLB AVERAGE dMISS LATENCY: 139.74 cycles
cpu0_STLB AVERAGE itMISS LATENCY: 0 cycles
cpu0_STLB AVERAGE dtMISS LATENCY: 0 cycles
cpu0_STLB PAGE CROSSINGS (TLB HIT):         0 
cpu0_STLB PAGE CROSSINGS (TLB MISS):         0 
cpu0_STLB AVERAGE MISS LATENCY: 160.958 cycles
cpu0_L1D TOTAL       ACCESS:   44924223  HIT:   39041788  MISS:    5882435  iACCESS:          0  iHIT:          0  iMISS:          0  dACCESS:   44389044  dHIT:   39016965  dMISS:    5372079  itACCESS:      53553  itHIT:       3583  itMISS:      49970  dtACCESS:     481626  dtHIT:      21240  dtMISS:     460386
cpu0_L1D LOAD         ACCESS:   20283634  HIT:   17858346  MISS:    2425288  iACCESS:          0  iHIT:          0  iMISS:          0  dACCESS:   20283634  dHIT:   17858346  dMISS:    2425288  itACCESS:          0  itHIT:          0  itMISS:          0  dtACCESS:          0  dtHIT:          0  dtMISS:          0
cpu0_L1D RFO          ACCESS:          0  HIT:          0  MISS:          0  iACCESS:          0  iHIT:          0  iMISS:          0  dACCESS:          0  dHIT:          0  dMISS:          0  itACCESS:          0  itHIT:          0  itMISS:          0  dtACCESS:          0  dtHIT:          0  dtMISS:          0
cpu0_L1D PREFETCH     ACCESS:   13955208  HIT:   11576397  MISS:    2378811  iACCESS:          0  iHIT:          0  iMISS:          0  dACCESS:   13955208  dHIT:   11576397  dMISS:    2378811  itACCESS:          0  itHIT:          0  itMISS:          0  dtACCESS:          0  dtHIT:          0  dtMISS:          0
cpu0_L1D WRITE        ACCESS:   10150202  HIT:    9582222  MISS:     567980  iACCESS:          0  iHIT:          0  iMISS:          0  dACCESS:   10150202  dHIT:    9582222  dMISS:     567980  itACCESS:          0  itHIT:          0  itMISS:          0  dtACCESS:          0  dtHIT:          0  dtMISS:          0
cpu0_L1D TRANSLATION  ACCESS:     535179  HIT:      24823  MISS:     510356  iACCESS:          0  iHIT:          0  iMISS:          0  dACCESS:          0  dHIT:          0  dMISS:          0  itACCESS:      53553  itHIT:       3583  itMISS:      49970  dtACCESS:     481626  dtHIT:      21240  dtMISS:     460386
cpu0_L1D PREFETCH  REQUESTED:   20283634  ISSUED:   18375382  CROSSED:          0  USEFUL:     368646  USELESS:     905823
cpu0_L1D AVERAGE iMISS LATENCY: 0 cycles
cpu0_L1D AVERAGE dMISS LATENCY: 46.0246 cycles
cpu0_L1D AVERAGE itMISS LATENCY: 1.14663 cycles
cpu0_L1D AVERAGE dtMISS LATENCY: 7.29583 cycles
cpu0_L1D PAGE CROSSINGS (TLB HIT):         0 
cpu0_L1D PAGE CROSSINGS (TLB MISS):         0 
cpu0_L1D AVERAGE MISS LATENCY: 54.467 cycles
cpu0_L2C TOTAL       ACCESS:    8554403  HIT:    2559381  MISS:    5995022  iACCESS:    3788274  iHIT:    1463518  iMISS:    2324756  dACCESS:    4286887  dHIT:     872975  dMISS:    3413912  itACCESS:      49897  itHIT:      12234  itMISS:      37663  dtACCESS:     429345  dtHIT:     210654  dtMISS:     218691
cpu0_L2C LOAD         ACCESS:    2059341  HIT:     499959  MISS:    1559382  iACCESS:     857933  iHIT:     300621  iMISS:     557312  dACCESS:    1201408  dHIT:     199338  dMISS:    1002070  itACCESS:          0  itHIT:          0  itMISS:          0  dtACCESS:          0  dtHIT:          0  dtMISS:          0
cpu0_L2C RFO          ACCESS:     213417  HIT:      31473  MISS:     181944  iACCESS:          0  iHIT:          0  iMISS:          0  dACCESS:     213417  dHIT:      31473  dMISS:     181944  itACCESS:          0  itHIT:          0  itMISS:          0  dtACCESS:          0  dtHIT:          0  dtMISS:          0
cpu0_L2C PREFETCH     ACCESS:    5461031  HIT:    1679399  MISS:    3781632  iACCESS:    2930341  iHIT:    1162897  iMISS:    1767444  dACCESS:    2530690  dHIT:     516502  dMISS:    2014188  itACCESS:          0  itHIT:          0  itMISS:          0  dtACCESS:          0  dtHIT:          0  dtMISS:          0
cpu0_L2C WRITE        ACCESS:     341372  HIT:     125662  MISS:     215710  iACCESS:          0  iHIT:          0  iMISS:          0  dACCESS:     341372  dHIT:     125662  dMISS:     215710  itACCESS:          0  itHIT:          0  itMISS:          0  dtACCESS:          0  dtHIT:          0  dtMISS:          0
cpu0_L2C TRANSLATION  ACCESS:     479242  HIT:     222888  MISS:     256354  iACCESS:          0  iHIT:          0  iMISS:          0  dACCESS:          0  dHIT:          0  dMISS:          0  itACCESS:      49897  itHIT:      12234  itMISS:      37663  dtACCESS:     429345  dtHIT:     210654  dtMISS:     218691
cpu0_L2C PREFETCH  REQUESTED:    1521074  ISSUED:    1521067  CROSSED:          0  USEFUL:     388801  USELESS:     412486
cpu0_L2C AVERAGE iMISS LATENCY: 23.5606 cycles
cpu0_L2C AVERAGE dMISS LATENCY: 53.0326 cycles
cpu0_L2C AVERAGE itMISS LATENCY: 1.04362 cycles
cpu0_L2C AVERAGE dtMISS LATENCY: 6.47445 cycles
cpu0_L2C PAGE CROSSINGS (TLB HIT):         0 
cpu0_L2C PAGE CROSSINGS (TLB MISS):         0 
cpu0_L2C AVERAGE MISS LATENCY: 84.1112 cycles
LLC TOTAL       ACCESS:    5871652  HIT:    3591654  MISS:    2279998  iACCESS:    2250774  iHIT:    1626545  iMISS:     624229  dACCESS:    3364524  dHIT:    1921199  dMISS:    1443325  itACCESS:      37663  itHIT:       6574  itMISS:      31089  dtACCESS:     218691  dtHIT:      37336  dtMISS:     181355
LLC LOAD         ACCESS:    1551263  HIT:     978190  MISS:     573073  iACCESS:     556000  iHIT:     427604  iMISS:     128396  dACCESS:     995263  dHIT:     550586  dMISS:     444677  itACCESS:          0  itHIT:          0  itMISS:          0  dtACCESS:          0  dtHIT:          0  dtMISS:          0
LLC RFO          ACCESS:     181934  HIT:      93836  MISS:      88098  iACCESS:          0  iHIT:          0  iMISS:          0  dACCESS:     181934  dHIT:      93836  dMISS:      88098  itACCESS:          0  itHIT:          0  itMISS:          0  dtACCESS:          0  dtHIT:          0  dtMISS:          0
LLC PREFETCH     ACCESS:    3609682  HIT:    2208134  MISS:    1401548  iACCESS:    1694774  iHIT:    1198941  iMISS:     495833  dACCESS:    1914908  dHIT:    1009193  dMISS:     905715  itACCESS:          0  itHIT:          0  itMISS:          0  dtACCESS:          0  dtHIT:          0  dtMISS:          0
LLC WRITE        ACCESS:     272419  HIT:     267584  MISS:       4835  iACCESS:          0  iHIT:          0  iMISS:          0  dACCESS:     272419  dHIT:     267584  dMISS:       4835  itACCESS:          0  itHIT:          0  itMISS:          0  dtACCESS:          0  dtHIT:          0  dtMISS:          0
LLC TRANSLATION  ACCESS:     256354  HIT:      43910  MISS:     212444  iACCESS:          0  iHIT:          0  iMISS:          0  dACCESS:          0  dHIT:          0  dMISS:          0  itACCESS:      37663  itHIT:       6574  itMISS:      31089  dtACCESS:     218691  dtHIT:      37336  dtMISS:     181355
LLC PREFETCH  REQUESTED:          0  ISSUED:          0  CROSSED:          0  USEFUL:          0  USELESS:          0
LLC AVERAGE iMISS LATENCY: 42.8005 cycles
LLC AVERAGE dMISS LATENCY: 114.189 cycles
LLC AVERAGE itMISS LATENCY: 2.41769 cycles
LLC AVERAGE dtMISS LATENCY: 15.1291 cycles
LLC PAGE CROSSINGS (TLB HIT):         0 
LLC PAGE CROSSINGS (TLB MISS):         0 
LLC AVERAGE MISS LATENCY: 174.536 cycles

PageTableWalker TOTAL       ACCESS:     166415  
PageTableWalker AVERAGE LATENCY: 5.94891 cycles
PageTableWalker TOTAL LATENCY: 989987 cycles

DRAM Statistics
Channel 0
 RQ ROW_BUFFER_HIT:     484449
  ROW_BUFFER_MISS:    1770266
 AVG DBUS CONGESTED CYCLE:    3.65245
 WQ ROW_BUFFER_HIT:      61624
  ROW_BUFFER_MISS:      65235  FULL:          0

