last_page:0x200000000000000
VMEM_RES_CAP:0x100000
PAGE_SIZE:4096
LOG2_PAGE_SIZE:12
LOG2_PAGE_TABLE_SIZE:9
page_table_levels:5
WARNING: physical memory size is smaller than virtual memory size
FDiP enabled with aggresivity 16

*** ChampSim Multicore Out-of-Order Simulator ***

Warmup Instructions: 50000000
Simulation Instructions: 100000000
Number of CPUs: 1
Small page size: 4096
Large page size: 2097152

CPU 0 Bimodal branch predictor
Basic BTB sets: 1024 ways: 8 indirect buffer size: 4096 RAS size: 64
Instruction page size distrubution: 0
Loading instruction page size distribution from /home/bsc/bsc018186/scratch/itp_asplos25_AE/dump/smt_srv540_ap_srv526_ap_1024i.pdst
Data page size distrubution: 0
Loading data page size distribution from /home/bsc/bsc018186/scratch/itp_asplos25_AE/dump/smt_srv540_ap_srv526_ap_1024i.pdst
cpu0_L2C IP-based stride prefetcher
cpu0_L1D next line prefetcher
cpu0_L1I next line prefetcher
Off-chip DRAM Size: 4 GiB Channels: 1 Width: 64-bit Data Rate: 3200 MT/s
Heartbeat CPU 0 instructions: 10000002 cycles: 2500494 heartbeat IPC: 3.99922 cumulative IPC: 3.99922 (Simulation time: 0 hr 0 min 39 sec) 
Heartbeat CPU 0 instructions: 20000002 cycles: 5000803 heartbeat IPC: 3.99951 cumulative IPC: 3.99936 (Simulation time: 0 hr 1 min 22 sec) 
Heartbeat CPU 0 instructions: 30000000 cycles: 7583147 heartbeat IPC: 3.87245 cumulative IPC: 3.95615 (Simulation time: 0 hr 2 min 5 sec) 
Heartbeat CPU 0 instructions: 40000002 cycles: 10128977 heartbeat IPC: 3.928 cumulative IPC: 3.94907 (Simulation time: 0 hr 2 min 50 sec) 
Heartbeat CPU 0 instructions: 50000000 cycles: 12655211 heartbeat IPC: 3.95847 cumulative IPC: 3.95095 (Simulation time: 0 hr 3 min 35 sec) 
Warmup finished CPU 0 instructions: 50000000 cycles: 12655212 cumulative IPC: 3.95095 (Simulation time: 0 hr 3 min 35 sec) 

Warmup complete CPU 0 instructions: 50000000 cycles: 12655212 (Simulation time: 0 hr 3 min 35 sec) 

Heartbeat CPU 0 instructions: 60000003 cycles: 39521738 heartbeat IPC: 0.372211 cumulative IPC: 0.372211 (Simulation time: 0 hr 4 min 58 sec) 
Heartbeat CPU 0 instructions: 70000004 cycles: 67563969 heartbeat IPC: 0.356606 cumulative IPC: 0.364241 (Simulation time: 0 hr 6 min 25 sec) 
Heartbeat CPU 0 instructions: 80000002 cycles: 95076819 heartbeat IPC: 0.363467 cumulative IPC: 0.363983 (Simulation time: 0 hr 7 min 51 sec) 
Heartbeat CPU 0 instructions: 90000000 cycles: 122078697 heartbeat IPC: 0.370345 cumulative IPC: 0.365553 (Simulation time: 0 hr 9 min 15 sec) 
Heartbeat CPU 0 instructions: 100000001 cycles: 150691491 heartbeat IPC: 0.349495 cumulative IPC: 0.362224 (Simulation time: 0 hr 10 min 43 sec) 
Heartbeat CPU 0 instructions: 110000000 cycles: 178322754 heartbeat IPC: 0.361909 cumulative IPC: 0.362172 (Simulation time: 0 hr 12 min 9 sec) 
Heartbeat CPU 0 instructions: 120000000 cycles: 205462839 heartbeat IPC: 0.368459 cumulative IPC: 0.363057 (Simulation time: 0 hr 13 min 34 sec) 
Heartbeat CPU 0 instructions: 130000002 cycles: 232857897 heartbeat IPC: 0.36503 cumulative IPC: 0.363302 (Simulation time: 0 hr 15 min 0 sec) 
Heartbeat CPU 0 instructions: 140000002 cycles: 260926133 heartbeat IPC: 0.356275 cumulative IPC: 0.362508 (Simulation time: 0 hr 16 min 26 sec) 
Heartbeat CPU 0 instructions: 150000001 cycles: 288511315 heartbeat IPC: 0.362514 cumulative IPC: 0.362508 (Simulation time: 0 hr 17 min 53 sec) 
Simulation finished CPU 0 instructions: 100000001 cycles: 275856104 cumulative IPC: 0.362508 (Simulation time: 0 hr 17 min 53 sec) 

Simulation complete CPU 0 instructions: 100000001 cycles: 275856104 (Simulation time: 0 hr 17 min 53 sec) 


ChampSim completed all CPUs

Saving instructions large page distribution to /home/bsc/bsc018186/scratch/itp_asplos25_AE/dump/smt_srv540_ap_srv526_ap_1024i.pdst...
Saving data large page distribution to /home/bsc/bsc018186/scratch/itp_asplos25_AE/dump/smt_srv540_ap_srv526_ap_1024i.pdst...
=== Simulation ===
CPU 0 runs /gpfs/projects/bsc18/MN4/bsc18/romol/ChampSim/traces/qualcomm_srv/smt_srv540_ap_srv526_ap_1024i.champsimtrace.xz

Region of Interest Statistics

CPU 0 cumulative IPC: 0.362508 instructions: 100000001 cycles: 275856104
CPU 0 Branch Prediction Accuracy: 75.4686% MPKI: 44.1966 Average ROB Occupancy at Mispredict: 10.6137
Branch type MPKI
BRANCH_DIRECT_JUMP: 1.45597
BRANCH_INDIRECT: 22.808
BRANCH_CONDITIONAL: 12.6845
BRANCH_DIRECT_CALL: 2.66873
BRANCH_INDIRECT_CALL: 1.00036
BRANCH_RETURN: 3.57917

Instructions large pages: 0
Instructions small pages: 13358
Large page distribution for instructions: 0%

Data large pages: 0
Data small pages: 11962
Large page distribution for data: 0%

cpu0_L1I TOTAL       ACCESS:   39405668  HIT:   30252553  MISS:    9153115  iACCESS:   39405668  iHIT:   30252553  iMISS:    9153115  dACCESS:          0  dHIT:          0  dMISS:          0  itACCESS:          0  itHIT:          0  itMISS:          0  dtACCESS:          0  dtHIT:          0  dtMISS:          0
cpu0_L1I LOAD         ACCESS:   11755764  HIT:    9263022  MISS:    2492742  iACCESS:   11755764  iHIT:    9263022  iMISS:    2492742  dACCESS:          0  dHIT:          0  dMISS:          0  itACCESS:          0  itHIT:          0  itMISS:          0  dtACCESS:          0  dtHIT:          0  dtMISS:          0
cpu0_L1I RFO          ACCESS:          0  HIT:          0  MISS:          0  iACCESS:          0  iHIT:          0  iMISS:          0  dACCESS:          0  dHIT:          0  dMISS:          0  itACCESS:          0  itHIT:          0  itMISS:          0  dtACCESS:          0  dtHIT:          0  dtMISS:          0
cpu0_L1I PREFETCH     ACCESS:   27649904  HIT:   20989531  MISS:    6660373  iACCESS:   27649904  iHIT:   20989531  iMISS:    6660373  dACCESS:          0  dHIT:          0  dMISS:          0  itACCESS:          0  itHIT:          0  itMISS:          0  dtACCESS:          0  dtHIT:          0  dtMISS:          0
cpu0_L1I WRITE        ACCESS:          0  HIT:          0  MISS:          0  iACCESS:          0  iHIT:          0  iMISS:          0  dACCESS:          0  dHIT:          0  dMISS:          0  itACCESS:          0  itHIT:          0  itMISS:          0  dtACCESS:          0  dtHIT:          0  dtMISS:          0
cpu0_L1I TRANSLATION  ACCESS:          0  HIT:          0  MISS:          0  iACCESS:          0  iHIT:          0  iMISS:          0  dACCESS:          0  dHIT:          0  dMISS:          0  itACCESS:          0  itHIT:          0  itMISS:          0  dtACCESS:          0  dtHIT:          0  dtMISS:          0
cpu0_L1I PREFETCH  REQUESTED:   30274906  ISSUED:   30273908  CROSSED:          0  USEFUL:    2199303  USELESS:     760666
cpu0_L1I AVERAGE iMISS LATENCY: 24.0439 cycles
cpu0_L1I AVERAGE dMISS LATENCY: 0 cycles
cpu0_L1I AVERAGE itMISS LATENCY: 0 cycles
cpu0_L1I AVERAGE dtMISS LATENCY: 0 cycles
cpu0_L1I PAGE CROSSINGS (TLB HIT):         0 
cpu0_L1I PAGE CROSSINGS (TLB MISS):         0 
cpu0_L1I AVERAGE MISS LATENCY: 24.0439 cycles
cpu0_ITLB TOTAL       ACCESS:   33156360  HIT:   30911500  MISS:    2244860  iACCESS:   33156360  iHIT:   30911500  iMISS:    2244860  dACCESS:          0  dHIT:          0  dMISS:          0  itACCESS:          0  itHIT:          0  itMISS:          0  dtACCESS:          0  dtHIT:          0  dtMISS:          0
cpu0_ITLB LOAD         ACCESS:   33156360  HIT:   30911500  MISS:    2244860  iACCESS:   33156360  iHIT:   30911500  iMISS:    2244860  dACCESS:          0  dHIT:          0  dMISS:          0  itACCESS:          0  itHIT:          0  itMISS:          0  dtACCESS:          0  dtHIT:          0  dtMISS:          0
cpu0_ITLB RFO          ACCESS:          0  HIT:          0  MISS:          0  iACCESS:          0  iHIT:          0  iMISS:          0  dACCESS:          0  dHIT:          0  dMISS:          0  itACCESS:          0  itHIT:          0  itMISS:          0  dtACCESS:          0  dtHIT:          0  dtMISS:          0
cpu0_ITLB PREFETCH     ACCESS:          0  HIT:          0  MISS:          0  iACCESS:          0  iHIT:          0  iMISS:          0  dACCESS:          0  dHIT:          0  dMISS:          0  itACCESS:          0  itHIT:          0  itMISS:          0  dtACCESS:          0  dtHIT:          0  dtMISS:          0
cpu0_ITLB WRITE        ACCESS:          0  HIT:          0  MISS:          0  iACCESS:          0  iHIT:          0  iMISS:          0  dACCESS:          0  dHIT:          0  dMISS:          0  itACCESS:          0  itHIT:          0  itMISS:          0  dtACCESS:          0  dtHIT:          0  dtMISS:          0
cpu0_ITLB TRANSLATION  ACCESS:          0  HIT:          0  MISS:          0  iACCESS:          0  iHIT:          0  iMISS:          0  dACCESS:          0  dHIT:          0  dMISS:          0  itACCESS:          0  itHIT:          0  itMISS:          0  dtACCESS:          0  dtHIT:          0  dtMISS:          0
cpu0_ITLB PREFETCH  REQUESTED:          0  ISSUED:          0  CROSSED:          0  USEFUL:     393423  USELESS:      83203
cpu0_ITLB AVERAGE iMISS LATENCY: 8.34867 cycles
cpu0_ITLB AVERAGE dMISS LATENCY: 0 cycles
cpu0_ITLB AVERAGE itMISS LATENCY: 0 cycles
cpu0_ITLB AVERAGE dtMISS LATENCY: 0 cycles
cpu0_ITLB PAGE CROSSINGS (TLB HIT):         0 
cpu0_ITLB PAGE CROSSINGS (TLB MISS):         0 
cpu0_ITLB AVERAGE MISS LATENCY: 8.34867 cycles
cpu0_DTLB TOTAL       ACCESS:   28917768  HIT:   25277157  MISS:    3640611  iACCESS:          0  iHIT:          0  iMISS:          0  dACCESS:   28917768  dHIT:   25277157  dMISS:    3640611  itACCESS:          0  itHIT:          0  itMISS:          0  dtACCESS:          0  dtHIT:          0  dtMISS:          0
cpu0_DTLB LOAD         ACCESS:   28917768  HIT:   25277157  MISS:    3640611  iACCESS:          0  iHIT:          0  iMISS:          0  dACCESS:   28917768  dHIT:   25277157  dMISS:    3640611  itACCESS:          0  itHIT:          0  itMISS:          0  dtACCESS:          0  dtHIT:          0  dtMISS:          0
cpu0_DTLB RFO          ACCESS:          0  HIT:          0  MISS:          0  iACCESS:          0  iHIT:          0  iMISS:          0  dACCESS:          0  dHIT:          0  dMISS:          0  itACCESS:          0  itHIT:          0  itMISS:          0  dtACCESS:          0  dtHIT:          0  dtMISS:          0
cpu0_DTLB PREFETCH     ACCESS:          0  HIT:          0  MISS:          0  iACCESS:          0  iHIT:          0  iMISS:          0  dACCESS:          0  dHIT:          0  dMISS:          0  itACCESS:          0  itHIT:          0  itMISS:          0  dtACCESS:          0  dtHIT:          0  dtMISS:          0
cpu0_DTLB WRITE        ACCESS:          0  HIT:          0  MISS:          0  iACCESS:          0  iHIT:          0  iMISS:          0  dACCESS:          0  dHIT:          0  dMISS:          0  itACCESS:          0  itHIT:          0  itMISS:          0  dtACCESS:          0  dtHIT:          0  dtMISS:          0
cpu0_DTLB TRANSLATION  ACCESS:          0  HIT:          0  MISS:          0  iACCESS:          0  iHIT:          0  iMISS:          0  dACCESS:          0  dHIT:          0  dMISS:          0  itACCESS:          0  itHIT:          0  itMISS:          0  dtACCESS:          0  dtHIT:          0  dtMISS:          0
cpu0_DTLB PREFETCH  REQUESTED:          0  ISSUED:          0  CROSSED:          0  USEFUL:          0  USELESS:          0
cpu0_DTLB AVERAGE iMISS LATENCY: 0 cycles
cpu0_DTLB AVERAGE dMISS LATENCY: 17.2181 cycles
cpu0_DTLB AVERAGE itMISS LATENCY: 0 cycles
cpu0_DTLB AVERAGE dtMISS LATENCY: 0 cycles
cpu0_DTLB PAGE CROSSINGS (TLB HIT):         0 
cpu0_DTLB PAGE CROSSINGS (TLB MISS):         0 
cpu0_DTLB AVERAGE MISS LATENCY: 17.2181 cycles
cpu0_STLB TOTAL       ACCESS:    2588384  HIT:    2203726  MISS:     384658  iACCESS:     476637  iHIT:     354972  iMISS:     121665  dACCESS:    2111747  dHIT:    1848754  dMISS:     262993  itACCESS:          0  itHIT:          0  itMISS:          0  dtACCESS:          0  dtHIT:          0  dtMISS:          0
cpu0_STLB LOAD         ACCESS:    2588384  HIT:    2203726  MISS:     384658  iACCESS:     476637  iHIT:     354972  iMISS:     121665  dACCESS:    2111747  dHIT:    1848754  dMISS:     262993  itACCESS:          0  itHIT:          0  itMISS:          0  dtACCESS:          0  dtHIT:          0  dtMISS:          0
cpu0_STLB RFO          ACCESS:          0  HIT:          0  MISS:          0  iACCESS:          0  iHIT:          0  iMISS:          0  dACCESS:          0  dHIT:          0  dMISS:          0  itACCESS:          0  itHIT:          0  itMISS:          0  dtACCESS:          0  dtHIT:          0  dtMISS:          0
cpu0_STLB PREFETCH     ACCESS:          0  HIT:          0  MISS:          0  iACCESS:          0  iHIT:          0  iMISS:          0  dACCESS:          0  dHIT:          0  dMISS:          0  itACCESS:          0  itHIT:          0  itMISS:          0  dtACCESS:          0  dtHIT:          0  dtMISS:          0
cpu0_STLB WRITE        ACCESS:          0  HIT:          0  MISS:          0  iACCESS:          0  iHIT:          0  iMISS:          0  dACCESS:          0  dHIT:          0  dMISS:          0  itACCESS:          0  itHIT:          0  itMISS:          0  dtACCESS:          0  dtHIT:          0  dtMISS:          0
cpu0_STLB TRANSLATION  ACCESS:          0  HIT:          0  MISS:          0  iACCESS:          0  iHIT:          0  iMISS:          0  dACCESS:          0  dHIT:          0  dMISS:          0  itACCESS:          0  itHIT:          0  itMISS:          0  dtACCESS:          0  dtHIT:          0  dtMISS:          0
cpu0_STLB PREFETCH  REQUESTED:          0  ISSUED:          0  CROSSED:          0  USEFUL:          0  USELESS:          0
cpu0_STLB AVERAGE iMISS LATENCY: 38.8073 cycles
cpu0_STLB AVERAGE dMISS LATENCY: 118.827 cycles
cpu0_STLB AVERAGE itMISS LATENCY: 0 cycles
cpu0_STLB AVERAGE dtMISS LATENCY: 0 cycles
cpu0_STLB PAGE CROSSINGS (TLB HIT):         0 
cpu0_STLB PAGE CROSSINGS (TLB MISS):         0 
cpu0_STLB AVERAGE MISS LATENCY: 157.634 cycles
cpu0_L1D TOTAL       ACCESS:   44542349  HIT:   39165257  MISS:    5377092  iACCESS:          0  iHIT:          0  iMISS:          0  dACCESS:   43988253  dHIT:   39129236  dMISS:    4859017  itACCESS:     136494  itHIT:      14199  itMISS:     122295  dtACCESS:     417602  dtHIT:      21822  dtMISS:     395780
cpu0_L1D LOAD         ACCESS:   20065005  HIT:   17899426  MISS:    2165579  iACCESS:          0  iHIT:          0  iMISS:          0  dACCESS:   20065005  dHIT:   17899426  dMISS:    2165579  itACCESS:          0  itHIT:          0  itMISS:          0  dtACCESS:          0  dtHIT:          0  dtMISS:          0
cpu0_L1D RFO          ACCESS:          0  HIT:          0  MISS:          0  iACCESS:          0  iHIT:          0  iMISS:          0  dACCESS:          0  dHIT:          0  dMISS:          0  itACCESS:          0  itHIT:          0  itMISS:          0  dtACCESS:          0  dtHIT:          0  dtMISS:          0
cpu0_L1D PREFETCH     ACCESS:   13697117  HIT:   11589076  MISS:    2108041  iACCESS:          0  iHIT:          0  iMISS:          0  dACCESS:   13697117  dHIT:   11589076  dMISS:    2108041  itACCESS:          0  itHIT:          0  itMISS:          0  dtACCESS:          0  dtHIT:          0  dtMISS:          0
cpu0_L1D WRITE        ACCESS:   10226131  HIT:    9640734  MISS:     585397  iACCESS:          0  iHIT:          0  iMISS:          0  dACCESS:   10226131  dHIT:    9640734  dMISS:     585397  itACCESS:          0  itHIT:          0  itMISS:          0  dtACCESS:          0  dtHIT:          0  dtMISS:          0
cpu0_L1D TRANSLATION  ACCESS:     554096  HIT:      36021  MISS:     518075  iACCESS:          0  iHIT:          0  iMISS:          0  dACCESS:          0  dHIT:          0  dMISS:          0  itACCESS:     136494  itHIT:      14199  itMISS:     122295  dtACCESS:     417602  dtHIT:      21822  dtMISS:     395780
cpu0_L1D PREFETCH  REQUESTED:   20065005  ISSUED:   18418682  CROSSED:          0  USEFUL:     355314  USELESS:     931707
cpu0_L1D AVERAGE iMISS LATENCY: 0 cycles
cpu0_L1D AVERAGE dMISS LATENCY: 52.516 cycles
cpu0_L1D AVERAGE itMISS LATENCY: 2.56835 cycles
cpu0_L1D AVERAGE dtMISS LATENCY: 7.49715 cycles
cpu0_L1D PAGE CROSSINGS (TLB HIT):         0 
cpu0_L1D PAGE CROSSINGS (TLB MISS):         0 
cpu0_L1D AVERAGE MISS LATENCY: 62.5815 cycles
cpu0_L2C TOTAL       ACCESS:    8561439  HIT:    1485788  MISS:    7075651  iACCESS:    3764593  iHIT:     754779  iMISS:    3009814  dACCESS:    4300426  dHIT:     537407  dMISS:    3763019  itACCESS:     121566  itHIT:      41562  itMISS:      80004  dtACCESS:     374854  dtHIT:     152040  dtMISS:     222814
cpu0_L2C LOAD         ACCESS:    2034006  HIT:     196582  MISS:    1837424  iACCESS:     839408  iHIT:     101536  iMISS:     737872  dACCESS:    1194598  dHIT:      95046  dMISS:    1099552  itACCESS:          0  itHIT:          0  itMISS:          0  dtACCESS:          0  dtHIT:          0  dtMISS:          0
cpu0_L2C RFO          ACCESS:     223888  HIT:      30817  MISS:     193071  iACCESS:          0  iHIT:          0  iMISS:          0  dACCESS:     223888  dHIT:      30817  dMISS:     193071  itACCESS:          0  itHIT:          0  itMISS:          0  dtACCESS:          0  dtHIT:          0  dtMISS:          0
cpu0_L2C PREFETCH     ACCESS:    5460109  HIT:     960129  MISS:    4499980  iACCESS:    2925185  iHIT:     653243  iMISS:    2271942  dACCESS:    2534924  dHIT:     306886  dMISS:    2228038  itACCESS:          0  itHIT:          0  itMISS:          0  dtACCESS:          0  dtHIT:          0  dtMISS:          0
cpu0_L2C WRITE        ACCESS:     347016  HIT:     104658  MISS:     242358  iACCESS:          0  iHIT:          0  iMISS:          0  dACCESS:     347016  dHIT:     104658  dMISS:     242358  itACCESS:          0  itHIT:          0  itMISS:          0  dtACCESS:          0  dtHIT:          0  dtMISS:          0
cpu0_L2C TRANSLATION  ACCESS:     496420  HIT:     193602  MISS:     302818  iACCESS:          0  iHIT:          0  iMISS:          0  dACCESS:          0  dHIT:          0  dMISS:          0  itACCESS:     121566  itHIT:      41562  itMISS:      80004  dtACCESS:     374854  dtHIT:     152040  dtMISS:     222814
cpu0_L2C PREFETCH  REQUESTED:    1484486  ISSUED:    1484483  CROSSED:          0  USEFUL:     404708  USELESS:     483616
cpu0_L2C AVERAGE iMISS LATENCY: 26.5411 cycles
cpu0_L2C AVERAGE dMISS LATENCY: 48.8932 cycles
cpu0_L2C AVERAGE itMISS LATENCY: 1.7854 cycles
cpu0_L2C AVERAGE dtMISS LATENCY: 5.18673 cycles
cpu0_L2C PAGE CROSSINGS (TLB HIT):         0 
cpu0_L2C PAGE CROSSINGS (TLB MISS):         0 
cpu0_L2C AVERAGE MISS LATENCY: 82.4063 cycles
LLC TOTAL       ACCESS:    6897287  HIT:    4233748  MISS:    2663539  iACCESS:    2919344  iHIT:    2085998  iMISS:     833346  dACCESS:    3675125  dHIT:    2078592  dMISS:    1596533  itACCESS:      80004  itHIT:      17449  itMISS:      62555  dtACCESS:     222814  dtHIT:      51709  dtMISS:     171105
LLC LOAD         ACCESS:    1831625  HIT:    1189285  MISS:     642340  iACCESS:     736299  iHIT:     558093  iMISS:     178206  dACCESS:    1095326  dHIT:     631192  dMISS:     464134  itACCESS:          0  itHIT:          0  itMISS:          0  dtACCESS:          0  dtHIT:          0  dtMISS:          0
LLC RFO          ACCESS:     193038  HIT:      96697  MISS:      96341  iACCESS:          0  iHIT:          0  iMISS:          0  dACCESS:     193038  dHIT:      96697  dMISS:      96341  itACCESS:          0  itHIT:          0  itMISS:          0  dtACCESS:          0  dtHIT:          0  dtMISS:          0
LLC PREFETCH     ACCESS:    4293689  HIT:    2609434  MISS:    1684255  iACCESS:    2183045  iHIT:    1527905  iMISS:     655140  dACCESS:    2110644  dHIT:    1081529  dMISS:    1029115  itACCESS:          0  itHIT:          0  itMISS:          0  dtACCESS:          0  dtHIT:          0  dtMISS:          0
LLC WRITE        ACCESS:     276117  HIT:     269174  MISS:       6943  iACCESS:          0  iHIT:          0  iMISS:          0  dACCESS:     276117  dHIT:     269174  dMISS:       6943  itACCESS:          0  itHIT:          0  itMISS:          0  dtACCESS:          0  dtHIT:          0  dtMISS:          0
LLC TRANSLATION  ACCESS:     302818  HIT:      69158  MISS:     233660  iACCESS:          0  iHIT:          0  iMISS:          0  dACCESS:          0  dHIT:          0  dMISS:          0  itACCESS:      80004  itHIT:      17449  itMISS:      62555  dtACCESS:     222814  dtHIT:      51709  dtMISS:     171105
LLC PREFETCH  REQUESTED:          0  ISSUED:          0  CROSSED:          0  USEFUL:          0  USELESS:          0
LLC AVERAGE iMISS LATENCY: 49.2256 cycles
LLC AVERAGE dMISS LATENCY: 105.704 cycles
LLC AVERAGE itMISS LATENCY: 4.15055 cycles
LLC AVERAGE dtMISS LATENCY: 12.1312 cycles
LLC PAGE CROSSINGS (TLB HIT):         0 
LLC PAGE CROSSINGS (TLB MISS):         0 
LLC AVERAGE MISS LATENCY: 171.211 cycles

PageTableWalker TOTAL       ACCESS:     144220  
PageTableWalker AVERAGE LATENCY: 5.89574 cycles
PageTableWalker TOTAL LATENCY: 850283 cycles

DRAM Statistics
Channel 0
 RQ ROW_BUFFER_HIT:     581802
  ROW_BUFFER_MISS:    2063439
 AVG DBUS CONGESTED CYCLE:    3.65229
 WQ ROW_BUFFER_HIT:      65242
  ROW_BUFFER_MISS:      62430  FULL:          0

