last_page:0x200000000000000
VMEM_RES_CAP:0x100000
PAGE_SIZE:4096
LOG2_PAGE_SIZE:12
LOG2_PAGE_TABLE_SIZE:9
page_table_levels:5
WARNING: physical memory size is smaller than virtual memory size
FDiP enabled with aggresivity 16

*** ChampSim Multicore Out-of-Order Simulator ***

Warmup Instructions: 50000000
Simulation Instructions: 100000000
Number of CPUs: 1
Small page size: 4096
Large page size: 2097152

CPU 0 Bimodal branch predictor
Basic BTB sets: 1024 ways: 8 indirect buffer size: 4096 RAS size: 64
Instruction page size distrubution: 0
Loading instruction page size distribution from /home/bsc/bsc018186/scratch/itp_asplos25_AE/dump/smt_srv207_ap_srv442_ap_1024i.pdst
Data page size distrubution: 0
Loading data page size distribution from /home/bsc/bsc018186/scratch/itp_asplos25_AE/dump/smt_srv207_ap_srv442_ap_1024i.pdst
cpu0_L2C IP-based stride prefetcher
cpu0_L1D next line prefetcher
CHiRPing...
cpu0_L1I next line prefetcher
Off-chip DRAM Size: 4 GiB Channels: 1 Width: 64-bit Data Rate: 3200 MT/s
Heartbeat CPU 0 instructions: 10000003 cycles: 2500614 heartbeat IPC: 3.99902 cumulative IPC: 3.99902 (Simulation time: 0 hr 0 min 46 sec) 
Heartbeat CPU 0 instructions: 20000001 cycles: 5000999 heartbeat IPC: 3.99939 cumulative IPC: 3.99921 (Simulation time: 0 hr 1 min 34 sec) 
Heartbeat CPU 0 instructions: 30000000 cycles: 7501364 heartbeat IPC: 3.99942 cumulative IPC: 3.99928 (Simulation time: 0 hr 2 min 23 sec) 
Heartbeat CPU 0 instructions: 40000001 cycles: 10001716 heartbeat IPC: 3.99944 cumulative IPC: 3.99932 (Simulation time: 0 hr 3 min 13 sec) 
Heartbeat CPU 0 instructions: 50000002 cycles: 12502170 heartbeat IPC: 3.99928 cumulative IPC: 3.99931 (Simulation time: 0 hr 4 min 2 sec) 
Warmup finished CPU 0 instructions: 50000002 cycles: 12502171 cumulative IPC: 3.99931 (Simulation time: 0 hr 4 min 2 sec) 

Warmup complete CPU 0 instructions: 50000002 cycles: 12502171 (Simulation time: 0 hr 4 min 2 sec) 

Heartbeat CPU 0 instructions: 60000000 cycles: 43064560 heartbeat IPC: 0.3272 cumulative IPC: 0.3272 (Simulation time: 0 hr 5 min 44 sec) 
Heartbeat CPU 0 instructions: 70000004 cycles: 72224846 heartbeat IPC: 0.342933 cumulative IPC: 0.334882 (Simulation time: 0 hr 7 min 25 sec) 
Heartbeat CPU 0 instructions: 80000000 cycles: 103016300 heartbeat IPC: 0.324766 cumulative IPC: 0.33144 (Simulation time: 0 hr 9 min 9 sec) 
Heartbeat CPU 0 instructions: 90000000 cycles: 133668001 heartbeat IPC: 0.326247 cumulative IPC: 0.330127 (Simulation time: 0 hr 10 min 53 sec) 
Heartbeat CPU 0 instructions: 100000000 cycles: 164013044 heartbeat IPC: 0.329544 cumulative IPC: 0.33001 (Simulation time: 0 hr 12 min 34 sec) 
Heartbeat CPU 0 instructions: 110000003 cycles: 194923610 heartbeat IPC: 0.323515 cumulative IPC: 0.328909 (Simulation time: 0 hr 14 min 18 sec) 
Heartbeat CPU 0 instructions: 120000002 cycles: 224751758 heartbeat IPC: 0.335254 cumulative IPC: 0.329801 (Simulation time: 0 hr 15 min 54 sec) 
Heartbeat CPU 0 instructions: 130000000 cycles: 254451688 heartbeat IPC: 0.336702 cumulative IPC: 0.330648 (Simulation time: 0 hr 17 min 22 sec) 
Heartbeat CPU 0 instructions: 140000002 cycles: 283960680 heartbeat IPC: 0.33888 cumulative IPC: 0.331543 (Simulation time: 0 hr 18 min 51 sec) 
Heartbeat CPU 0 instructions: 150000000 cycles: 313489379 heartbeat IPC: 0.338654 cumulative IPC: 0.332241 (Simulation time: 0 hr 20 min 20 sec) 
Simulation finished CPU 0 instructions: 100000003 cycles: 300987210 cumulative IPC: 0.332241 (Simulation time: 0 hr 20 min 20 sec) 

Simulation complete CPU 0 instructions: 100000003 cycles: 300987210 (Simulation time: 0 hr 20 min 20 sec) 


ChampSim completed all CPUs

Saving instructions large page distribution to /home/bsc/bsc018186/scratch/itp_asplos25_AE/dump/smt_srv207_ap_srv442_ap_1024i.pdst...
Saving data large page distribution to /home/bsc/bsc018186/scratch/itp_asplos25_AE/dump/smt_srv207_ap_srv442_ap_1024i.pdst...
=== Simulation ===
CPU 0 runs /gpfs/projects/bsc18/MN4/bsc18/romol/ChampSim/traces/qualcomm_srv/smt_srv207_ap_srv442_ap_1024i.champsimtrace.xz

Region of Interest Statistics

CPU 0 cumulative IPC: 0.332241 instructions: 100000003 cycles: 300987210
CPU 0 Branch Prediction Accuracy: 75.6611% MPKI: 43.8453 Average ROB Occupancy at Mispredict: 11.303
Branch type MPKI
BRANCH_DIRECT_JUMP: 1.36284
BRANCH_INDIRECT: 23.7831
BRANCH_CONDITIONAL: 11.7096
BRANCH_DIRECT_CALL: 2.49862
BRANCH_INDIRECT_CALL: 1.01578
BRANCH_RETURN: 3.47536

Instructions large pages: 0
Instructions small pages: 11573
Large page distribution for instructions: 0%

Data large pages: 0
Data small pages: 10267
Large page distribution for data: 0%

cpu0_L1I TOTAL       ACCESS:   38820966  HIT:   29918993  MISS:    8901973  iACCESS:   38820966  iHIT:   29918993  iMISS:    8901973  dACCESS:          0  dHIT:          0  dMISS:          0  itACCESS:          0  itHIT:          0  itMISS:          0  dtACCESS:          0  dtHIT:          0  dtMISS:          0
cpu0_L1I LOAD         ACCESS:   11527274  HIT:    9073428  MISS:    2453846  iACCESS:   11527274  iHIT:    9073428  iMISS:    2453846  dACCESS:          0  dHIT:          0  dMISS:          0  itACCESS:          0  itHIT:          0  itMISS:          0  dtACCESS:          0  dtHIT:          0  dtMISS:          0
cpu0_L1I RFO          ACCESS:          0  HIT:          0  MISS:          0  iACCESS:          0  iHIT:          0  iMISS:          0  dACCESS:          0  dHIT:          0  dMISS:          0  itACCESS:          0  itHIT:          0  itMISS:          0  dtACCESS:          0  dtHIT:          0  dtMISS:          0
cpu0_L1I PREFETCH     ACCESS:   27293692  HIT:   20845565  MISS:    6448127  iACCESS:   27293692  iHIT:   20845565  iMISS:    6448127  dACCESS:          0  dHIT:          0  dMISS:          0  itACCESS:          0  itHIT:          0  itMISS:          0  dtACCESS:          0  dtHIT:          0  dtMISS:          0
cpu0_L1I WRITE        ACCESS:          0  HIT:          0  MISS:          0  iACCESS:          0  iHIT:          0  iMISS:          0  dACCESS:          0  dHIT:          0  dMISS:          0  itACCESS:          0  itHIT:          0  itMISS:          0  dtACCESS:          0  dtHIT:          0  dtMISS:          0
cpu0_L1I TRANSLATION  ACCESS:          0  HIT:          0  MISS:          0  iACCESS:          0  iHIT:          0  iMISS:          0  dACCESS:          0  dHIT:          0  dMISS:          0  itACCESS:          0  itHIT:          0  itMISS:          0  dtACCESS:          0  dtHIT:          0  dtMISS:          0
cpu0_L1I PREFETCH  REQUESTED:   30052762  ISSUED:   30052736  CROSSED:          0  USEFUL:    2224419  USELESS:     805286
cpu0_L1I AVERAGE iMISS LATENCY: 22.3888 cycles
cpu0_L1I AVERAGE dMISS LATENCY: 0 cycles
cpu0_L1I AVERAGE itMISS LATENCY: 0 cycles
cpu0_L1I AVERAGE dtMISS LATENCY: 0 cycles
cpu0_L1I PAGE CROSSINGS (TLB HIT):         0 
cpu0_L1I PAGE CROSSINGS (TLB MISS):         0 
cpu0_L1I AVERAGE MISS LATENCY: 22.3888 cycles
cpu0_ITLB TOTAL       ACCESS:   32897527  HIT:   30561894  MISS:    2335633  iACCESS:   32897527  iHIT:   30561894  iMISS:    2335633  dACCESS:          0  dHIT:          0  dMISS:          0  itACCESS:          0  itHIT:          0  itMISS:          0  dtACCESS:          0  dtHIT:          0  dtMISS:          0
cpu0_ITLB LOAD         ACCESS:   32897527  HIT:   30561894  MISS:    2335633  iACCESS:   32897527  iHIT:   30561894  iMISS:    2335633  dACCESS:          0  dHIT:          0  dMISS:          0  itACCESS:          0  itHIT:          0  itMISS:          0  dtACCESS:          0  dtHIT:          0  dtMISS:          0
cpu0_ITLB RFO          ACCESS:          0  HIT:          0  MISS:          0  iACCESS:          0  iHIT:          0  iMISS:          0  dACCESS:          0  dHIT:          0  dMISS:          0  itACCESS:          0  itHIT:          0  itMISS:          0  dtACCESS:          0  dtHIT:          0  dtMISS:          0
cpu0_ITLB PREFETCH     ACCESS:          0  HIT:          0  MISS:          0  iACCESS:          0  iHIT:          0  iMISS:          0  dACCESS:          0  dHIT:          0  dMISS:          0  itACCESS:          0  itHIT:          0  itMISS:          0  dtACCESS:          0  dtHIT:          0  dtMISS:          0
cpu0_ITLB WRITE        ACCESS:          0  HIT:          0  MISS:          0  iACCESS:          0  iHIT:          0  iMISS:          0  dACCESS:          0  dHIT:          0  dMISS:          0  itACCESS:          0  itHIT:          0  itMISS:          0  dtACCESS:          0  dtHIT:          0  dtMISS:          0
cpu0_ITLB TRANSLATION  ACCESS:          0  HIT:          0  MISS:          0  iACCESS:          0  iHIT:          0  iMISS:          0  dACCESS:          0  dHIT:          0  dMISS:          0  itACCESS:          0  itHIT:          0  itMISS:          0  dtACCESS:          0  dtHIT:          0  dtMISS:          0
cpu0_ITLB PREFETCH  REQUESTED:          0  ISSUED:          0  CROSSED:          0  USEFUL:     400677  USELESS:      86682
cpu0_ITLB AVERAGE iMISS LATENCY: 10.1535 cycles
cpu0_ITLB AVERAGE dMISS LATENCY: 0 cycles
cpu0_ITLB AVERAGE itMISS LATENCY: 0 cycles
cpu0_ITLB AVERAGE dtMISS LATENCY: 0 cycles
cpu0_ITLB PAGE CROSSINGS (TLB HIT):         0 
cpu0_ITLB PAGE CROSSINGS (TLB MISS):         0 
cpu0_ITLB AVERAGE MISS LATENCY: 10.1535 cycles
cpu0_DTLB TOTAL       ACCESS:   29180001  HIT:   25589339  MISS:    3590662  iACCESS:          0  iHIT:          0  iMISS:          0  dACCESS:   29180001  dHIT:   25589339  dMISS:    3590662  itACCESS:          0  itHIT:          0  itMISS:          0  dtACCESS:          0  dtHIT:          0  dtMISS:          0
cpu0_DTLB LOAD         ACCESS:   29180001  HIT:   25589339  MISS:    3590662  iACCESS:          0  iHIT:          0  iMISS:          0  dACCESS:   29180001  dHIT:   25589339  dMISS:    3590662  itACCESS:          0  itHIT:          0  itMISS:          0  dtACCESS:          0  dtHIT:          0  dtMISS:          0
cpu0_DTLB RFO          ACCESS:          0  HIT:          0  MISS:          0  iACCESS:          0  iHIT:          0  iMISS:          0  dACCESS:          0  dHIT:          0  dMISS:          0  itACCESS:          0  itHIT:          0  itMISS:          0  dtACCESS:          0  dtHIT:          0  dtMISS:          0
cpu0_DTLB PREFETCH     ACCESS:          0  HIT:          0  MISS:          0  iACCESS:          0  iHIT:          0  iMISS:          0  dACCESS:          0  dHIT:          0  dMISS:          0  itACCESS:          0  itHIT:          0  itMISS:          0  dtACCESS:          0  dtHIT:          0  dtMISS:          0
cpu0_DTLB WRITE        ACCESS:          0  HIT:          0  MISS:          0  iACCESS:          0  iHIT:          0  iMISS:          0  dACCESS:          0  dHIT:          0  dMISS:          0  itACCESS:          0  itHIT:          0  itMISS:          0  dtACCESS:          0  dtHIT:          0  dtMISS:          0
cpu0_DTLB TRANSLATION  ACCESS:          0  HIT:          0  MISS:          0  iACCESS:          0  iHIT:          0  iMISS:          0  dACCESS:          0  dHIT:          0  dMISS:          0  itACCESS:          0  itHIT:          0  itMISS:          0  dtACCESS:          0  dtHIT:          0  dtMISS:          0
cpu0_DTLB PREFETCH  REQUESTED:          0  ISSUED:          0  CROSSED:          0  USEFUL:          0  USELESS:          0
cpu0_DTLB AVERAGE iMISS LATENCY: 0 cycles
cpu0_DTLB AVERAGE dMISS LATENCY: 26.2774 cycles
cpu0_DTLB AVERAGE itMISS LATENCY: 0 cycles
cpu0_DTLB AVERAGE dtMISS LATENCY: 0 cycles
cpu0_DTLB PAGE CROSSINGS (TLB HIT):         0 
cpu0_DTLB PAGE CROSSINGS (TLB MISS):         0 
cpu0_DTLB AVERAGE MISS LATENCY: 26.2774 cycles
cpu0_STLB TOTAL       ACCESS:    2589215  HIT:    2202377  MISS:     386838  iACCESS:     487358  iHIT:     376756  iMISS:     110602  dACCESS:    2101857  dHIT:    1825621  dMISS:     276236  itACCESS:          0  itHIT:          0  itMISS:          0  dtACCESS:          0  dtHIT:          0  dtMISS:          0
cpu0_STLB LOAD         ACCESS:    2589215  HIT:    2202377  MISS:     386838  iACCESS:     487358  iHIT:     376756  iMISS:     110602  dACCESS:    2101857  dHIT:    1825621  dMISS:     276236  itACCESS:          0  itHIT:          0  itMISS:          0  dtACCESS:          0  dtHIT:          0  dtMISS:          0
cpu0_STLB RFO          ACCESS:          0  HIT:          0  MISS:          0  iACCESS:          0  iHIT:          0  iMISS:          0  dACCESS:          0  dHIT:          0  dMISS:          0  itACCESS:          0  itHIT:          0  itMISS:          0  dtACCESS:          0  dtHIT:          0  dtMISS:          0
cpu0_STLB PREFETCH     ACCESS:          0  HIT:          0  MISS:          0  iACCESS:          0  iHIT:          0  iMISS:          0  dACCESS:          0  dHIT:          0  dMISS:          0  itACCESS:          0  itHIT:          0  itMISS:          0  dtACCESS:          0  dtHIT:          0  dtMISS:          0
cpu0_STLB WRITE        ACCESS:          0  HIT:          0  MISS:          0  iACCESS:          0  iHIT:          0  iMISS:          0  dACCESS:          0  dHIT:          0  dMISS:          0  itACCESS:          0  itHIT:          0  itMISS:          0  dtACCESS:          0  dtHIT:          0  dtMISS:          0
cpu0_STLB TRANSLATION  ACCESS:          0  HIT:          0  MISS:          0  iACCESS:          0  iHIT:          0  iMISS:          0  dACCESS:          0  dHIT:          0  dMISS:          0  itACCESS:          0  itHIT:          0  itMISS:          0  dtACCESS:          0  dtHIT:          0  dtMISS:          0
cpu0_STLB PREFETCH  REQUESTED:          0  ISSUED:          0  CROSSED:          0  USEFUL:          0  USELESS:          0
cpu0_STLB AVERAGE iMISS LATENCY: 51.2484 cycles
cpu0_STLB AVERAGE dMISS LATENCY: 200.15 cycles
cpu0_STLB AVERAGE itMISS LATENCY: 0 cycles
cpu0_STLB AVERAGE dtMISS LATENCY: 0 cycles
cpu0_STLB PAGE CROSSINGS (TLB HIT):         0 
cpu0_STLB PAGE CROSSINGS (TLB MISS):         0 
cpu0_STLB AVERAGE MISS LATENCY: 251.399 cycles
cpu0_L1D TOTAL       ACCESS:   45828774  HIT:   39548801  MISS:    6279973  iACCESS:          0  iHIT:          0  iMISS:          0  dACCESS:   45249169  dHIT:   39517370  dMISS:    5731799  itACCESS:     125030  itHIT:      12041  itMISS:     112989  dtACCESS:     454575  dtHIT:      19390  dtMISS:     435185
cpu0_L1D LOAD         ACCESS:   20731239  HIT:   18139983  MISS:    2591256  iACCESS:          0  iHIT:          0  iMISS:          0  dACCESS:   20731239  dHIT:   18139983  dMISS:    2591256  itACCESS:          0  itHIT:          0  itMISS:          0  dtACCESS:          0  dtHIT:          0  dtMISS:          0
cpu0_L1D RFO          ACCESS:          0  HIT:          0  MISS:          0  iACCESS:          0  iHIT:          0  iMISS:          0  dACCESS:          0  dHIT:          0  dMISS:          0  itACCESS:          0  itHIT:          0  itMISS:          0  dtACCESS:          0  dtHIT:          0  dtMISS:          0
cpu0_L1D PREFETCH     ACCESS:   14397662  HIT:   11859223  MISS:    2538439  iACCESS:          0  iHIT:          0  iMISS:          0  dACCESS:   14397662  dHIT:   11859223  dMISS:    2538439  itACCESS:          0  itHIT:          0  itMISS:          0  dtACCESS:          0  dtHIT:          0  dtMISS:          0
cpu0_L1D WRITE        ACCESS:   10120268  HIT:    9518164  MISS:     602104  iACCESS:          0  iHIT:          0  iMISS:          0  dACCESS:   10120268  dHIT:    9518164  dMISS:     602104  itACCESS:          0  itHIT:          0  itMISS:          0  dtACCESS:          0  dtHIT:          0  dtMISS:          0
cpu0_L1D TRANSLATION  ACCESS:     579605  HIT:      31431  MISS:     548174  iACCESS:          0  iHIT:          0  iMISS:          0  dACCESS:          0  dHIT:          0  dMISS:          0  itACCESS:     125030  itHIT:      12041  itMISS:     112989  dtACCESS:     454575  dtHIT:      19390  dtMISS:     435185
cpu0_L1D PREFETCH  REQUESTED:   20731239  ISSUED:   18855399  CROSSED:          0  USEFUL:     379422  USELESS:     966977
cpu0_L1D AVERAGE iMISS LATENCY: 0 cycles
cpu0_L1D AVERAGE dMISS LATENCY: 48.4919 cycles
cpu0_L1D AVERAGE itMISS LATENCY: 2.98977 cycles
cpu0_L1D AVERAGE dtMISS LATENCY: 11.5701 cycles
cpu0_L1D PAGE CROSSINGS (TLB HIT):         0 
cpu0_L1D PAGE CROSSINGS (TLB MISS):         0 
cpu0_L1D AVERAGE MISS LATENCY: 63.0517 cycles
cpu0_L2C TOTAL       ACCESS:    8837464  HIT:    4353493  MISS:    4483971  iACCESS:    3880146  iHIT:    2404968  iMISS:    1475178  dACCESS:    4453927  dHIT:    1891414  dMISS:    2562513  itACCESS:     112520  itHIT:      17772  itMISS:      94748  dtACCESS:     390871  dtHIT:      39339  dtMISS:     351532
cpu0_L2C LOAD         ACCESS:    2154325  HIT:    1058844  MISS:    1095481  iACCESS:     885819  iHIT:     573591  iMISS:     312228  dACCESS:    1268506  dHIT:     485253  dMISS:     783253  itACCESS:          0  itHIT:          0  itMISS:          0  dtACCESS:          0  dtHIT:          0  dtMISS:          0
cpu0_L2C RFO          ACCESS:     227096  HIT:      90921  MISS:     136175  iACCESS:          0  iHIT:          0  iMISS:          0  dACCESS:     227096  dHIT:      90921  dMISS:     136175  itACCESS:          0  itHIT:          0  itMISS:          0  dtACCESS:          0  dtHIT:          0  dtMISS:          0
cpu0_L2C PREFETCH     ACCESS:    5600455  HIT:    2798126  MISS:    2802329  iACCESS:    2994327  iHIT:    1831377  iMISS:    1162950  dACCESS:    2606128  dHIT:     966749  dMISS:    1639379  itACCESS:          0  itHIT:          0  itMISS:          0  dtACCESS:          0  dtHIT:          0  dtMISS:          0
cpu0_L2C WRITE        ACCESS:     352197  HIT:     348491  MISS:       3706  iACCESS:          0  iHIT:          0  iMISS:          0  dACCESS:     352197  dHIT:     348491  dMISS:       3706  itACCESS:          0  itHIT:          0  itMISS:          0  dtACCESS:          0  dtHIT:          0  dtMISS:          0
cpu0_L2C TRANSLATION  ACCESS:     503391  HIT:      57111  MISS:     446280  iACCESS:          0  iHIT:          0  iMISS:          0  dACCESS:          0  dHIT:          0  dMISS:          0  itACCESS:     112520  itHIT:      17772  itMISS:      94748  dtACCESS:     390871  dtHIT:      39339  dtMISS:     351532
cpu0_L2C PREFETCH  REQUESTED:    1516932  ISSUED:    1516928  CROSSED:          0  USEFUL:     348854  USELESS:     309122
cpu0_L2C AVERAGE iMISS LATENCY: 37.0393 cycles
cpu0_L2C AVERAGE dMISS LATENCY: 81.0609 cycles
cpu0_L2C AVERAGE itMISS LATENCY: 3.93954 cycles
cpu0_L2C AVERAGE dtMISS LATENCY: 15.3361 cycles
cpu0_L2C PAGE CROSSINGS (TLB HIT):         0 
cpu0_L2C PAGE CROSSINGS (TLB MISS):         0 
cpu0_L2C AVERAGE MISS LATENCY: 137.376 cycles
LLC TOTAL       ACCESS:    4505275  HIT:    1458483  MISS:    3046792  iACCESS:    1397000  iHIT:     516739  iMISS:     880261  dACCESS:    2661995  dHIT:     901128  dMISS:    1760867  itACCESS:      94748  itHIT:       6478  itMISS:      88270  dtACCESS:     351532  dtHIT:      34138  dtMISS:     317394
LLC LOAD         ACCESS:    1086846  HIT:     354194  MISS:     732652  iACCESS:     310978  iHIT:     121688  iMISS:     189290  dACCESS:     775868  dHIT:     232506  dMISS:     543362  itACCESS:          0  itHIT:          0  itMISS:          0  dtACCESS:          0  dtHIT:          0  dtMISS:          0
LLC RFO          ACCESS:     136171  HIT:      41149  MISS:      95022  iACCESS:          0  iHIT:          0  iMISS:          0  dACCESS:     136171  dHIT:      41149  dMISS:      95022  itACCESS:          0  itHIT:          0  itMISS:          0  dtACCESS:          0  dtHIT:          0  dtMISS:          0
LLC PREFETCH     ACCESS:    2622315  HIT:     818787  MISS:    1803528  iACCESS:    1086022  iHIT:     395051  iMISS:     690971  dACCESS:    1536293  dHIT:     423736  dMISS:    1112557  itACCESS:          0  itHIT:          0  itMISS:          0  dtACCESS:          0  dtHIT:          0  dtMISS:          0
LLC WRITE        ACCESS:     213663  HIT:     203737  MISS:       9926  iACCESS:          0  iHIT:          0  iMISS:          0  dACCESS:     213663  dHIT:     203737  dMISS:       9926  itACCESS:          0  itHIT:          0  itMISS:          0  dtACCESS:          0  dtHIT:          0  dtMISS:          0
LLC TRANSLATION  ACCESS:     446280  HIT:      40616  MISS:     405664  iACCESS:          0  iHIT:          0  iMISS:          0  dACCESS:          0  dHIT:          0  dMISS:          0  itACCESS:      94748  itHIT:       6478  itMISS:      88270  dtACCESS:     351532  dtHIT:      34138  dtMISS:     317394
LLC PREFETCH  REQUESTED:          0  ISSUED:          0  CROSSED:          0  USEFUL:          0  USELESS:          0
LLC AVERAGE iMISS LATENCY: 45.4949 cycles
LLC AVERAGE dMISS LATENCY: 104.618 cycles
LLC AVERAGE itMISS LATENCY: 5.18089 cycles
LLC AVERAGE dtMISS LATENCY: 20.2881 cycles
LLC PAGE CROSSINGS (TLB HIT):         0 
LLC PAGE CROSSINGS (TLB MISS):         0 
LLC AVERAGE MISS LATENCY: 175.582 cycles

PageTableWalker TOTAL       ACCESS:     187404  
PageTableWalker AVERAGE LATENCY: 6.56132 cycles
PageTableWalker TOTAL LATENCY: 1229617 cycles

DRAM Statistics
Channel 0
 RQ ROW_BUFFER_HIT:     627180
  ROW_BUFFER_MISS:    2389553
 AVG DBUS CONGESTED CYCLE:    3.64587
 WQ ROW_BUFFER_HIT:      68266
  ROW_BUFFER_MISS:      55708  FULL:          0

