last_page:0x200000000000000
VMEM_RES_CAP:0x100000
PAGE_SIZE:4096
LOG2_PAGE_SIZE:12
LOG2_PAGE_TABLE_SIZE:9
page_table_levels:5
WARNING: physical memory size is smaller than virtual memory size
FDiP enabled with aggresivity 16

*** ChampSim Multicore Out-of-Order Simulator ***

Warmup Instructions: 50000000
Simulation Instructions: 100000000
Number of CPUs: 1
Small page size: 4096
Large page size: 2097152

CPU 0 Bimodal branch predictor
Basic BTB sets: 1024 ways: 8 indirect buffer size: 4096 RAS size: 64
Instruction page size distrubution: 0
Loading instruction page size distribution from /home/bsc/bsc018186/scratch/itp_asplos25_AE/dump/smt_srv85_ap_srv128_ap_1024i.pdst
Data page size distrubution: 0
Loading data page size distribution from /home/bsc/bsc018186/scratch/itp_asplos25_AE/dump/smt_srv85_ap_srv128_ap_1024i.pdst
cpu0_L2C IP-based stride prefetcher
cpu0_L1D next line prefetcher
cpu0_STLB using iTP with max lru@8
cpu0_STLB using iTP with instr@0 and data@2
Init sat counter with 3 bits (max:50).
cpu0_L1I next line prefetcher
Off-chip DRAM Size: 4 GiB Channels: 1 Width: 64-bit Data Rate: 3200 MT/s
Heartbeat CPU 0 instructions: 10000002 cycles: 2500444 heartbeat IPC: 3.9993 cumulative IPC: 3.9993 (Simulation time: 0 hr 0 min 57 sec) 
Heartbeat CPU 0 instructions: 20000000 cycles: 5078914 heartbeat IPC: 3.87827 cumulative IPC: 3.93785 (Simulation time: 0 hr 2 min 0 sec) 
Heartbeat CPU 0 instructions: 30000000 cycles: 7623117 heartbeat IPC: 3.93051 cumulative IPC: 3.9354 (Simulation time: 0 hr 3 min 7 sec) 
Heartbeat CPU 0 instructions: 40000002 cycles: 10162400 heartbeat IPC: 3.93813 cumulative IPC: 3.93608 (Simulation time: 0 hr 4 min 12 sec) 
Heartbeat CPU 0 instructions: 50000001 cycles: 12662688 heartbeat IPC: 3.99954 cumulative IPC: 3.94861 (Simulation time: 0 hr 5 min 14 sec) 
Warmup finished CPU 0 instructions: 50000001 cycles: 12662689 cumulative IPC: 3.94861 (Simulation time: 0 hr 5 min 14 sec) 

Warmup complete CPU 0 instructions: 50000001 cycles: 12662689 (Simulation time: 0 hr 5 min 14 sec) 

Heartbeat CPU 0 instructions: 60000000 cycles: 40495331 heartbeat IPC: 0.359291 cumulative IPC: 0.359291 (Simulation time: 0 hr 7 min 11 sec) 
Heartbeat CPU 0 instructions: 70000000 cycles: 68302879 heartbeat IPC: 0.359615 cumulative IPC: 0.359453 (Simulation time: 0 hr 9 min 7 sec) 
Heartbeat CPU 0 instructions: 80000002 cycles: 96866131 heartbeat IPC: 0.350101 cumulative IPC: 0.35628 (Simulation time: 0 hr 11 min 3 sec) 
Heartbeat CPU 0 instructions: 90000002 cycles: 124530232 heartbeat IPC: 0.36148 cumulative IPC: 0.357566 (Simulation time: 0 hr 12 min 57 sec) 
Heartbeat CPU 0 instructions: 100000000 cycles: 153226553 heartbeat IPC: 0.348477 cumulative IPC: 0.355711 (Simulation time: 0 hr 14 min 56 sec) 
Heartbeat CPU 0 instructions: 110000000 cycles: 181261629 heartbeat IPC: 0.356697 cumulative IPC: 0.355875 (Simulation time: 0 hr 16 min 51 sec) 
Heartbeat CPU 0 instructions: 120000000 cycles: 209970279 heartbeat IPC: 0.348328 cumulative IPC: 0.354777 (Simulation time: 0 hr 18 min 55 sec) 
Heartbeat CPU 0 instructions: 130000000 cycles: 238124495 heartbeat IPC: 0.355187 cumulative IPC: 0.354828 (Simulation time: 0 hr 20 min 51 sec) 
Heartbeat CPU 0 instructions: 140000003 cycles: 266351582 heartbeat IPC: 0.35427 cumulative IPC: 0.354766 (Simulation time: 0 hr 22 min 46 sec) 
Heartbeat CPU 0 instructions: 150000000 cycles: 295457538 heartbeat IPC: 0.343573 cumulative IPC: 0.353614 (Simulation time: 0 hr 24 min 43 sec) 
Simulation finished CPU 0 instructions: 100000004 cycles: 282794851 cumulative IPC: 0.353614 (Simulation time: 0 hr 24 min 43 sec) 

Simulation complete CPU 0 instructions: 100000004 cycles: 282794851 (Simulation time: 0 hr 24 min 43 sec) 


ChampSim completed all CPUs

Saving instructions large page distribution to /home/bsc/bsc018186/scratch/itp_asplos25_AE/dump/smt_srv85_ap_srv128_ap_1024i.pdst...
Saving data large page distribution to /home/bsc/bsc018186/scratch/itp_asplos25_AE/dump/smt_srv85_ap_srv128_ap_1024i.pdst...
=== Simulation ===
CPU 0 runs /gpfs/projects/bsc18/MN4/bsc18/romol/ChampSim/traces/qualcomm_srv/smt_srv85_ap_srv128_ap_1024i.champsimtrace.xz

Region of Interest Statistics

CPU 0 cumulative IPC: 0.353614 instructions: 100000004 cycles: 282794851
CPU 0 Branch Prediction Accuracy: 75.0492% MPKI: 44.9943 Average ROB Occupancy at Mispredict: 10.4997
Branch type MPKI
BRANCH_DIRECT_JUMP: 1.39321
BRANCH_INDIRECT: 23.3239
BRANCH_CONDITIONAL: 13.0686
BRANCH_DIRECT_CALL: 2.66733
BRANCH_INDIRECT_CALL: 1.0116
BRANCH_RETURN: 3.52962

Instructions large pages: 0
Instructions small pages: 10022
Large page distribution for instructions: 0%

Data large pages: 0
Data small pages: 8595
Large page distribution for data: 0%

cpu0_L1I TOTAL       ACCESS:   39610270  HIT:   30340057  MISS:    9270213  iACCESS:   39610270  iHIT:   30340057  iMISS:    9270213  dACCESS:          0  dHIT:          0  dMISS:          0  itACCESS:          0  itHIT:          0  itMISS:          0  dtACCESS:          0  dtHIT:          0  dtMISS:          0
cpu0_L1I LOAD         ACCESS:   11821350  HIT:    9304848  MISS:    2516502  iACCESS:   11821350  iHIT:    9304848  iMISS:    2516502  dACCESS:          0  dHIT:          0  dMISS:          0  itACCESS:          0  itHIT:          0  itMISS:          0  dtACCESS:          0  dtHIT:          0  dtMISS:          0
cpu0_L1I RFO          ACCESS:          0  HIT:          0  MISS:          0  iACCESS:          0  iHIT:          0  iMISS:          0  dACCESS:          0  dHIT:          0  dMISS:          0  itACCESS:          0  itHIT:          0  itMISS:          0  dtACCESS:          0  dtHIT:          0  dtMISS:          0
cpu0_L1I PREFETCH     ACCESS:   27788920  HIT:   21035209  MISS:    6753711  iACCESS:   27788920  iHIT:   21035209  iMISS:    6753711  dACCESS:          0  dHIT:          0  dMISS:          0  itACCESS:          0  itHIT:          0  itMISS:          0  dtACCESS:          0  dtHIT:          0  dtMISS:          0
cpu0_L1I WRITE        ACCESS:          0  HIT:          0  MISS:          0  iACCESS:          0  iHIT:          0  iMISS:          0  dACCESS:          0  dHIT:          0  dMISS:          0  itACCESS:          0  itHIT:          0  itMISS:          0  dtACCESS:          0  dtHIT:          0  dtMISS:          0
cpu0_L1I TRANSLATION  ACCESS:          0  HIT:          0  MISS:          0  iACCESS:          0  iHIT:          0  iMISS:          0  dACCESS:          0  dHIT:          0  dMISS:          0  itACCESS:          0  itHIT:          0  itMISS:          0  dtACCESS:          0  dtHIT:          0  dtMISS:          0
cpu0_L1I PREFETCH  REQUESTED:   30391454  ISSUED:   30389952  CROSSED:          0  USEFUL:    2227523  USELESS:     772521
cpu0_L1I AVERAGE iMISS LATENCY: 24.5193 cycles
cpu0_L1I AVERAGE dMISS LATENCY: 0 cycles
cpu0_L1I AVERAGE itMISS LATENCY: 0 cycles
cpu0_L1I AVERAGE dtMISS LATENCY: 0 cycles
cpu0_L1I PAGE CROSSINGS (TLB HIT):         0 
cpu0_L1I PAGE CROSSINGS (TLB MISS):         0 
cpu0_L1I AVERAGE MISS LATENCY: 24.5193 cycles
cpu0_ITLB TOTAL       ACCESS:   33345631  HIT:   31096386  MISS:    2249245  iACCESS:   33345631  iHIT:   31096386  iMISS:    2249245  dACCESS:          0  dHIT:          0  dMISS:          0  itACCESS:          0  itHIT:          0  itMISS:          0  dtACCESS:          0  dtHIT:          0  dtMISS:          0
cpu0_ITLB LOAD         ACCESS:   33345631  HIT:   31096386  MISS:    2249245  iACCESS:   33345631  iHIT:   31096386  iMISS:    2249245  dACCESS:          0  dHIT:          0  dMISS:          0  itACCESS:          0  itHIT:          0  itMISS:          0  dtACCESS:          0  dtHIT:          0  dtMISS:          0
cpu0_ITLB RFO          ACCESS:          0  HIT:          0  MISS:          0  iACCESS:          0  iHIT:          0  iMISS:          0  dACCESS:          0  dHIT:          0  dMISS:          0  itACCESS:          0  itHIT:          0  itMISS:          0  dtACCESS:          0  dtHIT:          0  dtMISS:          0
cpu0_ITLB PREFETCH     ACCESS:          0  HIT:          0  MISS:          0  iACCESS:          0  iHIT:          0  iMISS:          0  dACCESS:          0  dHIT:          0  dMISS:          0  itACCESS:          0  itHIT:          0  itMISS:          0  dtACCESS:          0  dtHIT:          0  dtMISS:          0
cpu0_ITLB WRITE        ACCESS:          0  HIT:          0  MISS:          0  iACCESS:          0  iHIT:          0  iMISS:          0  dACCESS:          0  dHIT:          0  dMISS:          0  itACCESS:          0  itHIT:          0  itMISS:          0  dtACCESS:          0  dtHIT:          0  dtMISS:          0
cpu0_ITLB TRANSLATION  ACCESS:          0  HIT:          0  MISS:          0  iACCESS:          0  iHIT:          0  iMISS:          0  dACCESS:          0  dHIT:          0  dMISS:          0  itACCESS:          0  itHIT:          0  itMISS:          0  dtACCESS:          0  dtHIT:          0  dtMISS:          0
cpu0_ITLB PREFETCH  REQUESTED:          0  ISSUED:          0  CROSSED:          0  USEFUL:     393726  USELESS:      80836
cpu0_ITLB AVERAGE iMISS LATENCY: 5.85697 cycles
cpu0_ITLB AVERAGE dMISS LATENCY: 0 cycles
cpu0_ITLB AVERAGE itMISS LATENCY: 0 cycles
cpu0_ITLB AVERAGE dtMISS LATENCY: 0 cycles
cpu0_ITLB PAGE CROSSINGS (TLB HIT):         0 
cpu0_ITLB PAGE CROSSINGS (TLB MISS):         0 
cpu0_ITLB AVERAGE MISS LATENCY: 5.85697 cycles
cpu0_DTLB TOTAL       ACCESS:   28898398  HIT:   25295041  MISS:    3603357  iACCESS:          0  iHIT:          0  iMISS:          0  dACCESS:   28898398  dHIT:   25295041  dMISS:    3603357  itACCESS:          0  itHIT:          0  itMISS:          0  dtACCESS:          0  dtHIT:          0  dtMISS:          0
cpu0_DTLB LOAD         ACCESS:   28898398  HIT:   25295041  MISS:    3603357  iACCESS:          0  iHIT:          0  iMISS:          0  dACCESS:   28898398  dHIT:   25295041  dMISS:    3603357  itACCESS:          0  itHIT:          0  itMISS:          0  dtACCESS:          0  dtHIT:          0  dtMISS:          0
cpu0_DTLB RFO          ACCESS:          0  HIT:          0  MISS:          0  iACCESS:          0  iHIT:          0  iMISS:          0  dACCESS:          0  dHIT:          0  dMISS:          0  itACCESS:          0  itHIT:          0  itMISS:          0  dtACCESS:          0  dtHIT:          0  dtMISS:          0
cpu0_DTLB PREFETCH     ACCESS:          0  HIT:          0  MISS:          0  iACCESS:          0  iHIT:          0  iMISS:          0  dACCESS:          0  dHIT:          0  dMISS:          0  itACCESS:          0  itHIT:          0  itMISS:          0  dtACCESS:          0  dtHIT:          0  dtMISS:          0
cpu0_DTLB WRITE        ACCESS:          0  HIT:          0  MISS:          0  iACCESS:          0  iHIT:          0  iMISS:          0  dACCESS:          0  dHIT:          0  dMISS:          0  itACCESS:          0  itHIT:          0  itMISS:          0  dtACCESS:          0  dtHIT:          0  dtMISS:          0
cpu0_DTLB TRANSLATION  ACCESS:          0  HIT:          0  MISS:          0  iACCESS:          0  iHIT:          0  iMISS:          0  dACCESS:          0  dHIT:          0  dMISS:          0  itACCESS:          0  itHIT:          0  itMISS:          0  dtACCESS:          0  dtHIT:          0  dtMISS:          0
cpu0_DTLB PREFETCH  REQUESTED:          0  ISSUED:          0  CROSSED:          0  USEFUL:          0  USELESS:          0
cpu0_DTLB AVERAGE iMISS LATENCY: 0 cycles
cpu0_DTLB AVERAGE dMISS LATENCY: 19.4438 cycles
cpu0_DTLB AVERAGE itMISS LATENCY: 0 cycles
cpu0_DTLB AVERAGE dtMISS LATENCY: 0 cycles
cpu0_DTLB PAGE CROSSINGS (TLB HIT):         0 
cpu0_DTLB PAGE CROSSINGS (TLB MISS):         0 
cpu0_DTLB AVERAGE MISS LATENCY: 19.4438 cycles
cpu0_STLB TOTAL       ACCESS:    2591738  HIT:    2210988  MISS:     380750  iACCESS:     474574  iHIT:     413449  iMISS:      61125  dACCESS:    2117164  dHIT:    1797539  dMISS:     319625  itACCESS:          0  itHIT:          0  itMISS:          0  dtACCESS:          0  dtHIT:          0  dtMISS:          0
cpu0_STLB LOAD         ACCESS:    2591738  HIT:    2210988  MISS:     380750  iACCESS:     474574  iHIT:     413449  iMISS:      61125  dACCESS:    2117164  dHIT:    1797539  dMISS:     319625  itACCESS:          0  itHIT:          0  itMISS:          0  dtACCESS:          0  dtHIT:          0  dtMISS:          0
cpu0_STLB RFO          ACCESS:          0  HIT:          0  MISS:          0  iACCESS:          0  iHIT:          0  iMISS:          0  dACCESS:          0  dHIT:          0  dMISS:          0  itACCESS:          0  itHIT:          0  itMISS:          0  dtACCESS:          0  dtHIT:          0  dtMISS:          0
cpu0_STLB PREFETCH     ACCESS:          0  HIT:          0  MISS:          0  iACCESS:          0  iHIT:          0  iMISS:          0  dACCESS:          0  dHIT:          0  dMISS:          0  itACCESS:          0  itHIT:          0  itMISS:          0  dtACCESS:          0  dtHIT:          0  dtMISS:          0
cpu0_STLB WRITE        ACCESS:          0  HIT:          0  MISS:          0  iACCESS:          0  iHIT:          0  iMISS:          0  dACCESS:          0  dHIT:          0  dMISS:          0  itACCESS:          0  itHIT:          0  itMISS:          0  dtACCESS:          0  dtHIT:          0  dtMISS:          0
cpu0_STLB TRANSLATION  ACCESS:          0  HIT:          0  MISS:          0  iACCESS:          0  iHIT:          0  iMISS:          0  dACCESS:          0  dHIT:          0  dMISS:          0  itACCESS:          0  itHIT:          0  itMISS:          0  dtACCESS:          0  dtHIT:          0  dtMISS:          0
cpu0_STLB PREFETCH  REQUESTED:          0  ISSUED:          0  CROSSED:          0  USEFUL:          0  USELESS:          0
cpu0_STLB AVERAGE iMISS LATENCY: 24.7971 cycles
cpu0_STLB AVERAGE dMISS LATENCY: 139.191 cycles
cpu0_STLB AVERAGE itMISS LATENCY: 0 cycles
cpu0_STLB AVERAGE dtMISS LATENCY: 0 cycles
cpu0_STLB PAGE CROSSINGS (TLB HIT):         0 
cpu0_STLB PAGE CROSSINGS (TLB MISS):         0 
cpu0_STLB AVERAGE MISS LATENCY: 163.988 cycles
cpu0_L1D TOTAL       ACCESS:   45256341  HIT:   39237683  MISS:    6018658  iACCESS:          0  iHIT:          0  iMISS:          0  dACCESS:   44668940  dHIT:   39209043  dMISS:    5459897  itACCESS:      71563  itHIT:       5297  itMISS:      66266  dtACCESS:     515838  dtHIT:      23343  dtMISS:     492495
cpu0_L1D LOAD         ACCESS:   20366744  HIT:   17914489  MISS:    2452255  iACCESS:          0  iHIT:          0  iMISS:          0  dACCESS:   20366744  dHIT:   17914489  dMISS:    2452255  itACCESS:          0  itHIT:          0  itMISS:          0  dtACCESS:          0  dtHIT:          0  dtMISS:          0
cpu0_L1D RFO          ACCESS:          0  HIT:          0  MISS:          0  iACCESS:          0  iHIT:          0  iMISS:          0  dACCESS:          0  dHIT:          0  dMISS:          0  itACCESS:          0  itHIT:          0  itMISS:          0  dtACCESS:          0  dtHIT:          0  dtMISS:          0
cpu0_L1D PREFETCH     ACCESS:   14131252  HIT:   11719307  MISS:    2411945  iACCESS:          0  iHIT:          0  iMISS:          0  dACCESS:   14131252  dHIT:   11719307  dMISS:    2411945  itACCESS:          0  itHIT:          0  itMISS:          0  dtACCESS:          0  dtHIT:          0  dtMISS:          0
cpu0_L1D WRITE        ACCESS:   10170944  HIT:    9575247  MISS:     595697  iACCESS:          0  iHIT:          0  iMISS:          0  dACCESS:   10170944  dHIT:    9575247  dMISS:     595697  itACCESS:          0  itHIT:          0  itMISS:          0  dtACCESS:          0  dtHIT:          0  dtMISS:          0
cpu0_L1D TRANSLATION  ACCESS:     587401  HIT:      28640  MISS:     558761  iACCESS:          0  iHIT:          0  iMISS:          0  dACCESS:          0  dHIT:          0  dMISS:          0  itACCESS:      71563  itHIT:       5297  itMISS:      66266  dtACCESS:     515838  dtHIT:      23343  dtMISS:     492495
cpu0_L1D PREFETCH  REQUESTED:   20366744  ISSUED:   18544349  CROSSED:          0  USEFUL:     360117  USELESS:     940579
cpu0_L1D AVERAGE iMISS LATENCY: 0 cycles
cpu0_L1D AVERAGE dMISS LATENCY: 49.2949 cycles
cpu0_L1D AVERAGE itMISS LATENCY: 1.46482 cycles
cpu0_L1D AVERAGE dtMISS LATENCY: 7.95352 cycles
cpu0_L1D PAGE CROSSINGS (TLB HIT):         0 
cpu0_L1D PAGE CROSSINGS (TLB MISS):         0 
cpu0_L1D AVERAGE MISS LATENCY: 58.7132 cycles
cpu0_L2C TOTAL       ACCESS:    8718066  HIT:    1573481  MISS:    7144585  iACCESS:    3811416  iHIT:     813177  iMISS:    2998239  dACCESS:    4384307  dHIT:     557915  dMISS:    3826392  itACCESS:      65715  itHIT:      16253  itMISS:      49462  dtACCESS:     456628  dtHIT:     186136  dtMISS:     270492
cpu0_L2C LOAD         ACCESS:    2069568  HIT:     218210  MISS:    1851358  iACCESS:     847656  iHIT:     118800  iMISS:     728856  dACCESS:    1221912  dHIT:      99410  dMISS:    1122502  itACCESS:          0  itHIT:          0  itMISS:          0  dtACCESS:          0  dtHIT:          0  dtMISS:          0
cpu0_L2C RFO          ACCESS:     217469  HIT:      31386  MISS:     186083  iACCESS:          0  iHIT:          0  iMISS:          0  dACCESS:     217469  dHIT:      31386  dMISS:     186083  itACCESS:          0  itHIT:          0  itMISS:          0  dtACCESS:          0  dtHIT:          0  dtMISS:          0
cpu0_L2C PREFETCH     ACCESS:    5562890  HIT:    1014116  MISS:    4548774  iACCESS:    2963760  iHIT:     694377  iMISS:    2269383  dACCESS:    2599130  dHIT:     319739  dMISS:    2279391  itACCESS:          0  itHIT:          0  itMISS:          0  dtACCESS:          0  dtHIT:          0  dtMISS:          0
cpu0_L2C WRITE        ACCESS:     345796  HIT:     107380  MISS:     238416  iACCESS:          0  iHIT:          0  iMISS:          0  dACCESS:     345796  dHIT:     107380  dMISS:     238416  itACCESS:          0  itHIT:          0  itMISS:          0  dtACCESS:          0  dtHIT:          0  dtMISS:          0
cpu0_L2C TRANSLATION  ACCESS:     522343  HIT:     202389  MISS:     319954  iACCESS:          0  iHIT:          0  iMISS:          0  dACCESS:          0  dHIT:          0  dMISS:          0  itACCESS:      65715  itHIT:      16253  itMISS:      49462  dtACCESS:     456628  dtHIT:     186136  dtMISS:     270492
cpu0_L2C PREFETCH  REQUESTED:    1541312  ISSUED:    1541310  CROSSED:          0  USEFUL:     414653  USELESS:     491556
cpu0_L2C AVERAGE iMISS LATENCY: 27.3009 cycles
cpu0_L2C AVERAGE dMISS LATENCY: 51.2403 cycles
cpu0_L2C AVERAGE itMISS LATENCY: 1.14399 cycles
cpu0_L2C AVERAGE dtMISS LATENCY: 6.08414 cycles
cpu0_L2C PAGE CROSSINGS (TLB HIT):         0 
cpu0_L2C PAGE CROSSINGS (TLB MISS):         0 
cpu0_L2C AVERAGE MISS LATENCY: 85.7693 cycles
LLC TOTAL       ACCESS:    6950932  HIT:    4143586  MISS:    2807346  iACCESS:    2905415  iHIT:    2028841  iMISS:     876574  dACCESS:    3725563  dHIT:    2036407  dMISS:    1689156  itACCESS:      49462  itHIT:       9068  itMISS:      40394  dtACCESS:     270492  dtHIT:      69270  dtMISS:     201222
LLC LOAD         ACCESS:    1843343  HIT:    1166829  MISS:     676514  iACCESS:     727448  iHIT:     542531  iMISS:     184917  dACCESS:    1115895  dHIT:     624298  dMISS:     491597  itACCESS:          0  itHIT:          0  itMISS:          0  dtACCESS:          0  dtHIT:          0  dtMISS:          0
LLC RFO          ACCESS:     186070  HIT:      93449  MISS:      92621  iACCESS:          0  iHIT:          0  iMISS:          0  dACCESS:     186070  dHIT:      93449  dMISS:      92621  itACCESS:          0  itHIT:          0  itMISS:          0  dtACCESS:          0  dtHIT:          0  dtMISS:          0
LLC PREFETCH     ACCESS:    4330150  HIT:    2541963  MISS:    1788187  iACCESS:    2177967  iHIT:    1486310  iMISS:     691657  dACCESS:    2152183  dHIT:    1055653  dMISS:    1096530  itACCESS:          0  itHIT:          0  itMISS:          0  dtACCESS:          0  dtHIT:          0  dtMISS:          0
LLC WRITE        ACCESS:     271415  HIT:     263007  MISS:       8408  iACCESS:          0  iHIT:          0  iMISS:          0  dACCESS:     271415  dHIT:     263007  dMISS:       8408  itACCESS:          0  itHIT:          0  itMISS:          0  dtACCESS:          0  dtHIT:          0  dtMISS:          0
LLC TRANSLATION  ACCESS:     319954  HIT:      78338  MISS:     241616  iACCESS:          0  iHIT:          0  iMISS:          0  dACCESS:          0  dHIT:          0  dMISS:          0  itACCESS:      49462  itHIT:       9068  itMISS:      40394  dtACCESS:     270492  dtHIT:      69270  dtMISS:     201222
LLC PREFETCH  REQUESTED:          0  ISSUED:          0  CROSSED:          0  USEFUL:          0  USELESS:          0
LLC AVERAGE iMISS LATENCY: 49.3748 cycles
LLC AVERAGE dMISS LATENCY: 107.508 cycles
LLC AVERAGE itMISS LATENCY: 2.56353 cycles
LLC AVERAGE dtMISS LATENCY: 13.5875 cycles
LLC PAGE CROSSINGS (TLB HIT):         0 
LLC PAGE CROSSINGS (TLB MISS):         0 
LLC AVERAGE MISS LATENCY: 173.034 cycles

PageTableWalker TOTAL       ACCESS:     139982  
PageTableWalker AVERAGE LATENCY: 6.24014 cycles
PageTableWalker TOTAL LATENCY: 873507 cycles

DRAM Statistics
Channel 0
 RQ ROW_BUFFER_HIT:     613606
  ROW_BUFFER_MISS:    2165565
 AVG DBUS CONGESTED CYCLE:    3.65501
 WQ ROW_BUFFER_HIT:      67842
  ROW_BUFFER_MISS:      64131  FULL:          0

