last_page:0x200000000000000
VMEM_RES_CAP:0x100000
PAGE_SIZE:4096
LOG2_PAGE_SIZE:12
LOG2_PAGE_TABLE_SIZE:9
page_table_levels:5
WARNING: physical memory size is smaller than virtual memory size
FDiP enabled with aggresivity 16

*** ChampSim Multicore Out-of-Order Simulator ***

Warmup Instructions: 50000000
Simulation Instructions: 100000000
Number of CPUs: 1
Small page size: 4096
Large page size: 2097152

CPU 0 Bimodal branch predictor
Basic BTB sets: 1024 ways: 8 indirect buffer size: 4096 RAS size: 64
Instruction page size distrubution: 0
Loading instruction page size distribution from /home/bsc/bsc018186/scratch/itp_asplos25_AE/dump/smt_srv207_ap_srv224_ap_1024i.pdst
Data page size distrubution: 0
Loading data page size distribution from /home/bsc/bsc018186/scratch/itp_asplos25_AE/dump/smt_srv207_ap_srv224_ap_1024i.pdst
cpu0_L2C IP-based stride prefetcher
cpu0_L1D next line prefetcher
cpu0_STLB using iTP with max lru@8
cpu0_STLB using iTP with instr@0 and data@2
Init sat counter with 3 bits (max:50).
cpu0_L1I next line prefetcher
Off-chip DRAM Size: 4 GiB Channels: 1 Width: 64-bit Data Rate: 3200 MT/s
Heartbeat CPU 0 instructions: 10000000 cycles: 2500476 heartbeat IPC: 3.99924 cumulative IPC: 3.99924 (Simulation time: 0 hr 0 min 36 sec) 
Heartbeat CPU 0 instructions: 20000001 cycles: 5000716 heartbeat IPC: 3.99962 cumulative IPC: 3.99943 (Simulation time: 0 hr 1 min 13 sec) 
Heartbeat CPU 0 instructions: 30000003 cycles: 7500879 heartbeat IPC: 3.99975 cumulative IPC: 3.99954 (Simulation time: 0 hr 1 min 51 sec) 
Heartbeat CPU 0 instructions: 40000003 cycles: 10046409 heartbeat IPC: 3.92846 cumulative IPC: 3.98153 (Simulation time: 0 hr 2 min 30 sec) 
Heartbeat CPU 0 instructions: 50000002 cycles: 12607374 heartbeat IPC: 3.90478 cumulative IPC: 3.96594 (Simulation time: 0 hr 3 min 10 sec) 
Warmup finished CPU 0 instructions: 50000002 cycles: 12607375 cumulative IPC: 3.96594 (Simulation time: 0 hr 3 min 10 sec) 

Warmup complete CPU 0 instructions: 50000002 cycles: 12607375 (Simulation time: 0 hr 3 min 10 sec) 

Heartbeat CPU 0 instructions: 60000002 cycles: 29073099 heartbeat IPC: 0.607323 cumulative IPC: 0.607323 (Simulation time: 0 hr 4 min 15 sec) 
Heartbeat CPU 0 instructions: 70000003 cycles: 58625394 heartbeat IPC: 0.338384 cumulative IPC: 0.434613 (Simulation time: 0 hr 5 min 35 sec) 
Heartbeat CPU 0 instructions: 80000003 cycles: 88629511 heartbeat IPC: 0.333288 cumulative IPC: 0.394622 (Simulation time: 0 hr 6 min 56 sec) 
Heartbeat CPU 0 instructions: 90000003 cycles: 119920208 heartbeat IPC: 0.319584 cumulative IPC: 0.372743 (Simulation time: 0 hr 8 min 27 sec) 
Heartbeat CPU 0 instructions: 100000000 cycles: 149414559 heartbeat IPC: 0.339048 cumulative IPC: 0.365478 (Simulation time: 0 hr 9 min 47 sec) 
Heartbeat CPU 0 instructions: 110000002 cycles: 179235660 heartbeat IPC: 0.335334 cumulative IPC: 0.360083 (Simulation time: 0 hr 11 min 8 sec) 
Heartbeat CPU 0 instructions: 120000000 cycles: 208845990 heartbeat IPC: 0.33772 cumulative IPC: 0.356709 (Simulation time: 0 hr 12 min 29 sec) 
Heartbeat CPU 0 instructions: 130000000 cycles: 238413622 heartbeat IPC: 0.338208 cumulative IPC: 0.354287 (Simulation time: 0 hr 13 min 49 sec) 
Heartbeat CPU 0 instructions: 140000002 cycles: 269699780 heartbeat IPC: 0.319631 cumulative IPC: 0.350069 (Simulation time: 0 hr 15 min 12 sec) 
Heartbeat CPU 0 instructions: 150000004 cycles: 299438426 heartbeat IPC: 0.336263 cumulative IPC: 0.348638 (Simulation time: 0 hr 16 min 33 sec) 
Simulation finished CPU 0 instructions: 100000002 cycles: 286831052 cumulative IPC: 0.348638 (Simulation time: 0 hr 16 min 33 sec) 

Simulation complete CPU 0 instructions: 100000002 cycles: 286831052 (Simulation time: 0 hr 16 min 33 sec) 


ChampSim completed all CPUs

Saving instructions large page distribution to /home/bsc/bsc018186/scratch/itp_asplos25_AE/dump/smt_srv207_ap_srv224_ap_1024i.pdst...
Saving data large page distribution to /home/bsc/bsc018186/scratch/itp_asplos25_AE/dump/smt_srv207_ap_srv224_ap_1024i.pdst...
=== Simulation ===
CPU 0 runs /gpfs/projects/bsc18/MN4/bsc18/romol/ChampSim/traces/qualcomm_srv/smt_srv207_ap_srv224_ap_1024i.champsimtrace.xz

Region of Interest Statistics

CPU 0 cumulative IPC: 0.348638 instructions: 100000002 cycles: 286831052
CPU 0 Branch Prediction Accuracy: 76.4132% MPKI: 43.7208 Average ROB Occupancy at Mispredict: 11.6107
Branch type MPKI
BRANCH_DIRECT_JUMP: 1.30138
BRANCH_INDIRECT: 23.3363
BRANCH_CONDITIONAL: 12.26
BRANCH_DIRECT_CALL: 2.41582
BRANCH_INDIRECT_CALL: 1.0244
BRANCH_RETURN: 3.38293

Instructions large pages: 0
Instructions small pages: 15027
Large page distribution for instructions: 0%

Data large pages: 0
Data small pages: 13570
Large page distribution for data: 0%

cpu0_L1I TOTAL       ACCESS:   39361325  HIT:   31229052  MISS:    8132273  iACCESS:   39361325  iHIT:   31229052  iMISS:    8132273  dACCESS:          0  dHIT:          0  dMISS:          0  itACCESS:          0  itHIT:          0  itMISS:          0  dtACCESS:          0  dtHIT:          0  dtMISS:          0
cpu0_L1I LOAD         ACCESS:   11478515  HIT:    9257141  MISS:    2221374  iACCESS:   11478515  iHIT:    9257141  iMISS:    2221374  dACCESS:          0  dHIT:          0  dMISS:          0  itACCESS:          0  itHIT:          0  itMISS:          0  dtACCESS:          0  dtHIT:          0  dtMISS:          0
cpu0_L1I RFO          ACCESS:          0  HIT:          0  MISS:          0  iACCESS:          0  iHIT:          0  iMISS:          0  dACCESS:          0  dHIT:          0  dMISS:          0  itACCESS:          0  itHIT:          0  itMISS:          0  dtACCESS:          0  dtHIT:          0  dtMISS:          0
cpu0_L1I PREFETCH     ACCESS:   27882810  HIT:   21971911  MISS:    5910899  iACCESS:   27882810  iHIT:   21971911  iMISS:    5910899  dACCESS:          0  dHIT:          0  dMISS:          0  itACCESS:          0  itHIT:          0  itMISS:          0  dtACCESS:          0  dtHIT:          0  dtMISS:          0
cpu0_L1I WRITE        ACCESS:          0  HIT:          0  MISS:          0  iACCESS:          0  iHIT:          0  iMISS:          0  dACCESS:          0  dHIT:          0  dMISS:          0  itACCESS:          0  itHIT:          0  itMISS:          0  dtACCESS:          0  dtHIT:          0  dtMISS:          0
cpu0_L1I TRANSLATION  ACCESS:          0  HIT:          0  MISS:          0  iACCESS:          0  iHIT:          0  iMISS:          0  dACCESS:          0  dHIT:          0  dMISS:          0  itACCESS:          0  itHIT:          0  itMISS:          0  dtACCESS:          0  dtHIT:          0  dtMISS:          0
cpu0_L1I PREFETCH  REQUESTED:   30603263  ISSUED:   30603045  CROSSED:          0  USEFUL:    2057860  USELESS:     730718
cpu0_L1I AVERAGE iMISS LATENCY: 24.272 cycles
cpu0_L1I AVERAGE dMISS LATENCY: 0 cycles
cpu0_L1I AVERAGE itMISS LATENCY: 0 cycles
cpu0_L1I AVERAGE dtMISS LATENCY: 0 cycles
cpu0_L1I PAGE CROSSINGS (TLB HIT):         0 
cpu0_L1I PAGE CROSSINGS (TLB MISS):         0 
cpu0_L1I AVERAGE MISS LATENCY: 24.272 cycles
cpu0_ITLB TOTAL       ACCESS:   33223274  HIT:   31124426  MISS:    2098848  iACCESS:   33223274  iHIT:   31124426  iMISS:    2098848  dACCESS:          0  dHIT:          0  dMISS:          0  itACCESS:          0  itHIT:          0  itMISS:          0  dtACCESS:          0  dtHIT:          0  dtMISS:          0
cpu0_ITLB LOAD         ACCESS:   33223274  HIT:   31124426  MISS:    2098848  iACCESS:   33223274  iHIT:   31124426  iMISS:    2098848  dACCESS:          0  dHIT:          0  dMISS:          0  itACCESS:          0  itHIT:          0  itMISS:          0  dtACCESS:          0  dtHIT:          0  dtMISS:          0
cpu0_ITLB RFO          ACCESS:          0  HIT:          0  MISS:          0  iACCESS:          0  iHIT:          0  iMISS:          0  dACCESS:          0  dHIT:          0  dMISS:          0  itACCESS:          0  itHIT:          0  itMISS:          0  dtACCESS:          0  dtHIT:          0  dtMISS:          0
cpu0_ITLB PREFETCH     ACCESS:          0  HIT:          0  MISS:          0  iACCESS:          0  iHIT:          0  iMISS:          0  dACCESS:          0  dHIT:          0  dMISS:          0  itACCESS:          0  itHIT:          0  itMISS:          0  dtACCESS:          0  dtHIT:          0  dtMISS:          0
cpu0_ITLB WRITE        ACCESS:          0  HIT:          0  MISS:          0  iACCESS:          0  iHIT:          0  iMISS:          0  dACCESS:          0  dHIT:          0  dMISS:          0  itACCESS:          0  itHIT:          0  itMISS:          0  dtACCESS:          0  dtHIT:          0  dtMISS:          0
cpu0_ITLB TRANSLATION  ACCESS:          0  HIT:          0  MISS:          0  iACCESS:          0  iHIT:          0  iMISS:          0  dACCESS:          0  dHIT:          0  dMISS:          0  itACCESS:          0  itHIT:          0  itMISS:          0  dtACCESS:          0  dtHIT:          0  dtMISS:          0
cpu0_ITLB PREFETCH  REQUESTED:          0  ISSUED:          0  CROSSED:          0  USEFUL:     367721  USELESS:      77572
cpu0_ITLB AVERAGE iMISS LATENCY: 6.69474 cycles
cpu0_ITLB AVERAGE dMISS LATENCY: 0 cycles
cpu0_ITLB AVERAGE itMISS LATENCY: 0 cycles
cpu0_ITLB AVERAGE dtMISS LATENCY: 0 cycles
cpu0_ITLB PAGE CROSSINGS (TLB HIT):         0 
cpu0_ITLB PAGE CROSSINGS (TLB MISS):         0 
cpu0_ITLB AVERAGE MISS LATENCY: 6.69474 cycles
cpu0_DTLB TOTAL       ACCESS:   30001149  HIT:   25304142  MISS:    4697007  iACCESS:          0  iHIT:          0  iMISS:          0  dACCESS:   30001149  dHIT:   25304142  dMISS:    4697007  itACCESS:          0  itHIT:          0  itMISS:          0  dtACCESS:          0  dtHIT:          0  dtMISS:          0
cpu0_DTLB LOAD         ACCESS:   30001149  HIT:   25304142  MISS:    4697007  iACCESS:          0  iHIT:          0  iMISS:          0  dACCESS:   30001149  dHIT:   25304142  dMISS:    4697007  itACCESS:          0  itHIT:          0  itMISS:          0  dtACCESS:          0  dtHIT:          0  dtMISS:          0
cpu0_DTLB RFO          ACCESS:          0  HIT:          0  MISS:          0  iACCESS:          0  iHIT:          0  iMISS:          0  dACCESS:          0  dHIT:          0  dMISS:          0  itACCESS:          0  itHIT:          0  itMISS:          0  dtACCESS:          0  dtHIT:          0  dtMISS:          0
cpu0_DTLB PREFETCH     ACCESS:          0  HIT:          0  MISS:          0  iACCESS:          0  iHIT:          0  iMISS:          0  dACCESS:          0  dHIT:          0  dMISS:          0  itACCESS:          0  itHIT:          0  itMISS:          0  dtACCESS:          0  dtHIT:          0  dtMISS:          0
cpu0_DTLB WRITE        ACCESS:          0  HIT:          0  MISS:          0  iACCESS:          0  iHIT:          0  iMISS:          0  dACCESS:          0  dHIT:          0  dMISS:          0  itACCESS:          0  itHIT:          0  itMISS:          0  dtACCESS:          0  dtHIT:          0  dtMISS:          0
cpu0_DTLB TRANSLATION  ACCESS:          0  HIT:          0  MISS:          0  iACCESS:          0  iHIT:          0  iMISS:          0  dACCESS:          0  dHIT:          0  dMISS:          0  itACCESS:          0  itHIT:          0  itMISS:          0  dtACCESS:          0  dtHIT:          0  dtMISS:          0
cpu0_DTLB PREFETCH  REQUESTED:          0  ISSUED:          0  CROSSED:          0  USEFUL:          0  USELESS:          0
cpu0_DTLB AVERAGE iMISS LATENCY: 0 cycles
cpu0_DTLB AVERAGE dMISS LATENCY: 21.1312 cycles
cpu0_DTLB AVERAGE itMISS LATENCY: 0 cycles
cpu0_DTLB AVERAGE dtMISS LATENCY: 0 cycles
cpu0_DTLB PAGE CROSSINGS (TLB HIT):         0 
cpu0_DTLB PAGE CROSSINGS (TLB MISS):         0 
cpu0_DTLB AVERAGE MISS LATENCY: 21.1312 cycles
cpu0_STLB TOTAL       ACCESS:    3028195  HIT:    2676109  MISS:     352086  iACCESS:     445304  iHIT:     389318  iMISS:      55986  dACCESS:    2582891  dHIT:    2286791  dMISS:     296100  itACCESS:          0  itHIT:          0  itMISS:          0  dtACCESS:          0  dtHIT:          0  dtMISS:          0
cpu0_STLB LOAD         ACCESS:    3028195  HIT:    2676109  MISS:     352086  iACCESS:     445304  iHIT:     389318  iMISS:      55986  dACCESS:    2582891  dHIT:    2286791  dMISS:     296100  itACCESS:          0  itHIT:          0  itMISS:          0  dtACCESS:          0  dtHIT:          0  dtMISS:          0
cpu0_STLB RFO          ACCESS:          0  HIT:          0  MISS:          0  iACCESS:          0  iHIT:          0  iMISS:          0  dACCESS:          0  dHIT:          0  dMISS:          0  itACCESS:          0  itHIT:          0  itMISS:          0  dtACCESS:          0  dtHIT:          0  dtMISS:          0
cpu0_STLB PREFETCH     ACCESS:          0  HIT:          0  MISS:          0  iACCESS:          0  iHIT:          0  iMISS:          0  dACCESS:          0  dHIT:          0  dMISS:          0  itACCESS:          0  itHIT:          0  itMISS:          0  dtACCESS:          0  dtHIT:          0  dtMISS:          0
cpu0_STLB WRITE        ACCESS:          0  HIT:          0  MISS:          0  iACCESS:          0  iHIT:          0  iMISS:          0  dACCESS:          0  dHIT:          0  dMISS:          0  itACCESS:          0  itHIT:          0  itMISS:          0  dtACCESS:          0  dtHIT:          0  dtMISS:          0
cpu0_STLB TRANSLATION  ACCESS:          0  HIT:          0  MISS:          0  iACCESS:          0  iHIT:          0  iMISS:          0  dACCESS:          0  dHIT:          0  dMISS:          0  itACCESS:          0  itHIT:          0  itMISS:          0  dtACCESS:          0  dtHIT:          0  dtMISS:          0
cpu0_STLB PREFETCH  REQUESTED:          0  ISSUED:          0  CROSSED:          0  USEFUL:          0  USELESS:          0
cpu0_STLB AVERAGE iMISS LATENCY: 29.9597 cycles
cpu0_STLB AVERAGE dMISS LATENCY: 222.557 cycles
cpu0_STLB AVERAGE itMISS LATENCY: 0 cycles
cpu0_STLB AVERAGE dtMISS LATENCY: 0 cycles
cpu0_STLB PAGE CROSSINGS (TLB HIT):         0 
cpu0_STLB PAGE CROSSINGS (TLB MISS):         0 
cpu0_STLB AVERAGE MISS LATENCY: 252.516 cycles
cpu0_L1D TOTAL       ACCESS:   46525655  HIT:   39879768  MISS:    6645887  iACCESS:          0  iHIT:          0  iMISS:          0  dACCESS:   45987428  dHIT:   39852574  dMISS:    6134854  itACCESS:      66070  itHIT:       4843  itMISS:      61227  dtACCESS:     472157  dtHIT:      22351  dtMISS:     449806
cpu0_L1D LOAD         ACCESS:   21550975  HIT:   18431039  MISS:    3119936  iACCESS:          0  iHIT:          0  iMISS:          0  dACCESS:   21550975  dHIT:   18431039  dMISS:    3119936  itACCESS:          0  itHIT:          0  itMISS:          0  dtACCESS:          0  dtHIT:          0  dtMISS:          0
cpu0_L1D RFO          ACCESS:          0  HIT:          0  MISS:          0  iACCESS:          0  iHIT:          0  iMISS:          0  dACCESS:          0  dHIT:          0  dMISS:          0  itACCESS:          0  itHIT:          0  itMISS:          0  dtACCESS:          0  dtHIT:          0  dtMISS:          0
cpu0_L1D PREFETCH     ACCESS:   14442294  HIT:   11997388  MISS:    2444906  iACCESS:          0  iHIT:          0  iMISS:          0  dACCESS:   14442294  dHIT:   11997388  dMISS:    2444906  itACCESS:          0  itHIT:          0  itMISS:          0  dtACCESS:          0  dtHIT:          0  dtMISS:          0
cpu0_L1D WRITE        ACCESS:    9994159  HIT:    9424147  MISS:     570012  iACCESS:          0  iHIT:          0  iMISS:          0  dACCESS:    9994159  dHIT:    9424147  dMISS:     570012  itACCESS:          0  itHIT:          0  itMISS:          0  dtACCESS:          0  dtHIT:          0  dtMISS:          0
cpu0_L1D TRANSLATION  ACCESS:     538227  HIT:      27194  MISS:     511033  iACCESS:          0  iHIT:          0  iMISS:          0  dACCESS:          0  dHIT:          0  dMISS:          0  itACCESS:      66070  itHIT:       4843  itMISS:      61227  dtACCESS:     472157  dtHIT:      22351  dtMISS:     449806
cpu0_L1D PREFETCH  REQUESTED:   21550975  ISSUED:   19009871  CROSSED:          0  USEFUL:     360454  USELESS:    1050966
cpu0_L1D AVERAGE iMISS LATENCY: 0 cycles
cpu0_L1D AVERAGE dMISS LATENCY: 41.9467 cycles
cpu0_L1D AVERAGE itMISS LATENCY: 1.4997 cycles
cpu0_L1D AVERAGE dtMISS LATENCY: 10.9342 cycles
cpu0_L1D PAGE CROSSINGS (TLB HIT):         0 
cpu0_L1D PAGE CROSSINGS (TLB MISS):         0 
cpu0_L1D AVERAGE MISS LATENCY: 54.3806 cycles
cpu0_L2C TOTAL       ACCESS:    9147938  HIT:    4971023  MISS:    4176915  iACCESS:    3547376  iHIT:    2152945  iMISS:    1394431  dACCESS:    5116983  dHIT:    2753007  dMISS:    2363976  itACCESS:      61057  itHIT:       9973  itMISS:      51084  dtACCESS:     422522  dtHIT:      55098  dtMISS:     367424
cpu0_L2C LOAD         ACCESS:    2729209  HIT:    1731078  MISS:     998131  iACCESS:     792200  iHIT:     501249  iMISS:     290951  dACCESS:    1937009  dHIT:    1229829  dMISS:     707180  itACCESS:          0  itHIT:          0  itMISS:          0  dtACCESS:          0  dtHIT:          0  dtMISS:          0
cpu0_L2C RFO          ACCESS:     225175  HIT:     104463  MISS:     120712  iACCESS:          0  iHIT:          0  iMISS:          0  dACCESS:     225175  dHIT:     104463  dMISS:     120712  itACCESS:          0  itHIT:          0  itMISS:          0  dtACCESS:          0  dtHIT:          0  dtMISS:          0
cpu0_L2C PREFETCH     ACCESS:    5370194  HIT:    2734166  MISS:    2636028  iACCESS:    2755176  iHIT:    1651696  iMISS:    1103480  dACCESS:    2615018  dHIT:    1082470  dMISS:    1532548  itACCESS:          0  itHIT:          0  itMISS:          0  dtACCESS:          0  dtHIT:          0  dtMISS:          0
cpu0_L2C WRITE        ACCESS:     339781  HIT:     336245  MISS:       3536  iACCESS:          0  iHIT:          0  iMISS:          0  dACCESS:     339781  dHIT:     336245  dMISS:       3536  itACCESS:          0  itHIT:          0  itMISS:          0  dtACCESS:          0  dtHIT:          0  dtMISS:          0
cpu0_L2C TRANSLATION  ACCESS:     483579  HIT:      65071  MISS:     418508  iACCESS:          0  iHIT:          0  iMISS:          0  dACCESS:          0  dHIT:          0  dMISS:          0  itACCESS:      61057  itHIT:       9973  itMISS:      51084  dtACCESS:     422522  dtHIT:      55098  dtMISS:     367424
cpu0_L2C PREFETCH  REQUESTED:    1420817  ISSUED:    1420778  CROSSED:          0  USEFUL:     329761  USELESS:     299372
cpu0_L2C AVERAGE iMISS LATENCY: 40.1991 cycles
cpu0_L2C AVERAGE dMISS LATENCY: 78.7925 cycles
cpu0_L2C AVERAGE itMISS LATENCY: 2.24195 cycles
cpu0_L2C AVERAGE dtMISS LATENCY: 16.3929 cycles
cpu0_L2C PAGE CROSSINGS (TLB HIT):         0 
cpu0_L2C PAGE CROSSINGS (TLB MISS):         0 
cpu0_L2C AVERAGE MISS LATENCY: 137.627 cycles
LLC TOTAL       ACCESS:    4181476  HIT:    1305322  MISS:    2876154  iACCESS:    1314668  iHIT:     427089  iMISS:     887579  dACCESS:    2448300  dHIT:     826667  dMISS:    1621633  itACCESS:      51084  itHIT:       3954  itMISS:      47130  dtACCESS:     367424  dtHIT:      47612  dtMISS:     319812
LLC LOAD         ACCESS:     992272  HIT:     324069  MISS:     668203  iACCESS:     289709  iHIT:     100704  iMISS:     189005  dACCESS:     702563  dHIT:     223365  dMISS:     479198  itACCESS:          0  itHIT:          0  itMISS:          0  dtACCESS:          0  dtHIT:          0  dtMISS:          0
LLC RFO          ACCESS:     120711  HIT:      38847  MISS:      81864  iACCESS:          0  iHIT:          0  iMISS:          0  dACCESS:     120711  dHIT:      38847  dMISS:      81864  itACCESS:          0  itHIT:          0  itMISS:          0  dtACCESS:          0  dtHIT:          0  dtMISS:          0
LLC PREFETCH     ACCESS:    2452877  HIT:     703289  MISS:    1749588  iACCESS:    1024959  iHIT:     326385  iMISS:     698574  dACCESS:    1427918  dHIT:     376904  dMISS:    1051014  itACCESS:          0  itHIT:          0  itMISS:          0  dtACCESS:          0  dtHIT:          0  dtMISS:          0
LLC WRITE        ACCESS:     197108  HIT:     187551  MISS:       9557  iACCESS:          0  iHIT:          0  iMISS:          0  dACCESS:     197108  dHIT:     187551  dMISS:       9557  itACCESS:          0  itHIT:          0  itMISS:          0  dtACCESS:          0  dtHIT:          0  dtMISS:          0
LLC TRANSLATION  ACCESS:     418508  HIT:      51566  MISS:     366942  iACCESS:          0  iHIT:          0  iMISS:          0  dACCESS:          0  dHIT:          0  dMISS:          0  itACCESS:      51084  itHIT:       3954  itMISS:      47130  dtACCESS:     367424  dtHIT:      47612  dtMISS:     319812
LLC PREFETCH  REQUESTED:          0  ISSUED:          0  CROSSED:          0  USEFUL:          0  USELESS:          0
LLC AVERAGE iMISS LATENCY: 49.3715 cycles
LLC AVERAGE dMISS LATENCY: 99.7356 cycles
LLC AVERAGE itMISS LATENCY: 2.90371 cycles
LLC AVERAGE dtMISS LATENCY: 21.2828 cycles
LLC PAGE CROSSINGS (TLB HIT):         0 
LLC PAGE CROSSINGS (TLB MISS):         0 
LLC AVERAGE MISS LATENCY: 173.294 cycles

PageTableWalker TOTAL       ACCESS:     159535  
PageTableWalker AVERAGE LATENCY: 6.83785 cycles
PageTableWalker TOTAL LATENCY: 1090875 cycles

DRAM Statistics
Channel 0
 RQ ROW_BUFFER_HIT:     603613
  ROW_BUFFER_MISS:    2251876
 AVG DBUS CONGESTED CYCLE:    3.64846
 WQ ROW_BUFFER_HIT:      60256
  ROW_BUFFER_MISS:      51040  FULL:          0

