last_page:0x200000000000000
VMEM_RES_CAP:0x100000
PAGE_SIZE:4096
LOG2_PAGE_SIZE:12
LOG2_PAGE_TABLE_SIZE:9
page_table_levels:5
WARNING: physical memory size is smaller than virtual memory size
FDiP enabled with aggresivity 16

*** ChampSim Multicore Out-of-Order Simulator ***

Warmup Instructions: 50000000
Simulation Instructions: 100000000
Number of CPUs: 1
Small page size: 4096
Large page size: 2097152

CPU 0 Bimodal branch predictor
Basic BTB sets: 1024 ways: 8 indirect buffer size: 4096 RAS size: 64
Instruction page size distrubution: 0
Loading instruction page size distribution from /home/bsc/bsc018186/scratch/itp_asplos25_AE/dump/smt_srv85_ap_srv551_ap_1024i.pdst
Data page size distrubution: 0
Loading data page size distribution from /home/bsc/bsc018186/scratch/itp_asplos25_AE/dump/smt_srv85_ap_srv551_ap_1024i.pdst
cpu0_L2C IP-based stride prefetcher
cpu0_L1D next line prefetcher
CHiRPing...
cpu0_L1I next line prefetcher
Off-chip DRAM Size: 4 GiB Channels: 1 Width: 64-bit Data Rate: 3200 MT/s
Heartbeat CPU 0 instructions: 10000000 cycles: 2500441 heartbeat IPC: 3.9993 cumulative IPC: 3.9993 (Simulation time: 0 hr 0 min 41 sec) 
Heartbeat CPU 0 instructions: 20000002 cycles: 5000671 heartbeat IPC: 3.99964 cumulative IPC: 3.99947 (Simulation time: 0 hr 1 min 27 sec) 
Heartbeat CPU 0 instructions: 30000001 cycles: 7500995 heartbeat IPC: 3.99949 cumulative IPC: 3.99947 (Simulation time: 0 hr 2 min 11 sec) 
Heartbeat CPU 0 instructions: 40000002 cycles: 10001559 heartbeat IPC: 3.9991 cumulative IPC: 3.99938 (Simulation time: 0 hr 2 min 56 sec) 
Heartbeat CPU 0 instructions: 50000002 cycles: 12501978 heartbeat IPC: 3.99933 cumulative IPC: 3.99937 (Simulation time: 0 hr 3 min 42 sec) 
Warmup finished CPU 0 instructions: 50000002 cycles: 12501979 cumulative IPC: 3.99937 (Simulation time: 0 hr 3 min 42 sec) 

Warmup complete CPU 0 instructions: 50000002 cycles: 12501979 (Simulation time: 0 hr 3 min 42 sec) 

Heartbeat CPU 0 instructions: 60000000 cycles: 40759175 heartbeat IPC: 0.353893 cumulative IPC: 0.353893 (Simulation time: 0 hr 5 min 10 sec) 
Heartbeat CPU 0 instructions: 70000000 cycles: 69725085 heartbeat IPC: 0.345234 cumulative IPC: 0.34951 (Simulation time: 0 hr 6 min 40 sec) 
Heartbeat CPU 0 instructions: 80000003 cycles: 97881210 heartbeat IPC: 0.355163 cumulative IPC: 0.351374 (Simulation time: 0 hr 8 min 8 sec) 
Heartbeat CPU 0 instructions: 90000002 cycles: 126433283 heartbeat IPC: 0.350238 cumulative IPC: 0.351089 (Simulation time: 0 hr 9 min 38 sec) 
Heartbeat CPU 0 instructions: 100000000 cycles: 155359968 heartbeat IPC: 0.345702 cumulative IPC: 0.349998 (Simulation time: 0 hr 11 min 7 sec) 
Heartbeat CPU 0 instructions: 110000000 cycles: 183123253 heartbeat IPC: 0.360188 cumulative IPC: 0.351657 (Simulation time: 0 hr 12 min 36 sec) 
Heartbeat CPU 0 instructions: 120000000 cycles: 207451884 heartbeat IPC: 0.411039 cumulative IPC: 0.359067 (Simulation time: 0 hr 14 min 3 sec) 
Heartbeat CPU 0 instructions: 130000001 cycles: 224885853 heartbeat IPC: 0.573593 cumulative IPC: 0.376677 (Simulation time: 0 hr 15 min 21 sec) 
Heartbeat CPU 0 instructions: 140000004 cycles: 242918003 heartbeat IPC: 0.554566 cumulative IPC: 0.390598 (Simulation time: 0 hr 16 min 40 sec) 
Heartbeat CPU 0 instructions: 150000000 cycles: 272891382 heartbeat IPC: 0.33363 cumulative IPC: 0.384041 (Simulation time: 0 hr 18 min 11 sec) 
Simulation finished CPU 0 instructions: 100000003 cycles: 260389405 cumulative IPC: 0.384041 (Simulation time: 0 hr 18 min 11 sec) 

Simulation complete CPU 0 instructions: 100000003 cycles: 260389405 (Simulation time: 0 hr 18 min 11 sec) 


ChampSim completed all CPUs

Saving instructions large page distribution to /home/bsc/bsc018186/scratch/itp_asplos25_AE/dump/smt_srv85_ap_srv551_ap_1024i.pdst...
Saving data large page distribution to /home/bsc/bsc018186/scratch/itp_asplos25_AE/dump/smt_srv85_ap_srv551_ap_1024i.pdst...
=== Simulation ===
CPU 0 runs /gpfs/projects/bsc18/MN4/bsc18/romol/ChampSim/traces/qualcomm_srv/smt_srv85_ap_srv551_ap_1024i.champsimtrace.xz

Region of Interest Statistics

CPU 0 cumulative IPC: 0.384041 instructions: 100000003 cycles: 260389405
CPU 0 Branch Prediction Accuracy: 77.8805% MPKI: 42.6554 Average ROB Occupancy at Mispredict: 11.4528
Branch type MPKI
BRANCH_DIRECT_JUMP: 1.24167
BRANCH_INDIRECT: 23.0029
BRANCH_CONDITIONAL: 11.689
BRANCH_DIRECT_CALL: 2.35968
BRANCH_INDIRECT_CALL: 1.06193
BRANCH_RETURN: 3.30024

Instructions large pages: 0
Instructions small pages: 10447
Large page distribution for instructions: 0%

Data large pages: 0
Data small pages: 8982
Large page distribution for data: 0%

cpu0_L1I TOTAL       ACCESS:   40095220  HIT:   31897904  MISS:    8197316  iACCESS:   40095220  iHIT:   31897904  iMISS:    8197316  dACCESS:          0  dHIT:          0  dMISS:          0  itACCESS:          0  itHIT:          0  itMISS:          0  dtACCESS:          0  dtHIT:          0  dtMISS:          0
cpu0_L1I LOAD         ACCESS:   11444516  HIT:    9217846  MISS:    2226670  iACCESS:   11444516  iHIT:    9217846  iMISS:    2226670  dACCESS:          0  dHIT:          0  dMISS:          0  itACCESS:          0  itHIT:          0  itMISS:          0  dtACCESS:          0  dtHIT:          0  dtMISS:          0
cpu0_L1I RFO          ACCESS:          0  HIT:          0  MISS:          0  iACCESS:          0  iHIT:          0  iMISS:          0  dACCESS:          0  dHIT:          0  dMISS:          0  itACCESS:          0  itHIT:          0  itMISS:          0  dtACCESS:          0  dtHIT:          0  dtMISS:          0
cpu0_L1I PREFETCH     ACCESS:   28650704  HIT:   22680058  MISS:    5970646  iACCESS:   28650704  iHIT:   22680058  iMISS:    5970646  dACCESS:          0  dHIT:          0  dMISS:          0  itACCESS:          0  itHIT:          0  itMISS:          0  dtACCESS:          0  dtHIT:          0  dtMISS:          0
cpu0_L1I WRITE        ACCESS:          0  HIT:          0  MISS:          0  iACCESS:          0  iHIT:          0  iMISS:          0  dACCESS:          0  dHIT:          0  dMISS:          0  itACCESS:          0  itHIT:          0  itMISS:          0  dtACCESS:          0  dtHIT:          0  dtMISS:          0
cpu0_L1I TRANSLATION  ACCESS:          0  HIT:          0  MISS:          0  iACCESS:          0  iHIT:          0  iMISS:          0  dACCESS:          0  dHIT:          0  dMISS:          0  itACCESS:          0  itHIT:          0  itMISS:          0  dtACCESS:          0  dtHIT:          0  dtMISS:          0
cpu0_L1I PREFETCH  REQUESTED:   31166117  ISSUED:   31164634  CROSSED:          0  USEFUL:    1973144  USELESS:     683478
cpu0_L1I AVERAGE iMISS LATENCY: 24.3437 cycles
cpu0_L1I AVERAGE dMISS LATENCY: 0 cycles
cpu0_L1I AVERAGE itMISS LATENCY: 0 cycles
cpu0_L1I AVERAGE dtMISS LATENCY: 0 cycles
cpu0_L1I PAGE CROSSINGS (TLB HIT):         0 
cpu0_L1I PAGE CROSSINGS (TLB MISS):         0 
cpu0_L1I AVERAGE MISS LATENCY: 24.3437 cycles
cpu0_ITLB TOTAL       ACCESS:   33542881  HIT:   31560673  MISS:    1982208  iACCESS:   33542881  iHIT:   31560673  iMISS:    1982208  dACCESS:          0  dHIT:          0  dMISS:          0  itACCESS:          0  itHIT:          0  itMISS:          0  dtACCESS:          0  dtHIT:          0  dtMISS:          0
cpu0_ITLB LOAD         ACCESS:   33542881  HIT:   31560673  MISS:    1982208  iACCESS:   33542881  iHIT:   31560673  iMISS:    1982208  dACCESS:          0  dHIT:          0  dMISS:          0  itACCESS:          0  itHIT:          0  itMISS:          0  dtACCESS:          0  dtHIT:          0  dtMISS:          0
cpu0_ITLB RFO          ACCESS:          0  HIT:          0  MISS:          0  iACCESS:          0  iHIT:          0  iMISS:          0  dACCESS:          0  dHIT:          0  dMISS:          0  itACCESS:          0  itHIT:          0  itMISS:          0  dtACCESS:          0  dtHIT:          0  dtMISS:          0
cpu0_ITLB PREFETCH     ACCESS:          0  HIT:          0  MISS:          0  iACCESS:          0  iHIT:          0  iMISS:          0  dACCESS:          0  dHIT:          0  dMISS:          0  itACCESS:          0  itHIT:          0  itMISS:          0  dtACCESS:          0  dtHIT:          0  dtMISS:          0
cpu0_ITLB WRITE        ACCESS:          0  HIT:          0  MISS:          0  iACCESS:          0  iHIT:          0  iMISS:          0  dACCESS:          0  dHIT:          0  dMISS:          0  itACCESS:          0  itHIT:          0  itMISS:          0  dtACCESS:          0  dtHIT:          0  dtMISS:          0
cpu0_ITLB TRANSLATION  ACCESS:          0  HIT:          0  MISS:          0  iACCESS:          0  iHIT:          0  iMISS:          0  dACCESS:          0  dHIT:          0  dMISS:          0  itACCESS:          0  itHIT:          0  itMISS:          0  dtACCESS:          0  dtHIT:          0  dtMISS:          0
cpu0_ITLB PREFETCH  REQUESTED:          0  ISSUED:          0  CROSSED:          0  USEFUL:     347738  USELESS:      71098
cpu0_ITLB AVERAGE iMISS LATENCY: 8.05719 cycles
cpu0_ITLB AVERAGE dMISS LATENCY: 0 cycles
cpu0_ITLB AVERAGE itMISS LATENCY: 0 cycles
cpu0_ITLB AVERAGE dtMISS LATENCY: 0 cycles
cpu0_ITLB PAGE CROSSINGS (TLB HIT):         0 
cpu0_ITLB PAGE CROSSINGS (TLB MISS):         0 
cpu0_ITLB AVERAGE MISS LATENCY: 8.05719 cycles
cpu0_DTLB TOTAL       ACCESS:   30792262  HIT:   24718226  MISS:    6074036  iACCESS:          0  iHIT:          0  iMISS:          0  dACCESS:   30792262  dHIT:   24718226  dMISS:    6074036  itACCESS:          0  itHIT:          0  itMISS:          0  dtACCESS:          0  dtHIT:          0  dtMISS:          0
cpu0_DTLB LOAD         ACCESS:   30792262  HIT:   24718226  MISS:    6074036  iACCESS:          0  iHIT:          0  iMISS:          0  dACCESS:   30792262  dHIT:   24718226  dMISS:    6074036  itACCESS:          0  itHIT:          0  itMISS:          0  dtACCESS:          0  dtHIT:          0  dtMISS:          0
cpu0_DTLB RFO          ACCESS:          0  HIT:          0  MISS:          0  iACCESS:          0  iHIT:          0  iMISS:          0  dACCESS:          0  dHIT:          0  dMISS:          0  itACCESS:          0  itHIT:          0  itMISS:          0  dtACCESS:          0  dtHIT:          0  dtMISS:          0
cpu0_DTLB PREFETCH     ACCESS:          0  HIT:          0  MISS:          0  iACCESS:          0  iHIT:          0  iMISS:          0  dACCESS:          0  dHIT:          0  dMISS:          0  itACCESS:          0  itHIT:          0  itMISS:          0  dtACCESS:          0  dtHIT:          0  dtMISS:          0
cpu0_DTLB WRITE        ACCESS:          0  HIT:          0  MISS:          0  iACCESS:          0  iHIT:          0  iMISS:          0  dACCESS:          0  dHIT:          0  dMISS:          0  itACCESS:          0  itHIT:          0  itMISS:          0  dtACCESS:          0  dtHIT:          0  dtMISS:          0
cpu0_DTLB TRANSLATION  ACCESS:          0  HIT:          0  MISS:          0  iACCESS:          0  iHIT:          0  iMISS:          0  dACCESS:          0  dHIT:          0  dMISS:          0  itACCESS:          0  itHIT:          0  itMISS:          0  dtACCESS:          0  dtHIT:          0  dtMISS:          0
cpu0_DTLB PREFETCH  REQUESTED:          0  ISSUED:          0  CROSSED:          0  USEFUL:          0  USELESS:          0
cpu0_DTLB AVERAGE iMISS LATENCY: 0 cycles
cpu0_DTLB AVERAGE dMISS LATENCY: 10.8417 cycles
cpu0_DTLB AVERAGE itMISS LATENCY: 0 cycles
cpu0_DTLB AVERAGE dtMISS LATENCY: 0 cycles
cpu0_DTLB PAGE CROSSINGS (TLB HIT):         0 
cpu0_DTLB PAGE CROSSINGS (TLB MISS):         0 
cpu0_DTLB AVERAGE MISS LATENCY: 10.8417 cycles
cpu0_STLB TOTAL       ACCESS:    3691855  HIT:    3354586  MISS:     337269  iACCESS:     418853  iHIT:     314862  iMISS:     103991  dACCESS:    3273002  dHIT:    3039724  dMISS:     233278  itACCESS:          0  itHIT:          0  itMISS:          0  dtACCESS:          0  dtHIT:          0  dtMISS:          0
cpu0_STLB LOAD         ACCESS:    3691855  HIT:    3354586  MISS:     337269  iACCESS:     418853  iHIT:     314862  iMISS:     103991  dACCESS:    3273002  dHIT:    3039724  dMISS:     233278  itACCESS:          0  itHIT:          0  itMISS:          0  dtACCESS:          0  dtHIT:          0  dtMISS:          0
cpu0_STLB RFO          ACCESS:          0  HIT:          0  MISS:          0  iACCESS:          0  iHIT:          0  iMISS:          0  dACCESS:          0  dHIT:          0  dMISS:          0  itACCESS:          0  itHIT:          0  itMISS:          0  dtACCESS:          0  dtHIT:          0  dtMISS:          0
cpu0_STLB PREFETCH     ACCESS:          0  HIT:          0  MISS:          0  iACCESS:          0  iHIT:          0  iMISS:          0  dACCESS:          0  dHIT:          0  dMISS:          0  itACCESS:          0  itHIT:          0  itMISS:          0  dtACCESS:          0  dtHIT:          0  dtMISS:          0
cpu0_STLB WRITE        ACCESS:          0  HIT:          0  MISS:          0  iACCESS:          0  iHIT:          0  iMISS:          0  dACCESS:          0  dHIT:          0  dMISS:          0  itACCESS:          0  itHIT:          0  itMISS:          0  dtACCESS:          0  dtHIT:          0  dtMISS:          0
cpu0_STLB TRANSLATION  ACCESS:          0  HIT:          0  MISS:          0  iACCESS:          0  iHIT:          0  iMISS:          0  dACCESS:          0  dHIT:          0  dMISS:          0  itACCESS:          0  itHIT:          0  itMISS:          0  dtACCESS:          0  dtHIT:          0  dtMISS:          0
cpu0_STLB PREFETCH  REQUESTED:          0  ISSUED:          0  CROSSED:          0  USEFUL:          0  USELESS:          0
cpu0_STLB AVERAGE iMISS LATENCY: 37.4223 cycles
cpu0_STLB AVERAGE dMISS LATENCY: 116.806 cycles
cpu0_STLB AVERAGE itMISS LATENCY: 0 cycles
cpu0_STLB AVERAGE dtMISS LATENCY: 0 cycles
cpu0_STLB PAGE CROSSINGS (TLB HIT):         0 
cpu0_STLB PAGE CROSSINGS (TLB MISS):         0 
cpu0_STLB AVERAGE MISS LATENCY: 154.229 cycles
cpu0_L1D TOTAL       ACCESS:   49317781  HIT:   39698707  MISS:    9619074  iACCESS:          0  iHIT:          0  iMISS:          0  dACCESS:   48829312  dHIT:   39670345  dMISS:    9158967  itACCESS:     116245  itHIT:      12612  itMISS:     103633  dtACCESS:     372224  dtHIT:      15750  dtMISS:     356474
cpu0_L1D LOAD         ACCESS:   23509264  HIT:   18436313  MISS:    5072951  iACCESS:          0  iHIT:          0  iMISS:          0  dACCESS:   23509264  dHIT:   18436313  dMISS:    5072951  itACCESS:          0  itHIT:          0  itMISS:          0  dtACCESS:          0  dtHIT:          0  dtMISS:          0
cpu0_L1D RFO          ACCESS:          0  HIT:          0  MISS:          0  iACCESS:          0  iHIT:          0  iMISS:          0  dACCESS:          0  dHIT:          0  dMISS:          0  itACCESS:          0  itHIT:          0  itMISS:          0  dtACCESS:          0  dtHIT:          0  dtMISS:          0
cpu0_L1D PREFETCH     ACCESS:   15536823  HIT:   12037710  MISS:    3499113  iACCESS:          0  iHIT:          0  iMISS:          0  dACCESS:   15536823  dHIT:   12037710  dMISS:    3499113  itACCESS:          0  itHIT:          0  itMISS:          0  dtACCESS:          0  dtHIT:          0  dtMISS:          0
cpu0_L1D WRITE        ACCESS:    9783225  HIT:    9196322  MISS:     586903  iACCESS:          0  iHIT:          0  iMISS:          0  dACCESS:    9783225  dHIT:    9196322  dMISS:     586903  itACCESS:          0  itHIT:          0  itMISS:          0  dtACCESS:          0  dtHIT:          0  dtMISS:          0
cpu0_L1D TRANSLATION  ACCESS:     488469  HIT:      28362  MISS:     460107  iACCESS:          0  iHIT:          0  iMISS:          0  dACCESS:          0  dHIT:          0  dMISS:          0  itACCESS:     116245  itHIT:      12612  itMISS:     103633  dtACCESS:     372224  dtHIT:      15750  dtMISS:     356474
cpu0_L1D PREFETCH  REQUESTED:   23509264  ISSUED:   18926887  CROSSED:          0  USEFUL:     328680  USELESS:    1068286
cpu0_L1D AVERAGE iMISS LATENCY: 0 cycles
cpu0_L1D AVERAGE dMISS LATENCY: 31.5308 cycles
cpu0_L1D AVERAGE itMISS LATENCY: 1.20869 cycles
cpu0_L1D AVERAGE dtMISS LATENCY: 3.66461 cycles
cpu0_L1D PAGE CROSSINGS (TLB HIT):         0 
cpu0_L1D PAGE CROSSINGS (TLB MISS):         0 
cpu0_L1D AVERAGE MISS LATENCY: 36.404 cycles
cpu0_L2C TOTAL       ACCESS:    9779841  HIT:    2114711  MISS:    7665130  iACCESS:    3369543  iHIT:     706712  iMISS:    2662831  dACCESS:    5976402  dHIT:    1236799  dMISS:    4739603  itACCESS:     103347  itHIT:      34874  itMISS:      68473  dtACCESS:     330549  dtHIT:     136326  dtMISS:     194223
cpu0_L2C LOAD         ACCESS:    3603198  HIT:     802847  MISS:    2800351  iACCESS:     744216  iHIT:     102613  iMISS:     641603  dACCESS:    2858982  dHIT:     700234  dMISS:    2158748  itACCESS:          0  itHIT:          0  itMISS:          0  dtACCESS:          0  dtHIT:          0  dtMISS:          0
cpu0_L2C RFO          ACCESS:     225156  HIT:      44121  MISS:     181035  iACCESS:          0  iHIT:          0  iMISS:          0  dACCESS:     225156  dHIT:      44121  dMISS:     181035  itACCESS:          0  itHIT:          0  itMISS:          0  dtACCESS:          0  dtHIT:          0  dtMISS:          0
cpu0_L2C PREFETCH     ACCESS:    5192955  HIT:     991448  MISS:    4201507  iACCESS:    2625327  iHIT:     604099  iMISS:    2021228  dACCESS:    2567628  dHIT:     387349  dMISS:    2180279  itACCESS:          0  itHIT:          0  itMISS:          0  dtACCESS:          0  dtHIT:          0  dtMISS:          0
cpu0_L2C WRITE        ACCESS:     324636  HIT:     105095  MISS:     219541  iACCESS:          0  iHIT:          0  iMISS:          0  dACCESS:     324636  dHIT:     105095  dMISS:     219541  itACCESS:          0  itHIT:          0  itMISS:          0  dtACCESS:          0  dtHIT:          0  dtMISS:          0
cpu0_L2C TRANSLATION  ACCESS:     433896  HIT:     171200  MISS:     262696  iACCESS:          0  iHIT:          0  iMISS:          0  dACCESS:          0  dHIT:          0  dMISS:          0  itACCESS:     103347  itHIT:      34874  itMISS:      68473  dtACCESS:     330549  dtHIT:     136326  dtMISS:     194223
cpu0_L2C PREFETCH  REQUESTED:    1383658  ISSUED:    1383656  CROSSED:          0  USEFUL:     363534  USELESS:     440991
cpu0_L2C AVERAGE iMISS LATENCY: 22.3186 cycles
cpu0_L2C AVERAGE dMISS LATENCY: 44.6215 cycles
cpu0_L2C AVERAGE itMISS LATENCY: 1.38616 cycles
cpu0_L2C AVERAGE dtMISS LATENCY: 4.18347 cycles
cpu0_L2C PAGE CROSSINGS (TLB HIT):         0 
cpu0_L2C PAGE CROSSINGS (TLB MISS):         0 
cpu0_L2C AVERAGE MISS LATENCY: 72.5097 cycles
LLC TOTAL       ACCESS:    7495433  HIT:    5054238  MISS:    2441195  iACCESS:    2581427  iHIT:    1808962  iMISS:     772465  dACCESS:    4651310  dHIT:    3182270  dMISS:    1469040  itACCESS:      68473  itHIT:      16448  itMISS:      52025  dtACCESS:     194223  dtHIT:      46558  dtMISS:     147665
LLC LOAD         ACCESS:    2792442  HIT:    2203180  MISS:     589262  iACCESS:     640346  iHIT:     478478  iMISS:     161868  dACCESS:    2152096  dHIT:    1724702  dMISS:     427394  itACCESS:          0  itHIT:          0  itMISS:          0  dtACCESS:          0  dtHIT:          0  dtMISS:          0
LLC RFO          ACCESS:     181014  HIT:      99571  MISS:      81443  iACCESS:          0  iHIT:          0  iMISS:          0  dACCESS:     181014  dHIT:      99571  dMISS:      81443  itACCESS:          0  itHIT:          0  itMISS:          0  dtACCESS:          0  dtHIT:          0  dtMISS:          0
LLC PREFETCH     ACCESS:    4006592  HIT:    2441496  MISS:    1565096  iACCESS:    1941081  iHIT:    1330484  iMISS:     610597  dACCESS:    2065511  dHIT:    1111012  dMISS:     954499  itACCESS:          0  itHIT:          0  itMISS:          0  dtACCESS:          0  dtHIT:          0  dtMISS:          0
LLC WRITE        ACCESS:     252689  HIT:     246985  MISS:       5704  iACCESS:          0  iHIT:          0  iMISS:          0  dACCESS:     252689  dHIT:     246985  dMISS:       5704  itACCESS:          0  itHIT:          0  itMISS:          0  dtACCESS:          0  dtHIT:          0  dtMISS:          0
LLC TRANSLATION  ACCESS:     262696  HIT:      63006  MISS:     199690  iACCESS:          0  iHIT:          0  iMISS:          0  dACCESS:          0  dHIT:          0  dMISS:          0  itACCESS:      68473  itHIT:      16448  itMISS:      52025  dtACCESS:     194223  dtHIT:      46558  dtMISS:     147665
LLC PREFETCH  REQUESTED:          0  ISSUED:          0  CROSSED:          0  USEFUL:          0  USELESS:          0
LLC AVERAGE iMISS LATENCY: 49.5429 cycles
LLC AVERAGE dMISS LATENCY: 105.901 cycles
LLC AVERAGE itMISS LATENCY: 3.80001 cycles
LLC AVERAGE dtMISS LATENCY: 11.5692 cycles
LLC PAGE CROSSINGS (TLB HIT):         0 
LLC PAGE CROSSINGS (TLB MISS):         0 
LLC AVERAGE MISS LATENCY: 170.813 cycles

PageTableWalker TOTAL       ACCESS:     197258  
PageTableWalker AVERAGE LATENCY: 5.90314 cycles
PageTableWalker TOTAL LATENCY: 1164440 cycles

DRAM Statistics
Channel 0
 RQ ROW_BUFFER_HIT:     551967
  ROW_BUFFER_MISS:    1867053
 AVG DBUS CONGESTED CYCLE:      3.656
 WQ ROW_BUFFER_HIT:      59768
  ROW_BUFFER_MISS:      56231  FULL:          0

