last_page:0x200000000000000
VMEM_RES_CAP:0x100000
PAGE_SIZE:4096
LOG2_PAGE_SIZE:12
LOG2_PAGE_TABLE_SIZE:9
page_table_levels:5
WARNING: physical memory size is smaller than virtual memory size
FDiP enabled with aggresivity 16

*** ChampSim Multicore Out-of-Order Simulator ***

Warmup Instructions: 50000000
Simulation Instructions: 100000000
Number of CPUs: 1
Small page size: 4096
Large page size: 2097152

CPU 0 Bimodal branch predictor
Basic BTB sets: 1024 ways: 8 indirect buffer size: 4096 RAS size: 64
Instruction page size distrubution: 0
Loading instruction page size distribution from /home/bsc/bsc018186/scratch/itp_asplos25_AE/dump/smt_srv12_ap_srv180_ap_1024i.pdst
Data page size distrubution: 0
Loading data page size distribution from /home/bsc/bsc018186/scratch/itp_asplos25_AE/dump/smt_srv12_ap_srv180_ap_1024i.pdst
cpu0_L2C IP-based stride prefetcher
cpu0_L1D next line prefetcher
cpu0_L1I next line prefetcher
Off-chip DRAM Size: 4 GiB Channels: 1 Width: 64-bit Data Rate: 3200 MT/s
Heartbeat CPU 0 instructions: 10000003 cycles: 2500542 heartbeat IPC: 3.99914 cumulative IPC: 3.99914 (Simulation time: 0 hr 0 min 42 sec) 
Heartbeat CPU 0 instructions: 20000003 cycles: 5000666 heartbeat IPC: 3.99981 cumulative IPC: 3.99947 (Simulation time: 0 hr 1 min 32 sec) 
Heartbeat CPU 0 instructions: 30000000 cycles: 7501653 heartbeat IPC: 3.99843 cumulative IPC: 3.99912 (Simulation time: 0 hr 2 min 22 sec) 
Heartbeat CPU 0 instructions: 40000003 cycles: 10002081 heartbeat IPC: 3.99932 cumulative IPC: 3.99917 (Simulation time: 0 hr 3 min 12 sec) 
Heartbeat CPU 0 instructions: 50000001 cycles: 12502262 heartbeat IPC: 3.99971 cumulative IPC: 3.99928 (Simulation time: 0 hr 4 min 3 sec) 
Warmup finished CPU 0 instructions: 50000001 cycles: 12502263 cumulative IPC: 3.99928 (Simulation time: 0 hr 4 min 3 sec) 

Warmup complete CPU 0 instructions: 50000001 cycles: 12502263 (Simulation time: 0 hr 4 min 3 sec) 

Heartbeat CPU 0 instructions: 60000001 cycles: 40346901 heartbeat IPC: 0.359136 cumulative IPC: 0.359136 (Simulation time: 0 hr 5 min 44 sec) 
Heartbeat CPU 0 instructions: 70000003 cycles: 67153301 heartbeat IPC: 0.373046 cumulative IPC: 0.365959 (Simulation time: 0 hr 7 min 23 sec) 
Heartbeat CPU 0 instructions: 80000001 cycles: 95522256 heartbeat IPC: 0.352498 cumulative IPC: 0.361359 (Simulation time: 0 hr 8 min 58 sec) 
Heartbeat CPU 0 instructions: 90000000 cycles: 119957533 heartbeat IPC: 0.409245 cumulative IPC: 0.372248 (Simulation time: 0 hr 10 min 28 sec) 
Heartbeat CPU 0 instructions: 100000000 cycles: 146791280 heartbeat IPC: 0.372666 cumulative IPC: 0.372332 (Simulation time: 0 hr 12 min 6 sec) 
Heartbeat CPU 0 instructions: 110000000 cycles: 174169736 heartbeat IPC: 0.365251 cumulative IPC: 0.371133 (Simulation time: 0 hr 13 min 44 sec) 
Heartbeat CPU 0 instructions: 120000000 cycles: 200981556 heartbeat IPC: 0.37297 cumulative IPC: 0.371394 (Simulation time: 0 hr 15 min 21 sec) 
Heartbeat CPU 0 instructions: 130000000 cycles: 227443951 heartbeat IPC: 0.377895 cumulative IPC: 0.372194 (Simulation time: 0 hr 16 min 58 sec) 
Heartbeat CPU 0 instructions: 140000000 cycles: 255215527 heartbeat IPC: 0.360081 cumulative IPC: 0.370808 (Simulation time: 0 hr 18 min 39 sec) 
Heartbeat CPU 0 instructions: 150000002 cycles: 282025341 heartbeat IPC: 0.372998 cumulative IPC: 0.371026 (Simulation time: 0 hr 20 min 17 sec) 
Simulation finished CPU 0 instructions: 100000001 cycles: 269523079 cumulative IPC: 0.371026 (Simulation time: 0 hr 20 min 17 sec) 

Simulation complete CPU 0 instructions: 100000001 cycles: 269523079 (Simulation time: 0 hr 20 min 17 sec) 


ChampSim completed all CPUs

Saving instructions large page distribution to /home/bsc/bsc018186/scratch/itp_asplos25_AE/dump/smt_srv12_ap_srv180_ap_1024i.pdst...
Saving data large page distribution to /home/bsc/bsc018186/scratch/itp_asplos25_AE/dump/smt_srv12_ap_srv180_ap_1024i.pdst...
=== Simulation ===
CPU 0 runs /gpfs/projects/bsc18/MN4/bsc18/romol/ChampSim/traces/qualcomm_srv/smt_srv12_ap_srv180_ap_1024i.champsimtrace.xz

Region of Interest Statistics

CPU 0 cumulative IPC: 0.371026 instructions: 100000001 cycles: 269523079
CPU 0 Branch Prediction Accuracy: 75.5619% MPKI: 44.1516 Average ROB Occupancy at Mispredict: 10.8512
Branch type MPKI
BRANCH_DIRECT_JUMP: 1.35207
BRANCH_INDIRECT: 22.6833
BRANCH_CONDITIONAL: 13.0284
BRANCH_DIRECT_CALL: 2.59576
BRANCH_INDIRECT_CALL: 1.03949
BRANCH_RETURN: 3.45256

Instructions large pages: 0
Instructions small pages: 14796
Large page distribution for instructions: 0%

Data large pages: 0
Data small pages: 13082
Large page distribution for data: 0%

cpu0_L1I TOTAL       ACCESS:   39333261  HIT:   30216000  MISS:    9117261  iACCESS:   39333261  iHIT:   30216000  iMISS:    9117261  dACCESS:          0  dHIT:          0  dMISS:          0  itACCESS:          0  itHIT:          0  itMISS:          0  dtACCESS:          0  dtHIT:          0  dtMISS:          0
cpu0_L1I LOAD         ACCESS:   11731343  HIT:    9257986  MISS:    2473357  iACCESS:   11731343  iHIT:    9257986  iMISS:    2473357  dACCESS:          0  dHIT:          0  dMISS:          0  itACCESS:          0  itHIT:          0  itMISS:          0  dtACCESS:          0  dtHIT:          0  dtMISS:          0
cpu0_L1I RFO          ACCESS:          0  HIT:          0  MISS:          0  iACCESS:          0  iHIT:          0  iMISS:          0  dACCESS:          0  dHIT:          0  dMISS:          0  itACCESS:          0  itHIT:          0  itMISS:          0  dtACCESS:          0  dtHIT:          0  dtMISS:          0
cpu0_L1I PREFETCH     ACCESS:   27601918  HIT:   20958014  MISS:    6643904  iACCESS:   27601918  iHIT:   20958014  iMISS:    6643904  dACCESS:          0  dHIT:          0  dMISS:          0  itACCESS:          0  itHIT:          0  itMISS:          0  dtACCESS:          0  dtHIT:          0  dtMISS:          0
cpu0_L1I WRITE        ACCESS:          0  HIT:          0  MISS:          0  iACCESS:          0  iHIT:          0  iMISS:          0  dACCESS:          0  dHIT:          0  dMISS:          0  itACCESS:          0  itHIT:          0  itMISS:          0  dtACCESS:          0  dtHIT:          0  dtMISS:          0
cpu0_L1I TRANSLATION  ACCESS:          0  HIT:          0  MISS:          0  iACCESS:          0  iHIT:          0  iMISS:          0  dACCESS:          0  dHIT:          0  dMISS:          0  itACCESS:          0  itHIT:          0  itMISS:          0  dtACCESS:          0  dtHIT:          0  dtMISS:          0
cpu0_L1I PREFETCH  REQUESTED:   30216761  ISSUED:   30215622  CROSSED:          0  USEFUL:    2197283  USELESS:     754434
cpu0_L1I AVERAGE iMISS LATENCY: 23.6513 cycles
cpu0_L1I AVERAGE dMISS LATENCY: 0 cycles
cpu0_L1I AVERAGE itMISS LATENCY: 0 cycles
cpu0_L1I AVERAGE dtMISS LATENCY: 0 cycles
cpu0_L1I PAGE CROSSINGS (TLB HIT):         0 
cpu0_L1I PAGE CROSSINGS (TLB MISS):         0 
cpu0_L1I AVERAGE MISS LATENCY: 23.6513 cycles
cpu0_ITLB TOTAL       ACCESS:   33065102  HIT:   30880201  MISS:    2184901  iACCESS:   33065102  iHIT:   30880201  iMISS:    2184901  dACCESS:          0  dHIT:          0  dMISS:          0  itACCESS:          0  itHIT:          0  itMISS:          0  dtACCESS:          0  dtHIT:          0  dtMISS:          0
cpu0_ITLB LOAD         ACCESS:   33065102  HIT:   30880201  MISS:    2184901  iACCESS:   33065102  iHIT:   30880201  iMISS:    2184901  dACCESS:          0  dHIT:          0  dMISS:          0  itACCESS:          0  itHIT:          0  itMISS:          0  dtACCESS:          0  dtHIT:          0  dtMISS:          0
cpu0_ITLB RFO          ACCESS:          0  HIT:          0  MISS:          0  iACCESS:          0  iHIT:          0  iMISS:          0  dACCESS:          0  dHIT:          0  dMISS:          0  itACCESS:          0  itHIT:          0  itMISS:          0  dtACCESS:          0  dtHIT:          0  dtMISS:          0
cpu0_ITLB PREFETCH     ACCESS:          0  HIT:          0  MISS:          0  iACCESS:          0  iHIT:          0  iMISS:          0  dACCESS:          0  dHIT:          0  dMISS:          0  itACCESS:          0  itHIT:          0  itMISS:          0  dtACCESS:          0  dtHIT:          0  dtMISS:          0
cpu0_ITLB WRITE        ACCESS:          0  HIT:          0  MISS:          0  iACCESS:          0  iHIT:          0  iMISS:          0  dACCESS:          0  dHIT:          0  dMISS:          0  itACCESS:          0  itHIT:          0  itMISS:          0  dtACCESS:          0  dtHIT:          0  dtMISS:          0
cpu0_ITLB TRANSLATION  ACCESS:          0  HIT:          0  MISS:          0  iACCESS:          0  iHIT:          0  iMISS:          0  dACCESS:          0  dHIT:          0  dMISS:          0  itACCESS:          0  itHIT:          0  itMISS:          0  dtACCESS:          0  dtHIT:          0  dtMISS:          0
cpu0_ITLB PREFETCH  REQUESTED:          0  ISSUED:          0  CROSSED:          0  USEFUL:     386902  USELESS:      77571
cpu0_ITLB AVERAGE iMISS LATENCY: 7.86282 cycles
cpu0_ITLB AVERAGE dMISS LATENCY: 0 cycles
cpu0_ITLB AVERAGE itMISS LATENCY: 0 cycles
cpu0_ITLB AVERAGE dtMISS LATENCY: 0 cycles
cpu0_ITLB PAGE CROSSINGS (TLB HIT):         0 
cpu0_ITLB PAGE CROSSINGS (TLB MISS):         0 
cpu0_ITLB AVERAGE MISS LATENCY: 7.86282 cycles
cpu0_DTLB TOTAL       ACCESS:   28888625  HIT:   25327344  MISS:    3561281  iACCESS:          0  iHIT:          0  iMISS:          0  dACCESS:   28888625  dHIT:   25327344  dMISS:    3561281  itACCESS:          0  itHIT:          0  itMISS:          0  dtACCESS:          0  dtHIT:          0  dtMISS:          0
cpu0_DTLB LOAD         ACCESS:   28888625  HIT:   25327344  MISS:    3561281  iACCESS:          0  iHIT:          0  iMISS:          0  dACCESS:   28888625  dHIT:   25327344  dMISS:    3561281  itACCESS:          0  itHIT:          0  itMISS:          0  dtACCESS:          0  dtHIT:          0  dtMISS:          0
cpu0_DTLB RFO          ACCESS:          0  HIT:          0  MISS:          0  iACCESS:          0  iHIT:          0  iMISS:          0  dACCESS:          0  dHIT:          0  dMISS:          0  itACCESS:          0  itHIT:          0  itMISS:          0  dtACCESS:          0  dtHIT:          0  dtMISS:          0
cpu0_DTLB PREFETCH     ACCESS:          0  HIT:          0  MISS:          0  iACCESS:          0  iHIT:          0  iMISS:          0  dACCESS:          0  dHIT:          0  dMISS:          0  itACCESS:          0  itHIT:          0  itMISS:          0  dtACCESS:          0  dtHIT:          0  dtMISS:          0
cpu0_DTLB WRITE        ACCESS:          0  HIT:          0  MISS:          0  iACCESS:          0  iHIT:          0  iMISS:          0  dACCESS:          0  dHIT:          0  dMISS:          0  itACCESS:          0  itHIT:          0  itMISS:          0  dtACCESS:          0  dtHIT:          0  dtMISS:          0
cpu0_DTLB TRANSLATION  ACCESS:          0  HIT:          0  MISS:          0  iACCESS:          0  iHIT:          0  iMISS:          0  dACCESS:          0  dHIT:          0  dMISS:          0  itACCESS:          0  itHIT:          0  itMISS:          0  dtACCESS:          0  dtHIT:          0  dtMISS:          0
cpu0_DTLB PREFETCH  REQUESTED:          0  ISSUED:          0  CROSSED:          0  USEFUL:          0  USELESS:          0
cpu0_DTLB AVERAGE iMISS LATENCY: 0 cycles
cpu0_DTLB AVERAGE dMISS LATENCY: 16.7141 cycles
cpu0_DTLB AVERAGE itMISS LATENCY: 0 cycles
cpu0_DTLB AVERAGE dtMISS LATENCY: 0 cycles
cpu0_DTLB PAGE CROSSINGS (TLB HIT):         0 
cpu0_DTLB PAGE CROSSINGS (TLB MISS):         0 
cpu0_DTLB AVERAGE MISS LATENCY: 16.7141 cycles
cpu0_STLB TOTAL       ACCESS:    2554523  HIT:    2195588  MISS:     358935  iACCESS:     464483  iHIT:     354555  iMISS:     109928  dACCESS:    2090040  dHIT:    1841033  dMISS:     249007  itACCESS:          0  itHIT:          0  itMISS:          0  dtACCESS:          0  dtHIT:          0  dtMISS:          0
cpu0_STLB LOAD         ACCESS:    2554523  HIT:    2195588  MISS:     358935  iACCESS:     464483  iHIT:     354555  iMISS:     109928  dACCESS:    2090040  dHIT:    1841033  dMISS:     249007  itACCESS:          0  itHIT:          0  itMISS:          0  dtACCESS:          0  dtHIT:          0  dtMISS:          0
cpu0_STLB RFO          ACCESS:          0  HIT:          0  MISS:          0  iACCESS:          0  iHIT:          0  iMISS:          0  dACCESS:          0  dHIT:          0  dMISS:          0  itACCESS:          0  itHIT:          0  itMISS:          0  dtACCESS:          0  dtHIT:          0  dtMISS:          0
cpu0_STLB PREFETCH     ACCESS:          0  HIT:          0  MISS:          0  iACCESS:          0  iHIT:          0  iMISS:          0  dACCESS:          0  dHIT:          0  dMISS:          0  itACCESS:          0  itHIT:          0  itMISS:          0  dtACCESS:          0  dtHIT:          0  dtMISS:          0
cpu0_STLB WRITE        ACCESS:          0  HIT:          0  MISS:          0  iACCESS:          0  iHIT:          0  iMISS:          0  dACCESS:          0  dHIT:          0  dMISS:          0  itACCESS:          0  itHIT:          0  itMISS:          0  dtACCESS:          0  dtHIT:          0  dtMISS:          0
cpu0_STLB TRANSLATION  ACCESS:          0  HIT:          0  MISS:          0  iACCESS:          0  iHIT:          0  iMISS:          0  dACCESS:          0  dHIT:          0  dMISS:          0  itACCESS:          0  itHIT:          0  itMISS:          0  dtACCESS:          0  dtHIT:          0  dtMISS:          0
cpu0_STLB PREFETCH  REQUESTED:          0  ISSUED:          0  CROSSED:          0  USEFUL:          0  USELESS:          0
cpu0_STLB AVERAGE iMISS LATENCY: 37.5366 cycles
cpu0_STLB AVERAGE dMISS LATENCY: 119.067 cycles
cpu0_STLB AVERAGE itMISS LATENCY: 0 cycles
cpu0_STLB AVERAGE dtMISS LATENCY: 0 cycles
cpu0_STLB PAGE CROSSINGS (TLB HIT):         0 
cpu0_STLB PAGE CROSSINGS (TLB MISS):         0 
cpu0_STLB AVERAGE MISS LATENCY: 156.604 cycles
cpu0_L1D TOTAL       ACCESS:   44419608  HIT:   39190730  MISS:    5228878  iACCESS:          0  iHIT:          0  iMISS:          0  dACCESS:   43887418  dHIT:   39156469  dMISS:    4730949  itACCESS:     124197  itHIT:      14997  itMISS:     109200  dtACCESS:     407993  dtHIT:      19264  dtMISS:     388729
cpu0_L1D LOAD         ACCESS:   20065831  HIT:   17960176  MISS:    2105655  iACCESS:          0  iHIT:          0  iMISS:          0  dACCESS:   20065831  dHIT:   17960176  dMISS:    2105655  itACCESS:          0  itHIT:          0  itMISS:          0  dtACCESS:          0  dtHIT:          0  dtMISS:          0
cpu0_L1D RFO          ACCESS:          0  HIT:          0  MISS:          0  iACCESS:          0  iHIT:          0  iMISS:          0  dACCESS:          0  dHIT:          0  dMISS:          0  itACCESS:          0  itHIT:          0  itMISS:          0  dtACCESS:          0  dtHIT:          0  dtMISS:          0
cpu0_L1D PREFETCH     ACCESS:   13664765  HIT:   11595499  MISS:    2069266  iACCESS:          0  iHIT:          0  iMISS:          0  dACCESS:   13664765  dHIT:   11595499  dMISS:    2069266  itACCESS:          0  itHIT:          0  itMISS:          0  dtACCESS:          0  dtHIT:          0  dtMISS:          0
cpu0_L1D WRITE        ACCESS:   10156822  HIT:    9600794  MISS:     556028  iACCESS:          0  iHIT:          0  iMISS:          0  dACCESS:   10156822  dHIT:    9600794  dMISS:     556028  itACCESS:          0  itHIT:          0  itMISS:          0  dtACCESS:          0  dtHIT:          0  dtMISS:          0
cpu0_L1D TRANSLATION  ACCESS:     532190  HIT:      34261  MISS:     497929  iACCESS:          0  iHIT:          0  iMISS:          0  dACCESS:          0  dHIT:          0  dMISS:          0  itACCESS:     124197  itHIT:      14997  itMISS:     109200  dtACCESS:     407993  dtHIT:      19264  dtMISS:     388729
cpu0_L1D PREFETCH  REQUESTED:   20065831  ISSUED:   18407373  CROSSED:          0  USEFUL:     360809  USELESS:     924261
cpu0_L1D AVERAGE iMISS LATENCY: 0 cycles
cpu0_L1D AVERAGE dMISS LATENCY: 52.3694 cycles
cpu0_L1D AVERAGE itMISS LATENCY: 2.36572 cycles
cpu0_L1D AVERAGE dtMISS LATENCY: 7.15336 cycles
cpu0_L1D PAGE CROSSINGS (TLB HIT):         0 
cpu0_L1D PAGE CROSSINGS (TLB MISS):         0 
cpu0_L1D AVERAGE MISS LATENCY: 61.8884 cycles
cpu0_L2C TOTAL       ACCESS:    8509547  HIT:    1544426  MISS:    6965121  iACCESS:    3746741  iHIT:     817362  iMISS:    2929379  dACCESS:    4294778  dHIT:     537227  dMISS:    3757551  itACCESS:     108124  itHIT:      37015  itMISS:      71109  dtACCESS:     359904  dtHIT:     152822  dtMISS:     207082
cpu0_L2C LOAD         ACCESS:    2024284  HIT:     214305  MISS:    1809979  iACCESS:     832399  iHIT:     119134  iMISS:     713265  dACCESS:    1191885  dHIT:      95171  dMISS:    1096714  itACCESS:          0  itHIT:          0  itMISS:          0  dtACCESS:          0  dtHIT:          0  dtMISS:          0
cpu0_L2C RFO          ACCESS:     208348  HIT:      29491  MISS:     178857  iACCESS:          0  iHIT:          0  iMISS:          0  dACCESS:     208348  dHIT:      29491  dMISS:     178857  itACCESS:          0  itHIT:          0  itMISS:          0  dtACCESS:          0  dtHIT:          0  dtMISS:          0
cpu0_L2C PREFETCH     ACCESS:    5468550  HIT:    1006915  MISS:    4461635  iACCESS:    2914342  iHIT:     698228  iMISS:    2216114  dACCESS:    2554208  dHIT:     308687  dMISS:    2245521  itACCESS:          0  itHIT:          0  itMISS:          0  dtACCESS:          0  dtHIT:          0  dtMISS:          0
cpu0_L2C WRITE        ACCESS:     340337  HIT:     103878  MISS:     236459  iACCESS:          0  iHIT:          0  iMISS:          0  dACCESS:     340337  dHIT:     103878  dMISS:     236459  itACCESS:          0  itHIT:          0  itMISS:          0  dtACCESS:          0  dtHIT:          0  dtMISS:          0
cpu0_L2C TRANSLATION  ACCESS:     468028  HIT:     189837  MISS:     278191  iACCESS:          0  iHIT:          0  iMISS:          0  dACCESS:          0  dHIT:          0  dMISS:          0  itACCESS:     108124  itHIT:      37015  itMISS:      71109  dtACCESS:     359904  dtHIT:     152822  dtMISS:     207082
cpu0_L2C PREFETCH  REQUESTED:    1511508  ISSUED:    1511506  CROSSED:          0  USEFUL:     414678  USELESS:     490948
cpu0_L2C AVERAGE iMISS LATENCY: 26.2919 cycles
cpu0_L2C AVERAGE dMISS LATENCY: 48.6099 cycles
cpu0_L2C AVERAGE itMISS LATENCY: 1.62568 cycles
cpu0_L2C AVERAGE dtMISS LATENCY: 4.87321 cycles
cpu0_L2C PAGE CROSSINGS (TLB HIT):         0 
cpu0_L2C PAGE CROSSINGS (TLB MISS):         0 
cpu0_L2C AVERAGE MISS LATENCY: 81.4006 cycles
LLC TOTAL       ACCESS:    6782152  HIT:    4178475  MISS:    2603677  iACCESS:    2836084  iHIT:    2011091  iMISS:     824993  dACCESS:    3667877  dHIT:    2101993  dMISS:    1565884  itACCESS:      71109  itHIT:      15622  itMISS:      55487  dtACCESS:     207082  dtHIT:      49769  dtMISS:     157313
LLC LOAD         ACCESS:    1805003  HIT:    1185720  MISS:     619283  iACCESS:     711906  iHIT:     540255  iMISS:     171651  dACCESS:    1093097  dHIT:     645465  dMISS:     447632  itACCESS:          0  itHIT:          0  itMISS:          0  dtACCESS:          0  dtHIT:          0  dtMISS:          0
LLC RFO          ACCESS:     178845  HIT:      93040  MISS:      85805  iACCESS:          0  iHIT:          0  iMISS:          0  dACCESS:     178845  dHIT:      93040  dMISS:      85805  itACCESS:          0  itHIT:          0  itMISS:          0  dtACCESS:          0  dtHIT:          0  dtMISS:          0
LLC PREFETCH     ACCESS:    4254253  HIT:    2575879  MISS:    1678374  iACCESS:    2124178  iHIT:    1470836  iMISS:     653342  dACCESS:    2130075  dHIT:    1105043  dMISS:    1025032  itACCESS:          0  itHIT:          0  itMISS:          0  dtACCESS:          0  dtHIT:          0  dtMISS:          0
LLC WRITE        ACCESS:     265860  HIT:     258445  MISS:       7415  iACCESS:          0  iHIT:          0  iMISS:          0  dACCESS:     265860  dHIT:     258445  dMISS:       7415  itACCESS:          0  itHIT:          0  itMISS:          0  dtACCESS:          0  dtHIT:          0  dtMISS:          0
LLC TRANSLATION  ACCESS:     278191  HIT:      65391  MISS:     212800  iACCESS:          0  iHIT:          0  iMISS:          0  dACCESS:          0  dHIT:          0  dMISS:          0  itACCESS:      71109  itHIT:      15622  itMISS:      55487  dtACCESS:     207082  dtHIT:      49769  dtMISS:     157313
LLC PREFETCH  REQUESTED:          0  ISSUED:          0  CROSSED:          0  USEFUL:          0  USELESS:          0
LLC AVERAGE iMISS LATENCY: 49.1877 cycles
LLC AVERAGE dMISS LATENCY: 105.215 cycles
LLC AVERAGE itMISS LATENCY: 3.81053 cycles
LLC AVERAGE dtMISS LATENCY: 11.4706 cycles
LLC PAGE CROSSINGS (TLB HIT):         0 
LLC PAGE CROSSINGS (TLB MISS):         0 
LLC AVERAGE MISS LATENCY: 169.683 cycles

PageTableWalker TOTAL       ACCESS:     173709  
PageTableWalker AVERAGE LATENCY: 5.89618 cycles
PageTableWalker TOTAL LATENCY: 1024219 cycles

DRAM Statistics
Channel 0
 RQ ROW_BUFFER_HIT:     605681
  ROW_BUFFER_MISS:    1980902
 AVG DBUS CONGESTED CYCLE:    3.64888
 WQ ROW_BUFFER_HIT:      62599
  ROW_BUFFER_MISS:      57770  FULL:          0

