last_page:0x200000000000000
VMEM_RES_CAP:0x100000
PAGE_SIZE:4096
LOG2_PAGE_SIZE:12
LOG2_PAGE_TABLE_SIZE:9
page_table_levels:5
WARNING: physical memory size is smaller than virtual memory size
FDiP enabled with aggresivity 16

*** ChampSim Multicore Out-of-Order Simulator ***

Warmup Instructions: 50000000
Simulation Instructions: 100000000
Number of CPUs: 1
Small page size: 4096
Large page size: 2097152

CPU 0 Bimodal branch predictor
Basic BTB sets: 1024 ways: 8 indirect buffer size: 4096 RAS size: 64
Instruction page size distrubution: 0
Loading instruction page size distribution from /home/bsc/bsc018186/scratch/itp_asplos25_AE/dump/srv133_ap.pdst
Data page size distrubution: 0
Loading data page size distribution from /home/bsc/bsc018186/scratch/itp_asplos25_AE/dump/srv133_ap.pdst
cpu0_L2C IP-based stride prefetcher
cpu0_L2C is using PTP replacement policy:
	TLB_STRESS_THRESHOLD:0
	PTE_EVICTION_RATIO:0
cpu0_L1D next line prefetcher
cpu0_STLB using iTP with max lru@8
cpu0_STLB using iTP with instr@0 and data@2
Init sat counter with 3 bits (max:50).
cpu0_L1I next line prefetcher
Off-chip DRAM Size: 4 GiB Channels: 1 Width: 64-bit Data Rate: 3200 MT/s
Heartbeat CPU 0 instructions: 10000003 cycles: 2500119 heartbeat IPC: 3.99982 cumulative IPC: 3.99982 (Simulation time: 0 hr 0 min 37 sec) 
Heartbeat CPU 0 instructions: 20000003 cycles: 5000191 heartbeat IPC: 3.99989 cumulative IPC: 3.99985 (Simulation time: 0 hr 1 min 15 sec) 
Heartbeat CPU 0 instructions: 30000000 cycles: 7500205 heartbeat IPC: 3.99998 cumulative IPC: 3.9999 (Simulation time: 0 hr 1 min 53 sec) 
Heartbeat CPU 0 instructions: 40000002 cycles: 10000218 heartbeat IPC: 3.99999 cumulative IPC: 3.99992 (Simulation time: 0 hr 2 min 32 sec) 
Heartbeat CPU 0 instructions: 50000002 cycles: 12500274 heartbeat IPC: 3.99992 cumulative IPC: 3.99992 (Simulation time: 0 hr 3 min 12 sec) 
Warmup finished CPU 0 instructions: 50000002 cycles: 12500275 cumulative IPC: 3.99992 (Simulation time: 0 hr 3 min 12 sec) 

Warmup complete CPU 0 instructions: 50000002 cycles: 12500275 (Simulation time: 0 hr 3 min 12 sec) 

Heartbeat CPU 0 instructions: 60000001 cycles: 26676950 heartbeat IPC: 0.705384 cumulative IPC: 0.705384 (Simulation time: 0 hr 4 min 13 sec) 
Heartbeat CPU 0 instructions: 70000003 cycles: 41020572 heartbeat IPC: 0.697175 cumulative IPC: 0.701256 (Simulation time: 0 hr 5 min 14 sec) 
Heartbeat CPU 0 instructions: 80000001 cycles: 55495060 heartbeat IPC: 0.690871 cumulative IPC: 0.69776 (Simulation time: 0 hr 6 min 15 sec) 
Heartbeat CPU 0 instructions: 90000004 cycles: 70018254 heartbeat IPC: 0.688554 cumulative IPC: 0.695435 (Simulation time: 0 hr 7 min 16 sec) 
Heartbeat CPU 0 instructions: 100000000 cycles: 84625757 heartbeat IPC: 0.68458 cumulative IPC: 0.693237 (Simulation time: 0 hr 8 min 18 sec) 
*** Reached end of trace: /gpfs/projects/bsc18/MN4/bsc18/romol/ChampSim/traces/qualcomm_srv/srv133_ap.champsimtrace.xz
Heartbeat CPU 0 instructions: 110000004 cycles: 99863925 heartbeat IPC: 0.656248 cumulative IPC: 0.686785 (Simulation time: 0 hr 9 min 21 sec) 
Heartbeat CPU 0 instructions: 120000004 cycles: 114226710 heartbeat IPC: 0.696244 cumulative IPC: 0.688121 (Simulation time: 0 hr 10 min 22 sec) 
Heartbeat CPU 0 instructions: 130000000 cycles: 127981369 heartbeat IPC: 0.727027 cumulative IPC: 0.692755 (Simulation time: 0 hr 11 min 22 sec) 
Heartbeat CPU 0 instructions: 140000003 cycles: 141793188 heartbeat IPC: 0.724018 cumulative IPC: 0.696094 (Simulation time: 0 hr 12 min 23 sec) 
Heartbeat CPU 0 instructions: 150000001 cycles: 156034477 heartbeat IPC: 0.702184 cumulative IPC: 0.696699 (Simulation time: 0 hr 13 min 28 sec) 
Simulation finished CPU 0 instructions: 100000003 cycles: 143534204 cumulative IPC: 0.696699 (Simulation time: 0 hr 13 min 28 sec) 

Simulation complete CPU 0 instructions: 100000003 cycles: 143534204 (Simulation time: 0 hr 13 min 28 sec) 


ChampSim completed all CPUs

Saving instructions large page distribution to /home/bsc/bsc018186/scratch/itp_asplos25_AE/dump/srv133_ap.pdst...
Saving data large page distribution to /home/bsc/bsc018186/scratch/itp_asplos25_AE/dump/srv133_ap.pdst...
=== Simulation ===
CPU 0 runs /gpfs/projects/bsc18/MN4/bsc18/romol/ChampSim/traces/qualcomm_srv/srv133_ap.champsimtrace.xz

Region of Interest Statistics

CPU 0 cumulative IPC: 0.696699 instructions: 100000003 cycles: 143534204
CPU 0 Branch Prediction Accuracy: 82.6476% MPKI: 31.112 Average ROB Occupancy at Mispredict: 12.9529
Branch type MPKI
BRANCH_DIRECT_JUMP: 1.04507
BRANCH_INDIRECT: 16.1102
BRANCH_CONDITIONAL: 10.1887
BRANCH_DIRECT_CALL: 1.89521
BRANCH_INDIRECT_CALL: 0.51874
BRANCH_RETURN: 1.35407

Instructions large pages: 0
Instructions small pages: 1119
Large page distribution for instructions: 0%

Data large pages: 0
Data small pages: 9274
Large page distribution for data: 0%

cpu0_L1I TOTAL       ACCESS:   35766510  HIT:   27301680  MISS:    8464830  iACCESS:   35766510  iHIT:   27301680  iMISS:    8464830  dACCESS:          0  dHIT:          0  dMISS:          0  itACCESS:          0  itHIT:          0  itMISS:          0  dtACCESS:          0  dtHIT:          0  dtMISS:          0
cpu0_L1I LOAD         ACCESS:   10478311  HIT:    8118049  MISS:    2360262  iACCESS:   10478311  iHIT:    8118049  iMISS:    2360262  dACCESS:          0  dHIT:          0  dMISS:          0  itACCESS:          0  itHIT:          0  itMISS:          0  dtACCESS:          0  dtHIT:          0  dtMISS:          0
cpu0_L1I RFO          ACCESS:          0  HIT:          0  MISS:          0  iACCESS:          0  iHIT:          0  iMISS:          0  dACCESS:          0  dHIT:          0  dMISS:          0  itACCESS:          0  itHIT:          0  itMISS:          0  dtACCESS:          0  dtHIT:          0  dtMISS:          0
cpu0_L1I PREFETCH     ACCESS:   25288199  HIT:   19183631  MISS:    6104568  iACCESS:   25288199  iHIT:   19183631  iMISS:    6104568  dACCESS:          0  dHIT:          0  dMISS:          0  itACCESS:          0  itHIT:          0  itMISS:          0  dtACCESS:          0  dtHIT:          0  dtMISS:          0
cpu0_L1I WRITE        ACCESS:          0  HIT:          0  MISS:          0  iACCESS:          0  iHIT:          0  iMISS:          0  dACCESS:          0  dHIT:          0  dMISS:          0  itACCESS:          0  itHIT:          0  itMISS:          0  dtACCESS:          0  dtHIT:          0  dtMISS:          0
cpu0_L1I TRANSLATION  ACCESS:          0  HIT:          0  MISS:          0  iACCESS:          0  iHIT:          0  iMISS:          0  dACCESS:          0  dHIT:          0  dMISS:          0  itACCESS:          0  itHIT:          0  itMISS:          0  dtACCESS:          0  dtHIT:          0  dtMISS:          0
cpu0_L1I PREFETCH  REQUESTED:   27565085  ISSUED:   27562576  CROSSED:          0  USEFUL:    1938212  USELESS:     626704
cpu0_L1I AVERAGE iMISS LATENCY: 13.7354 cycles
cpu0_L1I AVERAGE dMISS LATENCY: 0 cycles
cpu0_L1I AVERAGE itMISS LATENCY: 0 cycles
cpu0_L1I AVERAGE dtMISS LATENCY: 0 cycles
cpu0_L1I PAGE CROSSINGS (TLB HIT):         0 
cpu0_L1I PAGE CROSSINGS (TLB MISS):         0 
cpu0_L1I AVERAGE MISS LATENCY: 13.7354 cycles
cpu0_ITLB TOTAL       ACCESS:   29525805  HIT:   27608359  MISS:    1917446  iACCESS:   29525805  iHIT:   27608359  iMISS:    1917446  dACCESS:          0  dHIT:          0  dMISS:          0  itACCESS:          0  itHIT:          0  itMISS:          0  dtACCESS:          0  dtHIT:          0  dtMISS:          0
cpu0_ITLB LOAD         ACCESS:   29525805  HIT:   27608359  MISS:    1917446  iACCESS:   29525805  iHIT:   27608359  iMISS:    1917446  dACCESS:          0  dHIT:          0  dMISS:          0  itACCESS:          0  itHIT:          0  itMISS:          0  dtACCESS:          0  dtHIT:          0  dtMISS:          0
cpu0_ITLB RFO          ACCESS:          0  HIT:          0  MISS:          0  iACCESS:          0  iHIT:          0  iMISS:          0  dACCESS:          0  dHIT:          0  dMISS:          0  itACCESS:          0  itHIT:          0  itMISS:          0  dtACCESS:          0  dtHIT:          0  dtMISS:          0
cpu0_ITLB PREFETCH     ACCESS:          0  HIT:          0  MISS:          0  iACCESS:          0  iHIT:          0  iMISS:          0  dACCESS:          0  dHIT:          0  dMISS:          0  itACCESS:          0  itHIT:          0  itMISS:          0  dtACCESS:          0  dtHIT:          0  dtMISS:          0
cpu0_ITLB WRITE        ACCESS:          0  HIT:          0  MISS:          0  iACCESS:          0  iHIT:          0  iMISS:          0  dACCESS:          0  dHIT:          0  dMISS:          0  itACCESS:          0  itHIT:          0  itMISS:          0  dtACCESS:          0  dtHIT:          0  dtMISS:          0
cpu0_ITLB TRANSLATION  ACCESS:          0  HIT:          0  MISS:          0  iACCESS:          0  iHIT:          0  iMISS:          0  dACCESS:          0  dHIT:          0  dMISS:          0  itACCESS:          0  itHIT:          0  itMISS:          0  dtACCESS:          0  dtHIT:          0  dtMISS:          0
cpu0_ITLB PREFETCH  REQUESTED:          0  ISSUED:          0  CROSSED:          0  USEFUL:     317073  USELESS:      63130
cpu0_ITLB AVERAGE iMISS LATENCY: 1.99427 cycles
cpu0_ITLB AVERAGE dMISS LATENCY: 0 cycles
cpu0_ITLB AVERAGE itMISS LATENCY: 0 cycles
cpu0_ITLB AVERAGE dtMISS LATENCY: 0 cycles
cpu0_ITLB PAGE CROSSINGS (TLB HIT):         0 
cpu0_ITLB PAGE CROSSINGS (TLB MISS):         0 
cpu0_ITLB AVERAGE MISS LATENCY: 1.99427 cycles
cpu0_DTLB TOTAL       ACCESS:   27901258  HIT:   26079725  MISS:    1821533  iACCESS:          0  iHIT:          0  iMISS:          0  dACCESS:   27901258  dHIT:   26079725  dMISS:    1821533  itACCESS:          0  itHIT:          0  itMISS:          0  dtACCESS:          0  dtHIT:          0  dtMISS:          0
cpu0_DTLB LOAD         ACCESS:   27901258  HIT:   26079725  MISS:    1821533  iACCESS:          0  iHIT:          0  iMISS:          0  dACCESS:   27901258  dHIT:   26079725  dMISS:    1821533  itACCESS:          0  itHIT:          0  itMISS:          0  dtACCESS:          0  dtHIT:          0  dtMISS:          0
cpu0_DTLB RFO          ACCESS:          0  HIT:          0  MISS:          0  iACCESS:          0  iHIT:          0  iMISS:          0  dACCESS:          0  dHIT:          0  dMISS:          0  itACCESS:          0  itHIT:          0  itMISS:          0  dtACCESS:          0  dtHIT:          0  dtMISS:          0
cpu0_DTLB PREFETCH     ACCESS:          0  HIT:          0  MISS:          0  iACCESS:          0  iHIT:          0  iMISS:          0  dACCESS:          0  dHIT:          0  dMISS:          0  itACCESS:          0  itHIT:          0  itMISS:          0  dtACCESS:          0  dtHIT:          0  dtMISS:          0
cpu0_DTLB WRITE        ACCESS:          0  HIT:          0  MISS:          0  iACCESS:          0  iHIT:          0  iMISS:          0  dACCESS:          0  dHIT:          0  dMISS:          0  itACCESS:          0  itHIT:          0  itMISS:          0  dtACCESS:          0  dtHIT:          0  dtMISS:          0
cpu0_DTLB TRANSLATION  ACCESS:          0  HIT:          0  MISS:          0  iACCESS:          0  iHIT:          0  iMISS:          0  dACCESS:          0  dHIT:          0  dMISS:          0  itACCESS:          0  itHIT:          0  itMISS:          0  dtACCESS:          0  dtHIT:          0  dtMISS:          0
cpu0_DTLB PREFETCH  REQUESTED:          0  ISSUED:          0  CROSSED:          0  USEFUL:          0  USELESS:          0
cpu0_DTLB AVERAGE iMISS LATENCY: 0 cycles
cpu0_DTLB AVERAGE dMISS LATENCY: 10.9924 cycles
cpu0_DTLB AVERAGE itMISS LATENCY: 0 cycles
cpu0_DTLB AVERAGE dtMISS LATENCY: 0 cycles
cpu0_DTLB PAGE CROSSINGS (TLB HIT):         0 
cpu0_DTLB PAGE CROSSINGS (TLB MISS):         0 
cpu0_DTLB AVERAGE MISS LATENCY: 10.9924 cycles
cpu0_STLB TOTAL       ACCESS:    1506291  HIT:    1361566  MISS:     144725  iACCESS:     380213  iHIT:     370512  iMISS:       9701  dACCESS:    1126078  dHIT:     991054  dMISS:     135024  itACCESS:          0  itHIT:          0  itMISS:          0  dtACCESS:          0  dtHIT:          0  dtMISS:          0
cpu0_STLB LOAD         ACCESS:    1506291  HIT:    1361566  MISS:     144725  iACCESS:     380213  iHIT:     370512  iMISS:       9701  dACCESS:    1126078  dHIT:     991054  dMISS:     135024  itACCESS:          0  itHIT:          0  itMISS:          0  dtACCESS:          0  dtHIT:          0  dtMISS:          0
cpu0_STLB RFO          ACCESS:          0  HIT:          0  MISS:          0  iACCESS:          0  iHIT:          0  iMISS:          0  dACCESS:          0  dHIT:          0  dMISS:          0  itACCESS:          0  itHIT:          0  itMISS:          0  dtACCESS:          0  dtHIT:          0  dtMISS:          0
cpu0_STLB PREFETCH     ACCESS:          0  HIT:          0  MISS:          0  iACCESS:          0  iHIT:          0  iMISS:          0  dACCESS:          0  dHIT:          0  dMISS:          0  itACCESS:          0  itHIT:          0  itMISS:          0  dtACCESS:          0  dtHIT:          0  dtMISS:          0
cpu0_STLB WRITE        ACCESS:          0  HIT:          0  MISS:          0  iACCESS:          0  iHIT:          0  iMISS:          0  dACCESS:          0  dHIT:          0  dMISS:          0  itACCESS:          0  itHIT:          0  itMISS:          0  dtACCESS:          0  dtHIT:          0  dtMISS:          0
cpu0_STLB TRANSLATION  ACCESS:          0  HIT:          0  MISS:          0  iACCESS:          0  iHIT:          0  iMISS:          0  dACCESS:          0  dHIT:          0  dMISS:          0  itACCESS:          0  itHIT:          0  itMISS:          0  dtACCESS:          0  dtHIT:          0  dtMISS:          0
cpu0_STLB PREFETCH  REQUESTED:          0  ISSUED:          0  CROSSED:          0  USEFUL:          0  USELESS:          0
cpu0_STLB AVERAGE iMISS LATENCY: 6.04878 cycles
cpu0_STLB AVERAGE dMISS LATENCY: 76.0656 cycles
cpu0_STLB AVERAGE itMISS LATENCY: 0 cycles
cpu0_STLB AVERAGE dtMISS LATENCY: 0 cycles
cpu0_STLB PAGE CROSSINGS (TLB HIT):         0 
cpu0_STLB PAGE CROSSINGS (TLB MISS):         0 
cpu0_STLB AVERAGE MISS LATENCY: 82.1144 cycles
cpu0_L1D TOTAL       ACCESS:   41674066  HIT:   38155607  MISS:    3518459  iACCESS:          0  iHIT:          0  iMISS:          0  dACCESS:   41463571  dHIT:   38142318  dMISS:    3321253  itACCESS:      11386  itHIT:       1074  itMISS:      10312  dtACCESS:     199109  dtHIT:      12215  dtMISS:     186894
cpu0_L1D LOAD         ACCESS:   19114822  HIT:   17604921  MISS:    1509901  iACCESS:          0  iHIT:          0  iMISS:          0  dACCESS:   19114822  dHIT:   17604921  dMISS:    1509901  itACCESS:          0  itHIT:          0  itMISS:          0  dtACCESS:          0  dtHIT:          0  dtMISS:          0
cpu0_L1D RFO          ACCESS:          0  HIT:          0  MISS:          0  iACCESS:          0  iHIT:          0  iMISS:          0  dACCESS:          0  dHIT:          0  dMISS:          0  itACCESS:          0  itHIT:          0  itMISS:          0  dtACCESS:          0  dtHIT:          0  dtMISS:          0
cpu0_L1D PREFETCH     ACCESS:   12154779  HIT:   10782339  MISS:    1372440  iACCESS:          0  iHIT:          0  iMISS:          0  dACCESS:   12154779  dHIT:   10782339  dMISS:    1372440  itACCESS:          0  itHIT:          0  itMISS:          0  dtACCESS:          0  dtHIT:          0  dtMISS:          0
cpu0_L1D WRITE        ACCESS:   10193970  HIT:    9755058  MISS:     438912  iACCESS:          0  iHIT:          0  iMISS:          0  dACCESS:   10193970  dHIT:    9755058  dMISS:     438912  itACCESS:          0  itHIT:          0  itMISS:          0  dtACCESS:          0  dtHIT:          0  dtMISS:          0
cpu0_L1D TRANSLATION  ACCESS:     210495  HIT:      13289  MISS:     197206  iACCESS:          0  iHIT:          0  iMISS:          0  dACCESS:          0  dHIT:          0  dMISS:          0  itACCESS:      11386  itHIT:       1074  itMISS:      10312  dtACCESS:     199109  dtHIT:      12215  dtMISS:     186894
cpu0_L1D PREFETCH  REQUESTED:   19114822  ISSUED:   16920830  CROSSED:          0  USEFUL:     306081  USELESS:     702154
cpu0_L1D AVERAGE iMISS LATENCY: 0 cycles
cpu0_L1D AVERAGE dMISS LATENCY: 35.8354 cycles
cpu0_L1D AVERAGE itMISS LATENCY: 0.220237 cycles
cpu0_L1D AVERAGE dtMISS LATENCY: 2.41013 cycles
cpu0_L1D PAGE CROSSINGS (TLB HIT):         0 
cpu0_L1D PAGE CROSSINGS (TLB MISS):         0 
cpu0_L1D AVERAGE MISS LATENCY: 38.4658 cycles
cpu0_L2C TOTAL       ACCESS:    6996400  HIT:    1230884  MISS:    5765516  iACCESS:    3302184  iHIT:     712853  iMISS:    2589331  dACCESS:    3504182  dHIT:     383177  dMISS:    3121005  itACCESS:      10200  itHIT:       4803  itMISS:       5397  dtACCESS:     179834  dtHIT:     130051  dtMISS:      49783
cpu0_L2C LOAD         ACCESS:    1705538  HIT:     140441  MISS:    1565097  iACCESS:     775554  iHIT:     103987  iMISS:     671567  dACCESS:     929984  dHIT:      36454  dMISS:     893530  itACCESS:          0  itHIT:          0  itMISS:          0  dtACCESS:          0  dtHIT:          0  dtMISS:          0
cpu0_L2C RFO          ACCESS:     158331  HIT:       8200  MISS:     150131  iACCESS:          0  iHIT:          0  iMISS:          0  dACCESS:     158331  dHIT:       8200  dMISS:     150131  itACCESS:          0  itHIT:          0  itMISS:          0  dtACCESS:          0  dtHIT:          0  dtMISS:          0
cpu0_L2C PREFETCH     ACCESS:    4660985  HIT:     894538  MISS:    3766447  iACCESS:    2526630  iHIT:     608866  iMISS:    1917764  dACCESS:    2134355  dHIT:     285672  dMISS:    1848683  itACCESS:          0  itHIT:          0  itMISS:          0  dtACCESS:          0  dtHIT:          0  dtMISS:          0
cpu0_L2C WRITE        ACCESS:     281512  HIT:      52851  MISS:     228661  iACCESS:          0  iHIT:          0  iMISS:          0  dACCESS:     281512  dHIT:      52851  dMISS:     228661  itACCESS:          0  itHIT:          0  itMISS:          0  dtACCESS:          0  dtHIT:          0  dtMISS:          0
cpu0_L2C TRANSLATION  ACCESS:     190034  HIT:     134854  MISS:      55180  iACCESS:          0  iHIT:          0  iMISS:          0  dACCESS:          0  dHIT:          0  dMISS:          0  itACCESS:      10200  itHIT:       4803  itMISS:       5397  dtACCESS:     179834  dtHIT:     130051  dtMISS:      49783
cpu0_L2C PREFETCH  REQUESTED:    1392173  ISSUED:    1392173  CROSSED:          0  USEFUL:     432839  USELESS:     384026
cpu0_L2C AVERAGE iMISS LATENCY: 14.7535 cycles
cpu0_L2C AVERAGE dMISS LATENCY: 25.5065 cycles
cpu0_L2C AVERAGE itMISS LATENCY: 0.117507 cycles
cpu0_L2C AVERAGE dtMISS LATENCY: 1.17989 cycles
cpu0_L2C PAGE CROSSINGS (TLB HIT):         0 
cpu0_L2C PAGE CROSSINGS (TLB MISS):         0 
cpu0_L2C AVERAGE MISS LATENCY: 41.5574 cycles
LLC TOTAL       ACCESS:    5684817  HIT:    4846338  MISS:     838479  iACCESS:    2535590  iHIT:    2291192  iMISS:     244398  dACCESS:    3094047  dHIT:    2536339  dMISS:     557708  itACCESS:       5397  itHIT:       2092  itMISS:       3305  dtACCESS:      49783  dtHIT:      16715  dtMISS:      33068
LLC LOAD         ACCESS:    1563456  HIT:    1371174  MISS:     192282  iACCESS:     670265  iHIT:     618275  iMISS:      51990  dACCESS:     893191  dHIT:     752899  dMISS:     140292  itACCESS:          0  itHIT:          0  itMISS:          0  dtACCESS:          0  dtHIT:          0  dtMISS:          0
LLC RFO          ACCESS:     150114  HIT:     110111  MISS:      40003  iACCESS:          0  iHIT:          0  iMISS:          0  dACCESS:     150114  dHIT:     110111  dMISS:      40003  itACCESS:          0  itHIT:          0  itMISS:          0  dtACCESS:          0  dtHIT:          0  dtMISS:          0
LLC PREFETCH     ACCESS:    3658962  HIT:    3089141  MISS:     569821  iACCESS:    1865325  iHIT:    1672917  iMISS:     192408  dACCESS:    1793637  dHIT:    1416224  dMISS:     377413  itACCESS:          0  itHIT:          0  itMISS:          0  dtACCESS:          0  dtHIT:          0  dtMISS:          0
LLC WRITE        ACCESS:     257105  HIT:     257105  MISS:          0  iACCESS:          0  iHIT:          0  iMISS:          0  dACCESS:     257105  dHIT:     257105  dMISS:          0  itACCESS:          0  itHIT:          0  itMISS:          0  dtACCESS:          0  dtHIT:          0  dtMISS:          0
LLC TRANSLATION  ACCESS:      55180  HIT:      18807  MISS:      36373  iACCESS:          0  iHIT:          0  iMISS:          0  dACCESS:          0  dHIT:          0  dMISS:          0  itACCESS:       5397  itHIT:       2092  itMISS:       3305  dtACCESS:      49783  dtHIT:      16715  dtMISS:      33068
LLC PREFETCH  REQUESTED:          0  ISSUED:          0  CROSSED:          0  USEFUL:          0  USELESS:          0
LLC AVERAGE iMISS LATENCY: 43.1145 cycles
LLC AVERAGE dMISS LATENCY: 110.148 cycles
LLC AVERAGE itMISS LATENCY: 0.681991 cycles
LLC AVERAGE dtMISS LATENCY: 6.94803 cycles
LLC PAGE CROSSINGS (TLB HIT):         0 
LLC PAGE CROSSINGS (TLB MISS):         0 
LLC AVERAGE MISS LATENCY: 160.892 cycles

PageTableWalker TOTAL       ACCESS:      70330  
PageTableWalker AVERAGE LATENCY: 4.7042 cycles
PageTableWalker TOTAL LATENCY: 330846 cycles

DRAM Statistics
Channel 0
 RQ ROW_BUFFER_HIT:     225190
  ROW_BUFFER_MISS:     613182
 AVG DBUS CONGESTED CYCLE:     3.6386
 WQ ROW_BUFFER_HIT:      21187
  ROW_BUFFER_MISS:      29818  FULL:          0

