last_page:0x200000000000000
VMEM_RES_CAP:0x100000
PAGE_SIZE:4096
LOG2_PAGE_SIZE:12
LOG2_PAGE_TABLE_SIZE:9
page_table_levels:5
WARNING: physical memory size is smaller than virtual memory size
FDiP enabled with aggresivity 16

*** ChampSim Multicore Out-of-Order Simulator ***

Warmup Instructions: 50000000
Simulation Instructions: 100000000
Number of CPUs: 1
Small page size: 4096
Large page size: 2097152

CPU 0 Bimodal branch predictor
Basic BTB sets: 1024 ways: 8 indirect buffer size: 4096 RAS size: 64
Instruction page size distrubution: 0
Loading instruction page size distribution from /home/bsc/bsc018186/scratch/itp_asplos25_AE/dump/srv162_ap.pdst
Data page size distrubution: 0
Loading data page size distribution from /home/bsc/bsc018186/scratch/itp_asplos25_AE/dump/srv162_ap.pdst
cpu0_L2C IP-based stride prefetcher
cpu0_L1D next line prefetcher
cpu0_STLB using iTP with max lru@8
cpu0_STLB using iTP with instr@0 and data@2
Init sat counter with 3 bits (max:50).
cpu0_L1I next line prefetcher
Off-chip DRAM Size: 4 GiB Channels: 1 Width: 64-bit Data Rate: 3200 MT/s
Heartbeat CPU 0 instructions: 10000002 cycles: 2500153 heartbeat IPC: 3.99976 cumulative IPC: 3.99976 (Simulation time: 0 hr 0 min 36 sec) 
Heartbeat CPU 0 instructions: 20000002 cycles: 5001832 heartbeat IPC: 3.99732 cumulative IPC: 3.99854 (Simulation time: 0 hr 1 min 15 sec) 
Heartbeat CPU 0 instructions: 30000002 cycles: 7501894 heartbeat IPC: 3.99991 cumulative IPC: 3.999 (Simulation time: 0 hr 1 min 54 sec) 
Heartbeat CPU 0 instructions: 40000002 cycles: 10001894 heartbeat IPC: 4 cumulative IPC: 3.99925 (Simulation time: 0 hr 2 min 34 sec) 
Heartbeat CPU 0 instructions: 50000001 cycles: 12501901 heartbeat IPC: 3.99999 cumulative IPC: 3.9994 (Simulation time: 0 hr 3 min 14 sec) 
Warmup finished CPU 0 instructions: 50000001 cycles: 12501902 cumulative IPC: 3.9994 (Simulation time: 0 hr 3 min 14 sec) 

Warmup complete CPU 0 instructions: 50000001 cycles: 12501902 (Simulation time: 0 hr 3 min 14 sec) 

Heartbeat CPU 0 instructions: 60000001 cycles: 27346500 heartbeat IPC: 0.673646 cumulative IPC: 0.673646 (Simulation time: 0 hr 4 min 17 sec) 
Heartbeat CPU 0 instructions: 70000004 cycles: 42410235 heartbeat IPC: 0.663847 cumulative IPC: 0.668711 (Simulation time: 0 hr 5 min 21 sec) 
Heartbeat CPU 0 instructions: 80000003 cycles: 57622289 heartbeat IPC: 0.657374 cumulative IPC: 0.664888 (Simulation time: 0 hr 6 min 27 sec) 
Heartbeat CPU 0 instructions: 90000000 cycles: 72323393 heartbeat IPC: 0.680221 cumulative IPC: 0.668657 (Simulation time: 0 hr 7 min 32 sec) 
Heartbeat CPU 0 instructions: 100000000 cycles: 87005363 heartbeat IPC: 0.681108 cumulative IPC: 0.67111 (Simulation time: 0 hr 8 min 37 sec) 
*** Reached end of trace: /gpfs/projects/bsc18/MN4/bsc18/romol/ChampSim/traces/qualcomm_srv/srv162_ap.champsimtrace.xz
Heartbeat CPU 0 instructions: 110000003 cycles: 101049231 heartbeat IPC: 0.712055 cumulative IPC: 0.677604 (Simulation time: 0 hr 9 min 41 sec) 
Heartbeat CPU 0 instructions: 120000000 cycles: 116345669 heartbeat IPC: 0.653747 cumulative IPC: 0.67409 (Simulation time: 0 hr 10 min 46 sec) 
Heartbeat CPU 0 instructions: 130000001 cycles: 130849923 heartbeat IPC: 0.689453 cumulative IPC: 0.675973 (Simulation time: 0 hr 11 min 50 sec) 
Heartbeat CPU 0 instructions: 140000004 cycles: 144845853 heartbeat IPC: 0.714494 cumulative IPC: 0.680047 (Simulation time: 0 hr 12 min 53 sec) 
Heartbeat CPU 0 instructions: 150000001 cycles: 160049673 heartbeat IPC: 0.65773 cumulative IPC: 0.677747 (Simulation time: 0 hr 13 min 58 sec) 
Simulation finished CPU 0 instructions: 100000000 cycles: 147547772 cumulative IPC: 0.677747 (Simulation time: 0 hr 13 min 58 sec) 

Simulation complete CPU 0 instructions: 100000000 cycles: 147547772 (Simulation time: 0 hr 13 min 58 sec) 


ChampSim completed all CPUs

Saving instructions large page distribution to /home/bsc/bsc018186/scratch/itp_asplos25_AE/dump/srv162_ap.pdst...
Saving data large page distribution to /home/bsc/bsc018186/scratch/itp_asplos25_AE/dump/srv162_ap.pdst...
=== Simulation ===
CPU 0 runs /gpfs/projects/bsc18/MN4/bsc18/romol/ChampSim/traces/qualcomm_srv/srv162_ap.champsimtrace.xz

Region of Interest Statistics

CPU 0 cumulative IPC: 0.677747 instructions: 100000000 cycles: 147547772
CPU 0 Branch Prediction Accuracy: 83.3515% MPKI: 29.8901 Average ROB Occupancy at Mispredict: 12.8319
Branch type MPKI
BRANCH_DIRECT_JUMP: 0.958501
BRANCH_INDIRECT: 15.4862
BRANCH_CONDITIONAL: 9.78296
BRANCH_DIRECT_CALL: 1.8333
BRANCH_INDIRECT_CALL: 0.498451
BRANCH_RETURN: 1.33068

Instructions large pages: 0
Instructions small pages: 10372
Large page distribution for instructions: 0%

Data large pages: 0
Data small pages: 9441
Large page distribution for data: 0%

cpu0_L1I TOTAL       ACCESS:   34550106  HIT:   26616361  MISS:    7933745  iACCESS:   34550106  iHIT:   26616361  iMISS:    7933745  dACCESS:          0  dHIT:          0  dMISS:          0  itACCESS:          0  itHIT:          0  itMISS:          0  dtACCESS:          0  dtHIT:          0  dtMISS:          0
cpu0_L1I LOAD         ACCESS:   10068005  HIT:    7836557  MISS:    2231448  iACCESS:   10068005  iHIT:    7836557  iMISS:    2231448  dACCESS:          0  dHIT:          0  dMISS:          0  itACCESS:          0  itHIT:          0  itMISS:          0  dtACCESS:          0  dtHIT:          0  dtMISS:          0
cpu0_L1I RFO          ACCESS:          0  HIT:          0  MISS:          0  iACCESS:          0  iHIT:          0  iMISS:          0  dACCESS:          0  dHIT:          0  dMISS:          0  itACCESS:          0  itHIT:          0  itMISS:          0  dtACCESS:          0  dtHIT:          0  dtMISS:          0
cpu0_L1I PREFETCH     ACCESS:   24482101  HIT:   18779804  MISS:    5702297  iACCESS:   24482101  iHIT:   18779804  iMISS:    5702297  dACCESS:          0  dHIT:          0  dMISS:          0  itACCESS:          0  itHIT:          0  itMISS:          0  dtACCESS:          0  dtHIT:          0  dtMISS:          0
cpu0_L1I WRITE        ACCESS:          0  HIT:          0  MISS:          0  iACCESS:          0  iHIT:          0  iMISS:          0  dACCESS:          0  dHIT:          0  dMISS:          0  itACCESS:          0  itHIT:          0  itMISS:          0  dtACCESS:          0  dtHIT:          0  dtMISS:          0
cpu0_L1I TRANSLATION  ACCESS:          0  HIT:          0  MISS:          0  iACCESS:          0  iHIT:          0  iMISS:          0  dACCESS:          0  dHIT:          0  dMISS:          0  itACCESS:          0  itHIT:          0  itMISS:          0  dtACCESS:          0  dtHIT:          0  dtMISS:          0
cpu0_L1I PREFETCH  REQUESTED:   26957939  ISSUED:   26957939  CROSSED:          0  USEFUL:    1934123  USELESS:     637488
cpu0_L1I AVERAGE iMISS LATENCY: 12.7432 cycles
cpu0_L1I AVERAGE dMISS LATENCY: 0 cycles
cpu0_L1I AVERAGE itMISS LATENCY: 0 cycles
cpu0_L1I AVERAGE dtMISS LATENCY: 0 cycles
cpu0_L1I PAGE CROSSINGS (TLB HIT):         0 
cpu0_L1I PAGE CROSSINGS (TLB MISS):         0 
cpu0_L1I AVERAGE MISS LATENCY: 12.7432 cycles
cpu0_ITLB TOTAL       ACCESS:   28901519  HIT:   26895160  MISS:    2006359  iACCESS:   28901519  iHIT:   26895160  iMISS:    2006359  dACCESS:          0  dHIT:          0  dMISS:          0  itACCESS:          0  itHIT:          0  itMISS:          0  dtACCESS:          0  dtHIT:          0  dtMISS:          0
cpu0_ITLB LOAD         ACCESS:   28901519  HIT:   26895160  MISS:    2006359  iACCESS:   28901519  iHIT:   26895160  iMISS:    2006359  dACCESS:          0  dHIT:          0  dMISS:          0  itACCESS:          0  itHIT:          0  itMISS:          0  dtACCESS:          0  dtHIT:          0  dtMISS:          0
cpu0_ITLB RFO          ACCESS:          0  HIT:          0  MISS:          0  iACCESS:          0  iHIT:          0  iMISS:          0  dACCESS:          0  dHIT:          0  dMISS:          0  itACCESS:          0  itHIT:          0  itMISS:          0  dtACCESS:          0  dtHIT:          0  dtMISS:          0
cpu0_ITLB PREFETCH     ACCESS:          0  HIT:          0  MISS:          0  iACCESS:          0  iHIT:          0  iMISS:          0  dACCESS:          0  dHIT:          0  dMISS:          0  itACCESS:          0  itHIT:          0  itMISS:          0  dtACCESS:          0  dtHIT:          0  dtMISS:          0
cpu0_ITLB WRITE        ACCESS:          0  HIT:          0  MISS:          0  iACCESS:          0  iHIT:          0  iMISS:          0  dACCESS:          0  dHIT:          0  dMISS:          0  itACCESS:          0  itHIT:          0  itMISS:          0  dtACCESS:          0  dtHIT:          0  dtMISS:          0
cpu0_ITLB TRANSLATION  ACCESS:          0  HIT:          0  MISS:          0  iACCESS:          0  iHIT:          0  iMISS:          0  dACCESS:          0  dHIT:          0  dMISS:          0  itACCESS:          0  itHIT:          0  itMISS:          0  dtACCESS:          0  dtHIT:          0  dtMISS:          0
cpu0_ITLB PREFETCH  REQUESTED:          0  ISSUED:          0  CROSSED:          0  USEFUL:     325891  USELESS:      63205
cpu0_ITLB AVERAGE iMISS LATENCY: 1.98662 cycles
cpu0_ITLB AVERAGE dMISS LATENCY: 0 cycles
cpu0_ITLB AVERAGE itMISS LATENCY: 0 cycles
cpu0_ITLB AVERAGE dtMISS LATENCY: 0 cycles
cpu0_ITLB PAGE CROSSINGS (TLB HIT):         0 
cpu0_ITLB PAGE CROSSINGS (TLB MISS):         0 
cpu0_ITLB AVERAGE MISS LATENCY: 1.98662 cycles
cpu0_DTLB TOTAL       ACCESS:   27684350  HIT:   25820067  MISS:    1864283  iACCESS:          0  iHIT:          0  iMISS:          0  dACCESS:   27684350  dHIT:   25820067  dMISS:    1864283  itACCESS:          0  itHIT:          0  itMISS:          0  dtACCESS:          0  dtHIT:          0  dtMISS:          0
cpu0_DTLB LOAD         ACCESS:   27684350  HIT:   25820067  MISS:    1864283  iACCESS:          0  iHIT:          0  iMISS:          0  dACCESS:   27684350  dHIT:   25820067  dMISS:    1864283  itACCESS:          0  itHIT:          0  itMISS:          0  dtACCESS:          0  dtHIT:          0  dtMISS:          0
cpu0_DTLB RFO          ACCESS:          0  HIT:          0  MISS:          0  iACCESS:          0  iHIT:          0  iMISS:          0  dACCESS:          0  dHIT:          0  dMISS:          0  itACCESS:          0  itHIT:          0  itMISS:          0  dtACCESS:          0  dtHIT:          0  dtMISS:          0
cpu0_DTLB PREFETCH     ACCESS:          0  HIT:          0  MISS:          0  iACCESS:          0  iHIT:          0  iMISS:          0  dACCESS:          0  dHIT:          0  dMISS:          0  itACCESS:          0  itHIT:          0  itMISS:          0  dtACCESS:          0  dtHIT:          0  dtMISS:          0
cpu0_DTLB WRITE        ACCESS:          0  HIT:          0  MISS:          0  iACCESS:          0  iHIT:          0  iMISS:          0  dACCESS:          0  dHIT:          0  dMISS:          0  itACCESS:          0  itHIT:          0  itMISS:          0  dtACCESS:          0  dtHIT:          0  dtMISS:          0
cpu0_DTLB TRANSLATION  ACCESS:          0  HIT:          0  MISS:          0  iACCESS:          0  iHIT:          0  iMISS:          0  dACCESS:          0  dHIT:          0  dMISS:          0  itACCESS:          0  itHIT:          0  itMISS:          0  dtACCESS:          0  dtHIT:          0  dtMISS:          0
cpu0_DTLB PREFETCH  REQUESTED:          0  ISSUED:          0  CROSSED:          0  USEFUL:          0  USELESS:          0
cpu0_DTLB AVERAGE iMISS LATENCY: 0 cycles
cpu0_DTLB AVERAGE dMISS LATENCY: 16.983 cycles
cpu0_DTLB AVERAGE itMISS LATENCY: 0 cycles
cpu0_DTLB AVERAGE dtMISS LATENCY: 0 cycles
cpu0_DTLB PAGE CROSSINGS (TLB HIT):         0 
cpu0_DTLB PAGE CROSSINGS (TLB MISS):         0 
cpu0_DTLB AVERAGE MISS LATENCY: 16.983 cycles
cpu0_STLB TOTAL       ACCESS:    1514815  HIT:    1381154  MISS:     133661  iACCESS:     389103  iHIT:     382909  iMISS:       6194  dACCESS:    1125712  dHIT:     998245  dMISS:     127467  itACCESS:          0  itHIT:          0  itMISS:          0  dtACCESS:          0  dtHIT:          0  dtMISS:          0
cpu0_STLB LOAD         ACCESS:    1514815  HIT:    1381154  MISS:     133661  iACCESS:     389103  iHIT:     382909  iMISS:       6194  dACCESS:    1125712  dHIT:     998245  dMISS:     127467  itACCESS:          0  itHIT:          0  itMISS:          0  dtACCESS:          0  dtHIT:          0  dtMISS:          0
cpu0_STLB RFO          ACCESS:          0  HIT:          0  MISS:          0  iACCESS:          0  iHIT:          0  iMISS:          0  dACCESS:          0  dHIT:          0  dMISS:          0  itACCESS:          0  itHIT:          0  itMISS:          0  dtACCESS:          0  dtHIT:          0  dtMISS:          0
cpu0_STLB PREFETCH     ACCESS:          0  HIT:          0  MISS:          0  iACCESS:          0  iHIT:          0  iMISS:          0  dACCESS:          0  dHIT:          0  dMISS:          0  itACCESS:          0  itHIT:          0  itMISS:          0  dtACCESS:          0  dtHIT:          0  dtMISS:          0
cpu0_STLB WRITE        ACCESS:          0  HIT:          0  MISS:          0  iACCESS:          0  iHIT:          0  iMISS:          0  dACCESS:          0  dHIT:          0  dMISS:          0  itACCESS:          0  itHIT:          0  itMISS:          0  dtACCESS:          0  dtHIT:          0  dtMISS:          0
cpu0_STLB TRANSLATION  ACCESS:          0  HIT:          0  MISS:          0  iACCESS:          0  iHIT:          0  iMISS:          0  dACCESS:          0  dHIT:          0  dMISS:          0  itACCESS:          0  itHIT:          0  itMISS:          0  dtACCESS:          0  dtHIT:          0  dtMISS:          0
cpu0_STLB PREFETCH  REQUESTED:          0  ISSUED:          0  CROSSED:          0  USEFUL:          0  USELESS:          0
cpu0_STLB AVERAGE iMISS LATENCY: 7.24564 cycles
cpu0_STLB AVERAGE dMISS LATENCY: 169.476 cycles
cpu0_STLB AVERAGE itMISS LATENCY: 0 cycles
cpu0_STLB AVERAGE dtMISS LATENCY: 0 cycles
cpu0_STLB PAGE CROSSINGS (TLB HIT):         0 
cpu0_STLB PAGE CROSSINGS (TLB MISS):         0 
cpu0_STLB AVERAGE MISS LATENCY: 176.722 cycles
cpu0_L1D TOTAL       ACCESS:   41495515  HIT:   37876264  MISS:    3619251  iACCESS:          0  iHIT:          0  iMISS:          0  dACCESS:   41292840  dHIT:   37863934  dMISS:    3428906  itACCESS:       7288  itHIT:        660  itMISS:       6628  dtACCESS:     195387  dtHIT:      11670  dtMISS:     183717
cpu0_L1D LOAD         ACCESS:   18980611  HIT:   17403418  MISS:    1577193  iACCESS:          0  iHIT:          0  iMISS:          0  dACCESS:   18980611  dHIT:   17403418  dMISS:    1577193  itACCESS:          0  itHIT:          0  itMISS:          0  dtACCESS:          0  dtHIT:          0  dtMISS:          0
cpu0_L1D RFO          ACCESS:          0  HIT:          0  MISS:          0  iACCESS:          0  iHIT:          0  iMISS:          0  dACCESS:          0  dHIT:          0  dMISS:          0  itACCESS:          0  itHIT:          0  itMISS:          0  dtACCESS:          0  dtHIT:          0  dtMISS:          0
cpu0_L1D PREFETCH     ACCESS:   12159114  HIT:   10748933  MISS:    1410181  iACCESS:          0  iHIT:          0  iMISS:          0  dACCESS:   12159114  dHIT:   10748933  dMISS:    1410181  itACCESS:          0  itHIT:          0  itMISS:          0  dtACCESS:          0  dtHIT:          0  dtMISS:          0
cpu0_L1D WRITE        ACCESS:   10153115  HIT:    9711583  MISS:     441532  iACCESS:          0  iHIT:          0  iMISS:          0  dACCESS:   10153115  dHIT:    9711583  dMISS:     441532  itACCESS:          0  itHIT:          0  itMISS:          0  dtACCESS:          0  dtHIT:          0  dtMISS:          0
cpu0_L1D TRANSLATION  ACCESS:     202675  HIT:      12330  MISS:     190345  iACCESS:          0  iHIT:          0  iMISS:          0  dACCESS:          0  dHIT:          0  dMISS:          0  itACCESS:       7288  itHIT:        660  itMISS:       6628  dtACCESS:     195387  dtHIT:      11670  dtMISS:     183717
cpu0_L1D PREFETCH  REQUESTED:   18980611  ISSUED:   16926678  CROSSED:          0  USEFUL:     309382  USELESS:     709595
cpu0_L1D AVERAGE iMISS LATENCY: 0 cycles
cpu0_L1D AVERAGE dMISS LATENCY: 31.1245 cycles
cpu0_L1D AVERAGE itMISS LATENCY: 0.248211 cycles
cpu0_L1D AVERAGE dtMISS LATENCY: 5.53752 cycles
cpu0_L1D PAGE CROSSINGS (TLB HIT):         0 
cpu0_L1D PAGE CROSSINGS (TLB MISS):         0 
cpu0_L1D AVERAGE MISS LATENCY: 36.9102 cycles
cpu0_L2C TOTAL       ACCESS:    7024611  HIT:    4147325  MISS:    2877286  iACCESS:    3331399  iHIT:    2246029  iMISS:    1085370  dACCESS:    3516740  dHIT:    1872058  dMISS:    1644682  itACCESS:       6628  itHIT:       1129  itMISS:       5499  dtACCESS:     169844  dtHIT:      28109  dtMISS:     141735
cpu0_L2C LOAD         ACCESS:    1748700  HIT:    1069550  MISS:     679150  iACCESS:     800784  iHIT:     566907  iMISS:     233877  dACCESS:     947916  dHIT:     502643  dMISS:     445273  itACCESS:          0  itHIT:          0  itMISS:          0  dtACCESS:          0  dtHIT:          0  dtMISS:          0
cpu0_L2C RFO          ACCESS:     156180  HIT:      71007  MISS:      85173  iACCESS:          0  iHIT:          0  iMISS:          0  dACCESS:     156180  dHIT:      71007  dMISS:      85173  itACCESS:          0  itHIT:          0  itMISS:          0  dtACCESS:          0  dtHIT:          0  dtMISS:          0
cpu0_L2C PREFETCH     ACCESS:    4655231  HIT:    2691369  MISS:    1963862  iACCESS:    2530615  iHIT:    1679122  iMISS:     851493  dACCESS:    2124616  dHIT:    1012247  dMISS:    1112369  itACCESS:          0  itHIT:          0  itMISS:          0  dtACCESS:          0  dtHIT:          0  dtMISS:          0
cpu0_L2C WRITE        ACCESS:     288028  HIT:     286161  MISS:       1867  iACCESS:          0  iHIT:          0  iMISS:          0  dACCESS:     288028  dHIT:     286161  dMISS:       1867  itACCESS:          0  itHIT:          0  itMISS:          0  dtACCESS:          0  dtHIT:          0  dtMISS:          0
cpu0_L2C TRANSLATION  ACCESS:     176472  HIT:      29238  MISS:     147234  iACCESS:          0  iHIT:          0  iMISS:          0  dACCESS:          0  dHIT:          0  dMISS:          0  itACCESS:       6628  itHIT:       1129  itMISS:       5499  dtACCESS:     169844  dtHIT:      28109  dtMISS:     141735
cpu0_L2C PREFETCH  REQUESTED:    1391139  ISSUED:    1391139  CROSSED:          0  USEFUL:     311700  USELESS:     228183
cpu0_L2C AVERAGE iMISS LATENCY: 24.7651 cycles
cpu0_L2C AVERAGE dMISS LATENCY: 45.6999 cycles
cpu0_L2C AVERAGE itMISS LATENCY: 0.289525 cycles
cpu0_L2C AVERAGE dtMISS LATENCY: 6.38042 cycles
cpu0_L2C PAGE CROSSINGS (TLB HIT):         0 
cpu0_L2C PAGE CROSSINGS (TLB MISS):         0 
cpu0_L2C AVERAGE MISS LATENCY: 77.1349 cycles
LLC TOTAL       ACCESS:    2904069  HIT:    1844108  MISS:    1059961  iACCESS:    1030782  iHIT:     683938  iMISS:     346844  dACCESS:    1726053  dHIT:    1104111  dMISS:     621942  itACCESS:       5499  itHIT:       1446  itMISS:       4053  dtACCESS:     141735  dtHIT:      54613  dtMISS:      87122
LLC LOAD         ACCESS:     677045  HIT:     448384  MISS:     228661  iACCESS:     232670  iHIT:     160812  iMISS:      71858  dACCESS:     444375  dHIT:     287572  dMISS:     156803  itACCESS:          0  itHIT:          0  itMISS:          0  dtACCESS:          0  dtHIT:          0  dtMISS:          0
LLC RFO          ACCESS:      85165  HIT:      47472  MISS:      37693  iACCESS:          0  iHIT:          0  iMISS:          0  dACCESS:      85165  dHIT:      47472  dMISS:      37693  itACCESS:          0  itHIT:          0  itMISS:          0  dtACCESS:          0  dtHIT:          0  dtMISS:          0
LLC PREFETCH     ACCESS:    1860531  HIT:    1164710  MISS:     695821  iACCESS:     798112  iHIT:     523126  iMISS:     274986  dACCESS:    1062419  dHIT:     641584  dMISS:     420835  itACCESS:          0  itHIT:          0  itMISS:          0  dtACCESS:          0  dtHIT:          0  dtMISS:          0
LLC WRITE        ACCESS:     134094  HIT:     127483  MISS:       6611  iACCESS:          0  iHIT:          0  iMISS:          0  dACCESS:     134094  dHIT:     127483  dMISS:       6611  itACCESS:          0  itHIT:          0  itMISS:          0  dtACCESS:          0  dtHIT:          0  dtMISS:          0
LLC TRANSLATION  ACCESS:     147234  HIT:      56059  MISS:      91175  iACCESS:          0  iHIT:          0  iMISS:          0  dACCESS:          0  dHIT:          0  dMISS:          0  itACCESS:       5499  itHIT:       1446  itMISS:       4053  dtACCESS:     141735  dtHIT:      54613  dtMISS:      87122
LLC PREFETCH  REQUESTED:          0  ISSUED:          0  CROSSED:          0  USEFUL:          0  USELESS:          0
LLC AVERAGE iMISS LATENCY: 48.3326 cycles
LLC AVERAGE dMISS LATENCY: 95.1101 cycles
LLC AVERAGE itMISS LATENCY: 0.683919 cycles
LLC AVERAGE dtMISS LATENCY: 14.7036 cycles
LLC PAGE CROSSINGS (TLB HIT):         0 
LLC PAGE CROSSINGS (TLB MISS):         0 
LLC AVERAGE MISS LATENCY: 158.831 cycles

PageTableWalker TOTAL       ACCESS:      65826  
PageTableWalker AVERAGE LATENCY: 5.70735 cycles
PageTableWalker TOTAL LATENCY: 375692 cycles

DRAM Statistics
Channel 0
 RQ ROW_BUFFER_HIT:     285514
  ROW_BUFFER_MISS:     767283
 AVG DBUS CONGESTED CYCLE:    3.62106
 WQ ROW_BUFFER_HIT:      20649
  ROW_BUFFER_MISS:      21431  FULL:          0

