last_page:0x200000000000000
VMEM_RES_CAP:0x100000
PAGE_SIZE:4096
LOG2_PAGE_SIZE:12
LOG2_PAGE_TABLE_SIZE:9
page_table_levels:5
WARNING: physical memory size is smaller than virtual memory size
FDiP enabled with aggresivity 16

*** ChampSim Multicore Out-of-Order Simulator ***

Warmup Instructions: 50000000
Simulation Instructions: 100000000
Number of CPUs: 1
Small page size: 4096
Large page size: 2097152

CPU 0 Bimodal branch predictor
Basic BTB sets: 1024 ways: 8 indirect buffer size: 4096 RAS size: 64
Instruction page size distrubution: 0
Loading instruction page size distribution from /home/bsc/bsc018186/scratch/itp_asplos25_AE/dump/srv151_ap.pdst
Data page size distrubution: 0
Loading data page size distribution from /home/bsc/bsc018186/scratch/itp_asplos25_AE/dump/srv151_ap.pdst
cpu0_L2C IP-based stride prefetcher
cpu0_L1D next line prefetcher
cpu0_STLB using iTP with max lru@8
cpu0_STLB using iTP with instr@0 and data@2
Init sat counter with 3 bits (max:50).
cpu0_L1I next line prefetcher
Off-chip DRAM Size: 4 GiB Channels: 1 Width: 64-bit Data Rate: 3200 MT/s
Heartbeat CPU 0 instructions: 10000002 cycles: 2500171 heartbeat IPC: 3.99973 cumulative IPC: 3.99973 (Simulation time: 0 hr 0 min 38 sec) 
Heartbeat CPU 0 instructions: 20000002 cycles: 5000198 heartbeat IPC: 3.99996 cumulative IPC: 3.99985 (Simulation time: 0 hr 1 min 18 sec) 
Heartbeat CPU 0 instructions: 30000003 cycles: 7500201 heartbeat IPC: 4 cumulative IPC: 3.9999 (Simulation time: 0 hr 1 min 59 sec) 
Heartbeat CPU 0 instructions: 40000000 cycles: 10000269 heartbeat IPC: 3.9999 cumulative IPC: 3.9999 (Simulation time: 0 hr 2 min 40 sec) 
Heartbeat CPU 0 instructions: 50000003 cycles: 12500284 heartbeat IPC: 3.99998 cumulative IPC: 3.99991 (Simulation time: 0 hr 3 min 21 sec) 
Warmup finished CPU 0 instructions: 50000003 cycles: 12500285 cumulative IPC: 3.99991 (Simulation time: 0 hr 3 min 21 sec) 

Warmup complete CPU 0 instructions: 50000003 cycles: 12500285 (Simulation time: 0 hr 3 min 21 sec) 

Heartbeat CPU 0 instructions: 60000000 cycles: 27248023 heartbeat IPC: 0.67807 cumulative IPC: 0.67807 (Simulation time: 0 hr 4 min 25 sec) 
Heartbeat CPU 0 instructions: 70000002 cycles: 41879169 heartbeat IPC: 0.683474 cumulative IPC: 0.680762 (Simulation time: 0 hr 5 min 29 sec) 
Heartbeat CPU 0 instructions: 80000002 cycles: 55482115 heartbeat IPC: 0.735135 cumulative IPC: 0.69797 (Simulation time: 0 hr 6 min 33 sec) 
Heartbeat CPU 0 instructions: 90000000 cycles: 69404277 heartbeat IPC: 0.71828 cumulative IPC: 0.702939 (Simulation time: 0 hr 7 min 36 sec) 
Heartbeat CPU 0 instructions: 100000000 cycles: 83318264 heartbeat IPC: 0.718702 cumulative IPC: 0.706036 (Simulation time: 0 hr 8 min 40 sec) 
*** Reached end of trace: /gpfs/projects/bsc18/MN4/bsc18/romol/ChampSim/traces/qualcomm_srv/srv151_ap.champsimtrace.xz
Heartbeat CPU 0 instructions: 110000003 cycles: 97320760 heartbeat IPC: 0.714159 cumulative IPC: 0.707377 (Simulation time: 0 hr 9 min 43 sec) 
Heartbeat CPU 0 instructions: 120000002 cycles: 111159585 heartbeat IPC: 0.722605 cumulative IPC: 0.709513 (Simulation time: 0 hr 10 min 47 sec) 
Heartbeat CPU 0 instructions: 130000003 cycles: 125471038 heartbeat IPC: 0.698742 cumulative IPC: 0.708148 (Simulation time: 0 hr 11 min 51 sec) 
Heartbeat CPU 0 instructions: 140000001 cycles: 139437422 heartbeat IPC: 0.716005 cumulative IPC: 0.709013 (Simulation time: 0 hr 12 min 54 sec) 
Heartbeat CPU 0 instructions: 150000002 cycles: 153695277 heartbeat IPC: 0.701368 cumulative IPC: 0.708241 (Simulation time: 0 hr 13 min 58 sec) 
Simulation finished CPU 0 instructions: 100000004 cycles: 141194994 cumulative IPC: 0.708241 (Simulation time: 0 hr 13 min 58 sec) 

Simulation complete CPU 0 instructions: 100000004 cycles: 141194994 (Simulation time: 0 hr 13 min 58 sec) 


ChampSim completed all CPUs

Saving instructions large page distribution to /home/bsc/bsc018186/scratch/itp_asplos25_AE/dump/srv151_ap.pdst...
Saving data large page distribution to /home/bsc/bsc018186/scratch/itp_asplos25_AE/dump/srv151_ap.pdst...
=== Simulation ===
CPU 0 runs /gpfs/projects/bsc18/MN4/bsc18/romol/ChampSim/traces/qualcomm_srv/srv151_ap.champsimtrace.xz

Region of Interest Statistics

CPU 0 cumulative IPC: 0.708241 instructions: 100000004 cycles: 141194994
CPU 0 Branch Prediction Accuracy: 83.2513% MPKI: 30.0025 Average ROB Occupancy at Mispredict: 13.1537
Branch type MPKI
BRANCH_DIRECT_JUMP: 1.01974
BRANCH_INDIRECT: 15.6431
BRANCH_CONDITIONAL: 9.6763
BRANCH_DIRECT_CALL: 1.83277
BRANCH_INDIRECT_CALL: 0.50392
BRANCH_RETURN: 1.32665

Instructions large pages: 0
Instructions small pages: 11188
Large page distribution for instructions: 0%

Data large pages: 0
Data small pages: 10219
Large page distribution for data: 0%

cpu0_L1I TOTAL       ACCESS:   35269239  HIT:   27043614  MISS:    8225625  iACCESS:   35269239  iHIT:   27043614  iMISS:    8225625  dACCESS:          0  dHIT:          0  dMISS:          0  itACCESS:          0  itHIT:          0  itMISS:          0  dtACCESS:          0  dtHIT:          0  dtMISS:          0
cpu0_L1I LOAD         ACCESS:   10371331  HIT:    8069722  MISS:    2301609  iACCESS:   10371331  iHIT:    8069722  iMISS:    2301609  dACCESS:          0  dHIT:          0  dMISS:          0  itACCESS:          0  itHIT:          0  itMISS:          0  dtACCESS:          0  dtHIT:          0  dtMISS:          0
cpu0_L1I RFO          ACCESS:          0  HIT:          0  MISS:          0  iACCESS:          0  iHIT:          0  iMISS:          0  dACCESS:          0  dHIT:          0  dMISS:          0  itACCESS:          0  itHIT:          0  itMISS:          0  dtACCESS:          0  dtHIT:          0  dtMISS:          0
cpu0_L1I PREFETCH     ACCESS:   24897908  HIT:   18973892  MISS:    5924016  iACCESS:   24897908  iHIT:   18973892  iMISS:    5924016  dACCESS:          0  dHIT:          0  dMISS:          0  itACCESS:          0  itHIT:          0  itMISS:          0  dtACCESS:          0  dtHIT:          0  dtMISS:          0
cpu0_L1I WRITE        ACCESS:          0  HIT:          0  MISS:          0  iACCESS:          0  iHIT:          0  iMISS:          0  dACCESS:          0  dHIT:          0  dMISS:          0  itACCESS:          0  itHIT:          0  itMISS:          0  dtACCESS:          0  dtHIT:          0  dtMISS:          0
cpu0_L1I TRANSLATION  ACCESS:          0  HIT:          0  MISS:          0  iACCESS:          0  iHIT:          0  iMISS:          0  dACCESS:          0  dHIT:          0  dMISS:          0  itACCESS:          0  itHIT:          0  itMISS:          0  dtACCESS:          0  dtHIT:          0  dtMISS:          0
cpu0_L1I PREFETCH  REQUESTED:   27299212  ISSUED:   27297967  CROSSED:          0  USEFUL:    1890786  USELESS:     621992
cpu0_L1I AVERAGE iMISS LATENCY: 13.5357 cycles
cpu0_L1I AVERAGE dMISS LATENCY: 0 cycles
cpu0_L1I AVERAGE itMISS LATENCY: 0 cycles
cpu0_L1I AVERAGE dtMISS LATENCY: 0 cycles
cpu0_L1I PAGE CROSSINGS (TLB HIT):         0 
cpu0_L1I PAGE CROSSINGS (TLB MISS):         0 
cpu0_L1I AVERAGE MISS LATENCY: 13.5357 cycles
cpu0_ITLB TOTAL       ACCESS:   29192871  HIT:   27240331  MISS:    1952540  iACCESS:   29192871  iHIT:   27240331  iMISS:    1952540  dACCESS:          0  dHIT:          0  dMISS:          0  itACCESS:          0  itHIT:          0  itMISS:          0  dtACCESS:          0  dtHIT:          0  dtMISS:          0
cpu0_ITLB LOAD         ACCESS:   29192871  HIT:   27240331  MISS:    1952540  iACCESS:   29192871  iHIT:   27240331  iMISS:    1952540  dACCESS:          0  dHIT:          0  dMISS:          0  itACCESS:          0  itHIT:          0  itMISS:          0  dtACCESS:          0  dtHIT:          0  dtMISS:          0
cpu0_ITLB RFO          ACCESS:          0  HIT:          0  MISS:          0  iACCESS:          0  iHIT:          0  iMISS:          0  dACCESS:          0  dHIT:          0  dMISS:          0  itACCESS:          0  itHIT:          0  itMISS:          0  dtACCESS:          0  dtHIT:          0  dtMISS:          0
cpu0_ITLB PREFETCH     ACCESS:          0  HIT:          0  MISS:          0  iACCESS:          0  iHIT:          0  iMISS:          0  dACCESS:          0  dHIT:          0  dMISS:          0  itACCESS:          0  itHIT:          0  itMISS:          0  dtACCESS:          0  dtHIT:          0  dtMISS:          0
cpu0_ITLB WRITE        ACCESS:          0  HIT:          0  MISS:          0  iACCESS:          0  iHIT:          0  iMISS:          0  dACCESS:          0  dHIT:          0  dMISS:          0  itACCESS:          0  itHIT:          0  itMISS:          0  dtACCESS:          0  dtHIT:          0  dtMISS:          0
cpu0_ITLB TRANSLATION  ACCESS:          0  HIT:          0  MISS:          0  iACCESS:          0  iHIT:          0  iMISS:          0  dACCESS:          0  dHIT:          0  dMISS:          0  itACCESS:          0  itHIT:          0  itMISS:          0  dtACCESS:          0  dtHIT:          0  dtMISS:          0
cpu0_ITLB PREFETCH  REQUESTED:          0  ISSUED:          0  CROSSED:          0  USEFUL:     319864  USELESS:      66031
cpu0_ITLB AVERAGE iMISS LATENCY: 1.98629 cycles
cpu0_ITLB AVERAGE dMISS LATENCY: 0 cycles
cpu0_ITLB AVERAGE itMISS LATENCY: 0 cycles
cpu0_ITLB AVERAGE dtMISS LATENCY: 0 cycles
cpu0_ITLB PAGE CROSSINGS (TLB HIT):         0 
cpu0_ITLB PAGE CROSSINGS (TLB MISS):         0 
cpu0_ITLB AVERAGE MISS LATENCY: 1.98629 cycles
cpu0_DTLB TOTAL       ACCESS:   27855847  HIT:   25824852  MISS:    2030995  iACCESS:          0  iHIT:          0  iMISS:          0  dACCESS:   27855847  dHIT:   25824852  dMISS:    2030995  itACCESS:          0  itHIT:          0  itMISS:          0  dtACCESS:          0  dtHIT:          0  dtMISS:          0
cpu0_DTLB LOAD         ACCESS:   27855847  HIT:   25824852  MISS:    2030995  iACCESS:          0  iHIT:          0  iMISS:          0  dACCESS:   27855847  dHIT:   25824852  dMISS:    2030995  itACCESS:          0  itHIT:          0  itMISS:          0  dtACCESS:          0  dtHIT:          0  dtMISS:          0
cpu0_DTLB RFO          ACCESS:          0  HIT:          0  MISS:          0  iACCESS:          0  iHIT:          0  iMISS:          0  dACCESS:          0  dHIT:          0  dMISS:          0  itACCESS:          0  itHIT:          0  itMISS:          0  dtACCESS:          0  dtHIT:          0  dtMISS:          0
cpu0_DTLB PREFETCH     ACCESS:          0  HIT:          0  MISS:          0  iACCESS:          0  iHIT:          0  iMISS:          0  dACCESS:          0  dHIT:          0  dMISS:          0  itACCESS:          0  itHIT:          0  itMISS:          0  dtACCESS:          0  dtHIT:          0  dtMISS:          0
cpu0_DTLB WRITE        ACCESS:          0  HIT:          0  MISS:          0  iACCESS:          0  iHIT:          0  iMISS:          0  dACCESS:          0  dHIT:          0  dMISS:          0  itACCESS:          0  itHIT:          0  itMISS:          0  dtACCESS:          0  dtHIT:          0  dtMISS:          0
cpu0_DTLB TRANSLATION  ACCESS:          0  HIT:          0  MISS:          0  iACCESS:          0  iHIT:          0  iMISS:          0  dACCESS:          0  dHIT:          0  dMISS:          0  itACCESS:          0  itHIT:          0  itMISS:          0  dtACCESS:          0  dtHIT:          0  dtMISS:          0
cpu0_DTLB PREFETCH  REQUESTED:          0  ISSUED:          0  CROSSED:          0  USEFUL:          0  USELESS:          0
cpu0_DTLB AVERAGE iMISS LATENCY: 0 cycles
cpu0_DTLB AVERAGE dMISS LATENCY: 11.5117 cycles
cpu0_DTLB AVERAGE itMISS LATENCY: 0 cycles
cpu0_DTLB AVERAGE dtMISS LATENCY: 0 cycles
cpu0_DTLB PAGE CROSSINGS (TLB HIT):         0 
cpu0_DTLB PAGE CROSSINGS (TLB MISS):         0 
cpu0_DTLB AVERAGE MISS LATENCY: 11.5117 cycles
cpu0_STLB TOTAL       ACCESS:    1619812  HIT:    1474172  MISS:     145640  iACCESS:     385902  iHIT:     377350  iMISS:       8552  dACCESS:    1233910  dHIT:    1096822  dMISS:     137088  itACCESS:          0  itHIT:          0  itMISS:          0  dtACCESS:          0  dtHIT:          0  dtMISS:          0
cpu0_STLB LOAD         ACCESS:    1619812  HIT:    1474172  MISS:     145640  iACCESS:     385902  iHIT:     377350  iMISS:       8552  dACCESS:    1233910  dHIT:    1096822  dMISS:     137088  itACCESS:          0  itHIT:          0  itMISS:          0  dtACCESS:          0  dtHIT:          0  dtMISS:          0
cpu0_STLB RFO          ACCESS:          0  HIT:          0  MISS:          0  iACCESS:          0  iHIT:          0  iMISS:          0  dACCESS:          0  dHIT:          0  dMISS:          0  itACCESS:          0  itHIT:          0  itMISS:          0  dtACCESS:          0  dtHIT:          0  dtMISS:          0
cpu0_STLB PREFETCH     ACCESS:          0  HIT:          0  MISS:          0  iACCESS:          0  iHIT:          0  iMISS:          0  dACCESS:          0  dHIT:          0  dMISS:          0  itACCESS:          0  itHIT:          0  itMISS:          0  dtACCESS:          0  dtHIT:          0  dtMISS:          0
cpu0_STLB WRITE        ACCESS:          0  HIT:          0  MISS:          0  iACCESS:          0  iHIT:          0  iMISS:          0  dACCESS:          0  dHIT:          0  dMISS:          0  itACCESS:          0  itHIT:          0  itMISS:          0  dtACCESS:          0  dtHIT:          0  dtMISS:          0
cpu0_STLB TRANSLATION  ACCESS:          0  HIT:          0  MISS:          0  iACCESS:          0  iHIT:          0  iMISS:          0  dACCESS:          0  dHIT:          0  dMISS:          0  itACCESS:          0  itHIT:          0  itMISS:          0  dtACCESS:          0  dtHIT:          0  dtMISS:          0
cpu0_STLB PREFETCH  REQUESTED:          0  ISSUED:          0  CROSSED:          0  USEFUL:          0  USELESS:          0
cpu0_STLB AVERAGE iMISS LATENCY: 6.06951 cycles
cpu0_STLB AVERAGE dMISS LATENCY: 92.735 cycles
cpu0_STLB AVERAGE itMISS LATENCY: 0 cycles
cpu0_STLB AVERAGE dtMISS LATENCY: 0 cycles
cpu0_STLB PAGE CROSSINGS (TLB HIT):         0 
cpu0_STLB PAGE CROSSINGS (TLB MISS):         0 
cpu0_STLB AVERAGE MISS LATENCY: 98.8045 cycles
cpu0_L1D TOTAL       ACCESS:   41555582  HIT:   38165855  MISS:    3389727  iACCESS:          0  iHIT:          0  iMISS:          0  dACCESS:   41342457  dHIT:   38151674  dMISS:    3190783  itACCESS:      10254  itHIT:       1163  itMISS:       9091  dtACCESS:     202871  dtHIT:      13018  dtMISS:     189853
cpu0_L1D LOAD         ACCESS:   19020600  HIT:   17562924  MISS:    1457676  iACCESS:          0  iHIT:          0  iMISS:          0  dACCESS:   19020600  dHIT:   17562924  dMISS:    1457676  itACCESS:          0  itHIT:          0  itMISS:          0  dtACCESS:          0  dtHIT:          0  dtMISS:          0
cpu0_L1D RFO          ACCESS:          0  HIT:          0  MISS:          0  iACCESS:          0  iHIT:          0  iMISS:          0  dACCESS:          0  dHIT:          0  dMISS:          0  itACCESS:          0  itHIT:          0  itMISS:          0  dtACCESS:          0  dtHIT:          0  dtMISS:          0
cpu0_L1D PREFETCH     ACCESS:   12155573  HIT:   10839518  MISS:    1316055  iACCESS:          0  iHIT:          0  iMISS:          0  dACCESS:   12155573  dHIT:   10839518  dMISS:    1316055  itACCESS:          0  itHIT:          0  itMISS:          0  dtACCESS:          0  dtHIT:          0  dtMISS:          0
cpu0_L1D WRITE        ACCESS:   10166284  HIT:    9749232  MISS:     417052  iACCESS:          0  iHIT:          0  iMISS:          0  dACCESS:   10166284  dHIT:    9749232  dMISS:     417052  itACCESS:          0  itHIT:          0  itMISS:          0  dtACCESS:          0  dtHIT:          0  dtMISS:          0
cpu0_L1D TRANSLATION  ACCESS:     213125  HIT:      14181  MISS:     198944  iACCESS:          0  iHIT:          0  iMISS:          0  dACCESS:          0  dHIT:          0  dMISS:          0  itACCESS:      10254  itHIT:       1163  itMISS:       9091  dtACCESS:     202871  dtHIT:      13018  dtMISS:     189853
cpu0_L1D PREFETCH  REQUESTED:   19020600  ISSUED:   16992108  CROSSED:          0  USEFUL:     303061  USELESS:     690829
cpu0_L1D AVERAGE iMISS LATENCY: 0 cycles
cpu0_L1D AVERAGE dMISS LATENCY: 34.003 cycles
cpu0_L1D AVERAGE itMISS LATENCY: 0.234188 cycles
cpu0_L1D AVERAGE dtMISS LATENCY: 3.15963 cycles
cpu0_L1D PAGE CROSSINGS (TLB HIT):         0 
cpu0_L1D PAGE CROSSINGS (TLB MISS):         0 
cpu0_L1D AVERAGE MISS LATENCY: 37.3968 cycles
cpu0_L2C TOTAL       ACCESS:    6871444  HIT:    1671022  MISS:    5200422  iACCESS:    3256786  iHIT:     870707  iMISS:    2386079  dACCESS:    3422364  dHIT:     700058  dMISS:    2722306  itACCESS:       9091  itHIT:       4102  itMISS:       4989  dtACCESS:     183203  dtHIT:      96155  dtMISS:      87048
cpu0_L2C LOAD         ACCESS:    1697218  HIT:     306968  MISS:    1390250  iACCESS:     778362  iHIT:     158146  iMISS:     620216  dACCESS:     918856  dHIT:     148822  dMISS:     770034  itACCESS:          0  itHIT:          0  itMISS:          0  dtACCESS:          0  dtHIT:          0  dtMISS:          0
cpu0_L2C RFO          ACCESS:     155940  HIT:      50857  MISS:     105083  iACCESS:          0  iHIT:          0  iMISS:          0  dACCESS:     155940  dHIT:      50857  dMISS:     105083  itACCESS:          0  itHIT:          0  itMISS:          0  dtACCESS:          0  dtHIT:          0  dtMISS:          0
cpu0_L2C PREFETCH     ACCESS:    4544143  HIT:    1076354  MISS:    3467789  iACCESS:    2478424  iHIT:     712561  iMISS:    1765863  dACCESS:    2065719  dHIT:     363793  dMISS:    1701926  itACCESS:          0  itHIT:          0  itMISS:          0  dtACCESS:          0  dtHIT:          0  dtMISS:          0
cpu0_L2C WRITE        ACCESS:     281849  HIT:     136586  MISS:     145263  iACCESS:          0  iHIT:          0  iMISS:          0  dACCESS:     281849  dHIT:     136586  dMISS:     145263  itACCESS:          0  itHIT:          0  itMISS:          0  dtACCESS:          0  dtHIT:          0  dtMISS:          0
cpu0_L2C TRANSLATION  ACCESS:     192294  HIT:     100257  MISS:      92037  iACCESS:          0  iHIT:          0  iMISS:          0  dACCESS:          0  dHIT:          0  dMISS:          0  itACCESS:       9091  itHIT:       4102  itMISS:       4989  dtACCESS:     183203  dtHIT:      96155  dtMISS:      87048
cpu0_L2C PREFETCH  REQUESTED:    1320424  ISSUED:    1320424  CROSSED:          0  USEFUL:     384018  USELESS:     363766
cpu0_L2C AVERAGE iMISS LATENCY: 15.6988 cycles
cpu0_L2C AVERAGE dMISS LATENCY: 25.6033 cycles
cpu0_L2C AVERAGE itMISS LATENCY: 0.135918 cycles
cpu0_L2C AVERAGE dtMISS LATENCY: 1.72383 cycles
cpu0_L2C PAGE CROSSINGS (TLB HIT):         0 
cpu0_L2C PAGE CROSSINGS (TLB MISS):         0 
cpu0_L2C AVERAGE MISS LATENCY: 43.1618 cycles
LLC TOTAL       ACCESS:    5087418  HIT:    4269171  MISS:     818247  iACCESS:    2334673  iHIT:    2088201  iMISS:     246472  dACCESS:    2660708  dHIT:    2134127  dMISS:     526581  itACCESS:       4989  itHIT:       1502  itMISS:       3487  dtACCESS:      87048  dtHIT:      45341  dtMISS:      41707
LLC LOAD         ACCESS:    1388286  HIT:    1205682  MISS:     182604  iACCESS:     618749  iHIT:     566996  iMISS:      51753  dACCESS:     769537  dHIT:     638686  dMISS:     130851  itACCESS:          0  itHIT:          0  itMISS:          0  dtACCESS:          0  dtHIT:          0  dtMISS:          0
LLC RFO          ACCESS:     105082  HIT:      72451  MISS:      32631  iACCESS:          0  iHIT:          0  iMISS:          0  dACCESS:     105082  dHIT:      72451  dMISS:      32631  itACCESS:          0  itHIT:          0  itMISS:          0  dtACCESS:          0  dtHIT:          0  dtMISS:          0
LLC PREFETCH     ACCESS:    3364683  HIT:    2816004  MISS:     548679  iACCESS:    1715924  iHIT:    1521205  iMISS:     194719  dACCESS:    1648759  dHIT:    1294799  dMISS:     353960  itACCESS:          0  itHIT:          0  itMISS:          0  dtACCESS:          0  dtHIT:          0  dtMISS:          0
LLC WRITE        ACCESS:     137330  HIT:     128191  MISS:       9139  iACCESS:          0  iHIT:          0  iMISS:          0  dACCESS:     137330  dHIT:     128191  dMISS:       9139  itACCESS:          0  itHIT:          0  itMISS:          0  dtACCESS:          0  dtHIT:          0  dtMISS:          0
LLC TRANSLATION  ACCESS:      92037  HIT:      46843  MISS:      45194  iACCESS:          0  iHIT:          0  iMISS:          0  dACCESS:          0  dHIT:          0  dMISS:          0  itACCESS:       4989  itHIT:       1502  itMISS:       3487  dtACCESS:      87048  dtHIT:      45341  dtMISS:      41707
LLC PREFETCH  REQUESTED:          0  ISSUED:          0  CROSSED:          0  USEFUL:          0  USELESS:          0
LLC AVERAGE iMISS LATENCY: 44.7281 cycles
LLC AVERAGE dMISS LATENCY: 103.313 cycles
LLC AVERAGE itMISS LATENCY: 0.743993 cycles
LLC AVERAGE dtMISS LATENCY: 8.88393 cycles
LLC PAGE CROSSINGS (TLB HIT):         0 
LLC PAGE CROSSINGS (TLB MISS):         0 
LLC AVERAGE MISS LATENCY: 157.669 cycles

PageTableWalker TOTAL       ACCESS:      72258  
PageTableWalker AVERAGE LATENCY: 5.18642 cycles
PageTableWalker TOTAL LATENCY: 374760 cycles

DRAM Statistics
Channel 0
 RQ ROW_BUFFER_HIT:     218675
  ROW_BUFFER_MISS:     590369
 AVG DBUS CONGESTED CYCLE:    3.62566
 WQ ROW_BUFFER_HIT:      16032
  ROW_BUFFER_MISS:      20963  FULL:          0

