last_page:0x200000000000000
VMEM_RES_CAP:0x100000
PAGE_SIZE:4096
LOG2_PAGE_SIZE:12
LOG2_PAGE_TABLE_SIZE:9
page_table_levels:5
WARNING: physical memory size is smaller than virtual memory size
FDiP enabled with aggresivity 16

*** ChampSim Multicore Out-of-Order Simulator ***

Warmup Instructions: 50000000
Simulation Instructions: 100000000
Number of CPUs: 1
Small page size: 4096
Large page size: 2097152

CPU 0 Bimodal branch predictor
Basic BTB sets: 1024 ways: 8 indirect buffer size: 4096 RAS size: 64
Instruction page size distrubution: 0
Loading instruction page size distribution from /home/bsc/bsc018186/scratch/itp_asplos25_AE/dump/srv133_ap.pdst
Data page size distrubution: 0
Loading data page size distribution from /home/bsc/bsc018186/scratch/itp_asplos25_AE/dump/srv133_ap.pdst
cpu0_L2C IP-based stride prefetcher
cpu0_L2C is using PTP replacement policy:
	TLB_STRESS_THRESHOLD:0
	PTE_EVICTION_RATIO:0
cpu0_L1D next line prefetcher
CHiRPing...
cpu0_L1I next line prefetcher
Off-chip DRAM Size: 4 GiB Channels: 1 Width: 64-bit Data Rate: 3200 MT/s
Heartbeat CPU 0 instructions: 10000002 cycles: 2500261 heartbeat IPC: 3.99959 cumulative IPC: 3.99959 (Simulation time: 0 hr 0 min 38 sec) 
Heartbeat CPU 0 instructions: 20000003 cycles: 5000304 heartbeat IPC: 3.99994 cumulative IPC: 3.99976 (Simulation time: 0 hr 1 min 17 sec) 
Heartbeat CPU 0 instructions: 30000003 cycles: 7500321 heartbeat IPC: 3.99998 cumulative IPC: 3.99983 (Simulation time: 0 hr 1 min 58 sec) 
Heartbeat CPU 0 instructions: 40000000 cycles: 10000365 heartbeat IPC: 3.99993 cumulative IPC: 3.99986 (Simulation time: 0 hr 2 min 38 sec) 
Heartbeat CPU 0 instructions: 50000002 cycles: 12500429 heartbeat IPC: 3.9999 cumulative IPC: 3.99987 (Simulation time: 0 hr 3 min 19 sec) 
Warmup finished CPU 0 instructions: 50000002 cycles: 12500430 cumulative IPC: 3.99987 (Simulation time: 0 hr 3 min 19 sec) 

Warmup complete CPU 0 instructions: 50000002 cycles: 12500430 (Simulation time: 0 hr 3 min 19 sec) 

Heartbeat CPU 0 instructions: 60000001 cycles: 26781598 heartbeat IPC: 0.700223 cumulative IPC: 0.700223 (Simulation time: 0 hr 4 min 23 sec) 
Heartbeat CPU 0 instructions: 70000003 cycles: 41268252 heartbeat IPC: 0.690291 cumulative IPC: 0.695222 (Simulation time: 0 hr 5 min 28 sec) 
Heartbeat CPU 0 instructions: 80000001 cycles: 55901190 heartbeat IPC: 0.68339 cumulative IPC: 0.691233 (Simulation time: 0 hr 6 min 34 sec) 
Heartbeat CPU 0 instructions: 90000004 cycles: 70447194 heartbeat IPC: 0.687475 cumulative IPC: 0.690289 (Simulation time: 0 hr 7 min 38 sec) 
Heartbeat CPU 0 instructions: 100000000 cycles: 85008865 heartbeat IPC: 0.686735 cumulative IPC: 0.689575 (Simulation time: 0 hr 8 min 43 sec) 
*** Reached end of trace: /gpfs/projects/bsc18/MN4/bsc18/romol/ChampSim/traces/qualcomm_srv/srv133_ap.champsimtrace.xz
Heartbeat CPU 0 instructions: 110000004 cycles: 100138450 heartbeat IPC: 0.660957 cumulative IPC: 0.684635 (Simulation time: 0 hr 9 min 48 sec) 
Heartbeat CPU 0 instructions: 120000003 cycles: 114395526 heartbeat IPC: 0.701407 cumulative IPC: 0.686982 (Simulation time: 0 hr 10 min 52 sec) 
Heartbeat CPU 0 instructions: 130000000 cycles: 128142544 heartbeat IPC: 0.727431 cumulative IPC: 0.69179 (Simulation time: 0 hr 11 min 56 sec) 
Heartbeat CPU 0 instructions: 140000003 cycles: 142003128 heartbeat IPC: 0.721471 cumulative IPC: 0.694967 (Simulation time: 0 hr 12 min 59 sec) 
Heartbeat CPU 0 instructions: 150000001 cycles: 156303117 heartbeat IPC: 0.699302 cumulative IPC: 0.695398 (Simulation time: 0 hr 14 min 4 sec) 
Simulation finished CPU 0 instructions: 100000003 cycles: 143802689 cumulative IPC: 0.695398 (Simulation time: 0 hr 14 min 4 sec) 

Simulation complete CPU 0 instructions: 100000003 cycles: 143802689 (Simulation time: 0 hr 14 min 4 sec) 


ChampSim completed all CPUs

Saving instructions large page distribution to /home/bsc/bsc018186/scratch/itp_asplos25_AE/dump/srv133_ap.pdst...
Saving data large page distribution to /home/bsc/bsc018186/scratch/itp_asplos25_AE/dump/srv133_ap.pdst...
=== Simulation ===
CPU 0 runs /gpfs/projects/bsc18/MN4/bsc18/romol/ChampSim/traces/qualcomm_srv/srv133_ap.champsimtrace.xz

Region of Interest Statistics

CPU 0 cumulative IPC: 0.695398 instructions: 100000003 cycles: 143802689
CPU 0 Branch Prediction Accuracy: 82.6476% MPKI: 31.112 Average ROB Occupancy at Mispredict: 12.9238
Branch type MPKI
BRANCH_DIRECT_JUMP: 1.04507
BRANCH_INDIRECT: 16.1102
BRANCH_CONDITIONAL: 10.1887
BRANCH_DIRECT_CALL: 1.89521
BRANCH_INDIRECT_CALL: 0.51874
BRANCH_RETURN: 1.35407

Instructions large pages: 0
Instructions small pages: 1119
Large page distribution for instructions: 0%

Data large pages: 0
Data small pages: 9274
Large page distribution for data: 0%

cpu0_L1I TOTAL       ACCESS:   35779501  HIT:   27290740  MISS:    8488761  iACCESS:   35779501  iHIT:   27290740  iMISS:    8488761  dACCESS:          0  dHIT:          0  dMISS:          0  itACCESS:          0  itHIT:          0  itMISS:          0  dtACCESS:          0  dtHIT:          0  dtMISS:          0
cpu0_L1I LOAD         ACCESS:   10483623  HIT:    8113663  MISS:    2369960  iACCESS:   10483623  iHIT:    8113663  iMISS:    2369960  dACCESS:          0  dHIT:          0  dMISS:          0  itACCESS:          0  itHIT:          0  itMISS:          0  dtACCESS:          0  dtHIT:          0  dtMISS:          0
cpu0_L1I RFO          ACCESS:          0  HIT:          0  MISS:          0  iACCESS:          0  iHIT:          0  iMISS:          0  dACCESS:          0  dHIT:          0  dMISS:          0  itACCESS:          0  itHIT:          0  itMISS:          0  dtACCESS:          0  dtHIT:          0  dtMISS:          0
cpu0_L1I PREFETCH     ACCESS:   25295878  HIT:   19177077  MISS:    6118801  iACCESS:   25295878  iHIT:   19177077  iMISS:    6118801  dACCESS:          0  dHIT:          0  dMISS:          0  itACCESS:          0  itHIT:          0  itMISS:          0  dtACCESS:          0  dtHIT:          0  dtMISS:          0
cpu0_L1I WRITE        ACCESS:          0  HIT:          0  MISS:          0  iACCESS:          0  iHIT:          0  iMISS:          0  dACCESS:          0  dHIT:          0  dMISS:          0  itACCESS:          0  itHIT:          0  itMISS:          0  dtACCESS:          0  dtHIT:          0  dtMISS:          0
cpu0_L1I TRANSLATION  ACCESS:          0  HIT:          0  MISS:          0  iACCESS:          0  iHIT:          0  iMISS:          0  dACCESS:          0  dHIT:          0  dMISS:          0  itACCESS:          0  itHIT:          0  itMISS:          0  dtACCESS:          0  dtHIT:          0  dtMISS:          0
cpu0_L1I PREFETCH  REQUESTED:   27569858  ISSUED:   27565905  CROSSED:          0  USEFUL:    1935959  USELESS:     626469
cpu0_L1I AVERAGE iMISS LATENCY: 13.919 cycles
cpu0_L1I AVERAGE dMISS LATENCY: 0 cycles
cpu0_L1I AVERAGE itMISS LATENCY: 0 cycles
cpu0_L1I AVERAGE dtMISS LATENCY: 0 cycles
cpu0_L1I PAGE CROSSINGS (TLB HIT):         0 
cpu0_L1I PAGE CROSSINGS (TLB MISS):         0 
cpu0_L1I AVERAGE MISS LATENCY: 13.919 cycles
cpu0_ITLB TOTAL       ACCESS:   29532412  HIT:   27609145  MISS:    1923267  iACCESS:   29532412  iHIT:   27609145  iMISS:    1923267  dACCESS:          0  dHIT:          0  dMISS:          0  itACCESS:          0  itHIT:          0  itMISS:          0  dtACCESS:          0  dtHIT:          0  dtMISS:          0
cpu0_ITLB LOAD         ACCESS:   29532412  HIT:   27609145  MISS:    1923267  iACCESS:   29532412  iHIT:   27609145  iMISS:    1923267  dACCESS:          0  dHIT:          0  dMISS:          0  itACCESS:          0  itHIT:          0  itMISS:          0  dtACCESS:          0  dtHIT:          0  dtMISS:          0
cpu0_ITLB RFO          ACCESS:          0  HIT:          0  MISS:          0  iACCESS:          0  iHIT:          0  iMISS:          0  dACCESS:          0  dHIT:          0  dMISS:          0  itACCESS:          0  itHIT:          0  itMISS:          0  dtACCESS:          0  dtHIT:          0  dtMISS:          0
cpu0_ITLB PREFETCH     ACCESS:          0  HIT:          0  MISS:          0  iACCESS:          0  iHIT:          0  iMISS:          0  dACCESS:          0  dHIT:          0  dMISS:          0  itACCESS:          0  itHIT:          0  itMISS:          0  dtACCESS:          0  dtHIT:          0  dtMISS:          0
cpu0_ITLB WRITE        ACCESS:          0  HIT:          0  MISS:          0  iACCESS:          0  iHIT:          0  iMISS:          0  dACCESS:          0  dHIT:          0  dMISS:          0  itACCESS:          0  itHIT:          0  itMISS:          0  dtACCESS:          0  dtHIT:          0  dtMISS:          0
cpu0_ITLB TRANSLATION  ACCESS:          0  HIT:          0  MISS:          0  iACCESS:          0  iHIT:          0  iMISS:          0  dACCESS:          0  dHIT:          0  dMISS:          0  itACCESS:          0  itHIT:          0  itMISS:          0  dtACCESS:          0  dtHIT:          0  dtMISS:          0
cpu0_ITLB PREFETCH  REQUESTED:          0  ISSUED:          0  CROSSED:          0  USEFUL:     317010  USELESS:      63195
cpu0_ITLB AVERAGE iMISS LATENCY: 2.96677 cycles
cpu0_ITLB AVERAGE dMISS LATENCY: 0 cycles
cpu0_ITLB AVERAGE itMISS LATENCY: 0 cycles
cpu0_ITLB AVERAGE dtMISS LATENCY: 0 cycles
cpu0_ITLB PAGE CROSSINGS (TLB HIT):         0 
cpu0_ITLB PAGE CROSSINGS (TLB MISS):         0 
cpu0_ITLB AVERAGE MISS LATENCY: 2.96677 cycles
cpu0_DTLB TOTAL       ACCESS:   27898942  HIT:   26084369  MISS:    1814573  iACCESS:          0  iHIT:          0  iMISS:          0  dACCESS:   27898942  dHIT:   26084369  dMISS:    1814573  itACCESS:          0  itHIT:          0  itMISS:          0  dtACCESS:          0  dtHIT:          0  dtMISS:          0
cpu0_DTLB LOAD         ACCESS:   27898942  HIT:   26084369  MISS:    1814573  iACCESS:          0  iHIT:          0  iMISS:          0  dACCESS:   27898942  dHIT:   26084369  dMISS:    1814573  itACCESS:          0  itHIT:          0  itMISS:          0  dtACCESS:          0  dtHIT:          0  dtMISS:          0
cpu0_DTLB RFO          ACCESS:          0  HIT:          0  MISS:          0  iACCESS:          0  iHIT:          0  iMISS:          0  dACCESS:          0  dHIT:          0  dMISS:          0  itACCESS:          0  itHIT:          0  itMISS:          0  dtACCESS:          0  dtHIT:          0  dtMISS:          0
cpu0_DTLB PREFETCH     ACCESS:          0  HIT:          0  MISS:          0  iACCESS:          0  iHIT:          0  iMISS:          0  dACCESS:          0  dHIT:          0  dMISS:          0  itACCESS:          0  itHIT:          0  itMISS:          0  dtACCESS:          0  dtHIT:          0  dtMISS:          0
cpu0_DTLB WRITE        ACCESS:          0  HIT:          0  MISS:          0  iACCESS:          0  iHIT:          0  iMISS:          0  dACCESS:          0  dHIT:          0  dMISS:          0  itACCESS:          0  itHIT:          0  itMISS:          0  dtACCESS:          0  dtHIT:          0  dtMISS:          0
cpu0_DTLB TRANSLATION  ACCESS:          0  HIT:          0  MISS:          0  iACCESS:          0  iHIT:          0  iMISS:          0  dACCESS:          0  dHIT:          0  dMISS:          0  itACCESS:          0  itHIT:          0  itMISS:          0  dtACCESS:          0  dtHIT:          0  dtMISS:          0
cpu0_DTLB PREFETCH  REQUESTED:          0  ISSUED:          0  CROSSED:          0  USEFUL:          0  USELESS:          0
cpu0_DTLB AVERAGE iMISS LATENCY: 0 cycles
cpu0_DTLB AVERAGE dMISS LATENCY: 9.55235 cycles
cpu0_DTLB AVERAGE itMISS LATENCY: 0 cycles
cpu0_DTLB AVERAGE dtMISS LATENCY: 0 cycles
cpu0_DTLB PAGE CROSSINGS (TLB HIT):         0 
cpu0_DTLB PAGE CROSSINGS (TLB MISS):         0 
cpu0_DTLB AVERAGE MISS LATENCY: 9.55235 cycles
cpu0_STLB TOTAL       ACCESS:    1506343  HIT:    1337373  MISS:     168970  iACCESS:     380225  iHIT:     321523  iMISS:      58702  dACCESS:    1126118  dHIT:    1015850  dMISS:     110268  itACCESS:          0  itHIT:          0  itMISS:          0  dtACCESS:          0  dtHIT:          0  dtMISS:          0
cpu0_STLB LOAD         ACCESS:    1506343  HIT:    1337373  MISS:     168970  iACCESS:     380225  iHIT:     321523  iMISS:      58702  dACCESS:    1126118  dHIT:    1015850  dMISS:     110268  itACCESS:          0  itHIT:          0  itMISS:          0  dtACCESS:          0  dtHIT:          0  dtMISS:          0
cpu0_STLB RFO          ACCESS:          0  HIT:          0  MISS:          0  iACCESS:          0  iHIT:          0  iMISS:          0  dACCESS:          0  dHIT:          0  dMISS:          0  itACCESS:          0  itHIT:          0  itMISS:          0  dtACCESS:          0  dtHIT:          0  dtMISS:          0
cpu0_STLB PREFETCH     ACCESS:          0  HIT:          0  MISS:          0  iACCESS:          0  iHIT:          0  iMISS:          0  dACCESS:          0  dHIT:          0  dMISS:          0  itACCESS:          0  itHIT:          0  itMISS:          0  dtACCESS:          0  dtHIT:          0  dtMISS:          0
cpu0_STLB WRITE        ACCESS:          0  HIT:          0  MISS:          0  iACCESS:          0  iHIT:          0  iMISS:          0  dACCESS:          0  dHIT:          0  dMISS:          0  itACCESS:          0  itHIT:          0  itMISS:          0  dtACCESS:          0  dtHIT:          0  dtMISS:          0
cpu0_STLB TRANSLATION  ACCESS:          0  HIT:          0  MISS:          0  iACCESS:          0  iHIT:          0  iMISS:          0  dACCESS:          0  dHIT:          0  dMISS:          0  itACCESS:          0  itHIT:          0  itMISS:          0  dtACCESS:          0  dtHIT:          0  dtMISS:          0
cpu0_STLB PREFETCH  REQUESTED:          0  ISSUED:          0  CROSSED:          0  USEFUL:          0  USELESS:          0
cpu0_STLB AVERAGE iMISS LATENCY: 16.0073 cycles
cpu0_STLB AVERAGE dMISS LATENCY: 49.3648 cycles
cpu0_STLB AVERAGE itMISS LATENCY: 0 cycles
cpu0_STLB AVERAGE dtMISS LATENCY: 0 cycles
cpu0_STLB PAGE CROSSINGS (TLB HIT):         0 
cpu0_STLB PAGE CROSSINGS (TLB MISS):         0 
cpu0_STLB AVERAGE MISS LATENCY: 65.3721 cycles
cpu0_L1D TOTAL       ACCESS:   41679848  HIT:   38163669  MISS:    3516179  iACCESS:          0  iHIT:          0  iMISS:          0  dACCESS:   41451301  dHIT:   38144011  dMISS:    3307290  itACCESS:      63598  itHIT:       9013  itMISS:      54585  dtACCESS:     164949  dtHIT:      10645  dtMISS:     154304
cpu0_L1D LOAD         ACCESS:   19106829  HIT:   17606025  MISS:    1500804  iACCESS:          0  iHIT:          0  iMISS:          0  dACCESS:   19106829  dHIT:   17606025  dMISS:    1500804  itACCESS:          0  itHIT:          0  itMISS:          0  dtACCESS:          0  dtHIT:          0  dtMISS:          0
cpu0_L1D RFO          ACCESS:          0  HIT:          0  MISS:          0  iACCESS:          0  iHIT:          0  iMISS:          0  dACCESS:          0  dHIT:          0  dMISS:          0  itACCESS:          0  itHIT:          0  itMISS:          0  dtACCESS:          0  dtHIT:          0  dtMISS:          0
cpu0_L1D PREFETCH     ACCESS:   12149826  HIT:   10783163  MISS:    1366663  iACCESS:          0  iHIT:          0  iMISS:          0  dACCESS:   12149826  dHIT:   10783163  dMISS:    1366663  itACCESS:          0  itHIT:          0  itMISS:          0  dtACCESS:          0  dtHIT:          0  dtMISS:          0
cpu0_L1D WRITE        ACCESS:   10194646  HIT:    9754823  MISS:     439823  iACCESS:          0  iHIT:          0  iMISS:          0  dACCESS:   10194646  dHIT:    9754823  dMISS:     439823  itACCESS:          0  itHIT:          0  itMISS:          0  dtACCESS:          0  dtHIT:          0  dtMISS:          0
cpu0_L1D TRANSLATION  ACCESS:     228547  HIT:      19658  MISS:     208889  iACCESS:          0  iHIT:          0  iMISS:          0  dACCESS:          0  dHIT:          0  dMISS:          0  itACCESS:      63598  itHIT:       9013  itMISS:      54585  dtACCESS:     164949  dtHIT:      10645  dtMISS:     154304
cpu0_L1D PREFETCH  REQUESTED:   19106829  ISSUED:   16924486  CROSSED:          0  USEFUL:     306563  USELESS:     703560
cpu0_L1D AVERAGE iMISS LATENCY: 0 cycles
cpu0_L1D AVERAGE dMISS LATENCY: 35.6236 cycles
cpu0_L1D AVERAGE itMISS LATENCY: 0.626219 cycles
cpu0_L1D AVERAGE dtMISS LATENCY: 1.73749 cycles
cpu0_L1D PAGE CROSSINGS (TLB HIT):         0 
cpu0_L1D PAGE CROSSINGS (TLB MISS):         0 
cpu0_L1D AVERAGE MISS LATENCY: 37.9873 cycles
cpu0_L2C TOTAL       ACCESS:    7008521  HIT:    1238463  MISS:    5770058  iACCESS:    3302544  iHIT:     702688  iMISS:    2599856  dACCESS:    3506079  dHIT:     379059  dMISS:    3127020  itACCESS:      54585  itHIT:      41437  itMISS:      13148  dtACCESS:     145313  dtHIT:     115279  dtMISS:      30034
cpu0_L2C LOAD         ACCESS:    1708294  HIT:     139690  MISS:    1568604  iACCESS:     777923  iHIT:     102247  iMISS:     675676  dACCESS:     930371  dHIT:      37443  dMISS:     892928  itACCESS:          0  itHIT:          0  itMISS:          0  dtACCESS:          0  dtHIT:          0  dtMISS:          0
cpu0_L2C RFO          ACCESS:     158830  HIT:       8304  MISS:     150526  iACCESS:          0  iHIT:          0  iMISS:          0  dACCESS:     158830  dHIT:       8304  dMISS:     150526  itACCESS:          0  itHIT:          0  itMISS:          0  dtACCESS:          0  dtHIT:          0  dtMISS:          0
cpu0_L2C PREFETCH     ACCESS:    4659564  HIT:     880227  MISS:    3779337  iACCESS:    2524621  iHIT:     600441  iMISS:    1924180  dACCESS:    2134943  dHIT:     279786  dMISS:    1855157  itACCESS:          0  itHIT:          0  itMISS:          0  dtACCESS:          0  dtHIT:          0  dtMISS:          0
cpu0_L2C WRITE        ACCESS:     281935  HIT:      53526  MISS:     228409  iACCESS:          0  iHIT:          0  iMISS:          0  dACCESS:     281935  dHIT:      53526  dMISS:     228409  itACCESS:          0  itHIT:          0  itMISS:          0  dtACCESS:          0  dtHIT:          0  dtMISS:          0
cpu0_L2C TRANSLATION  ACCESS:     199898  HIT:     156716  MISS:      43182  iACCESS:          0  iHIT:          0  iMISS:          0  dACCESS:          0  dHIT:          0  dMISS:          0  itACCESS:      54585  itHIT:      41437  itMISS:      13148  dtACCESS:     145313  dtHIT:     115279  dtMISS:      30034
cpu0_L2C PREFETCH  REQUESTED:    1388405  ISSUED:    1388405  CROSSED:          0  USEFUL:     427954  USELESS:     391210
cpu0_L2C AVERAGE iMISS LATENCY: 15.0912 cycles
cpu0_L2C AVERAGE dMISS LATENCY: 25.4217 cycles
cpu0_L2C AVERAGE itMISS LATENCY: 0.293984 cycles
cpu0_L2C AVERAGE dtMISS LATENCY: 0.825747 cycles
cpu0_L2C PAGE CROSSINGS (TLB HIT):         0 
cpu0_L2C PAGE CROSSINGS (TLB MISS):         0 
cpu0_L2C AVERAGE MISS LATENCY: 41.6326 cycles
LLC TOTAL       ACCESS:    5685683  HIT:    4836903  MISS:     848780  iACCESS:    2543648  iHIT:    2284449  iMISS:     259199  dACCESS:    3098853  dHIT:    2541223  dMISS:     557630  itACCESS:      13148  itHIT:       4799  itMISS:       8349  dtACCESS:      30034  dtHIT:       6432  dtMISS:      23602
LLC LOAD         ACCESS:    1566718  HIT:    1373723  MISS:     192995  iACCESS:     674171  iHIT:     619357  iMISS:      54814  dACCESS:     892547  dHIT:     754366  dMISS:     138181  itACCESS:          0  itHIT:          0  itMISS:          0  dtACCESS:          0  dtHIT:          0  dtMISS:          0
LLC RFO          ACCESS:     150517  HIT:     109436  MISS:      41081  iACCESS:          0  iHIT:          0  iMISS:          0  dACCESS:     150517  dHIT:     109436  dMISS:      41081  itACCESS:          0  itHIT:          0  itMISS:          0  dtACCESS:          0  dtHIT:          0  dtMISS:          0
LLC PREFETCH     ACCESS:    3666896  HIT:    3084144  MISS:     582752  iACCESS:    1869477  iHIT:    1665092  iMISS:     204385  dACCESS:    1797419  dHIT:    1419052  dMISS:     378367  itACCESS:          0  itHIT:          0  itMISS:          0  dtACCESS:          0  dtHIT:          0  dtMISS:          0
LLC WRITE        ACCESS:     258370  HIT:     258369  MISS:          1  iACCESS:          0  iHIT:          0  iMISS:          0  dACCESS:     258370  dHIT:     258369  dMISS:          1  itACCESS:          0  itHIT:          0  itMISS:          0  dtACCESS:          0  dtHIT:          0  dtMISS:          0
LLC TRANSLATION  ACCESS:      43182  HIT:      11231  MISS:      31951  iACCESS:          0  iHIT:          0  iMISS:          0  dACCESS:          0  dHIT:          0  dMISS:          0  itACCESS:      13148  itHIT:       4799  itMISS:       8349  dtACCESS:      30034  dtHIT:       6432  dtMISS:      23602
LLC PREFETCH  REQUESTED:          0  ISSUED:          0  CROSSED:          0  USEFUL:          0  USELESS:          0
LLC AVERAGE iMISS LATENCY: 44.7317 cycles
LLC AVERAGE dMISS LATENCY: 108.195 cycles
LLC AVERAGE itMISS LATENCY: 1.69491 cycles
LLC AVERAGE dtMISS LATENCY: 4.91666 cycles
LLC PAGE CROSSINGS (TLB HIT):         0 
LLC PAGE CROSSINGS (TLB MISS):         0 
LLC AVERAGE MISS LATENCY: 159.538 cycles

PageTableWalker TOTAL       ACCESS:      83203  
PageTableWalker AVERAGE LATENCY: 4.22956 cycles
PageTableWalker TOTAL LATENCY: 351912 cycles

DRAM Statistics
Channel 0
 RQ ROW_BUFFER_HIT:     232874
  ROW_BUFFER_MISS:     615839
 AVG DBUS CONGESTED CYCLE:    3.64032
 WQ ROW_BUFFER_HIT:      21585
  ROW_BUFFER_MISS:      29227  FULL:          0

