last_page:0x200000000000000
VMEM_RES_CAP:0x100000
PAGE_SIZE:4096
LOG2_PAGE_SIZE:12
LOG2_PAGE_TABLE_SIZE:9
page_table_levels:5
WARNING: physical memory size is smaller than virtual memory size
FDiP enabled with aggresivity 16

*** ChampSim Multicore Out-of-Order Simulator ***

Warmup Instructions: 50000000
Simulation Instructions: 100000000
Number of CPUs: 1
Small page size: 4096
Large page size: 2097152

CPU 0 Bimodal branch predictor
Basic BTB sets: 1024 ways: 8 indirect buffer size: 4096 RAS size: 64
Instruction page size distrubution: 0
Loading instruction page size distribution from /home/bsc/bsc018186/scratch/itp_asplos25_AE/dump/srv180_ap.pdst
Data page size distrubution: 0
Loading data page size distribution from /home/bsc/bsc018186/scratch/itp_asplos25_AE/dump/srv180_ap.pdst
cpu0_L2C IP-based stride prefetcher
cpu0_L1D next line prefetcher
cpu0_L1I next line prefetcher
Off-chip DRAM Size: 4 GiB Channels: 1 Width: 64-bit Data Rate: 3200 MT/s
Heartbeat CPU 0 instructions: 10000000 cycles: 2500211 heartbeat IPC: 3.99967 cumulative IPC: 3.99967 (Simulation time: 0 hr 0 min 35 sec) 
Heartbeat CPU 0 instructions: 20000003 cycles: 5000278 heartbeat IPC: 3.9999 cumulative IPC: 3.99978 (Simulation time: 0 hr 1 min 12 sec) 
Heartbeat CPU 0 instructions: 30000000 cycles: 7500292 heartbeat IPC: 3.99998 cumulative IPC: 3.99985 (Simulation time: 0 hr 1 min 49 sec) 
Heartbeat CPU 0 instructions: 40000000 cycles: 10000312 heartbeat IPC: 3.99997 cumulative IPC: 3.99988 (Simulation time: 0 hr 2 min 27 sec) 
Heartbeat CPU 0 instructions: 50000001 cycles: 12500374 heartbeat IPC: 3.99991 cumulative IPC: 3.99989 (Simulation time: 0 hr 3 min 5 sec) 
Warmup finished CPU 0 instructions: 50000001 cycles: 12500375 cumulative IPC: 3.99989 (Simulation time: 0 hr 3 min 5 sec) 

Warmup complete CPU 0 instructions: 50000001 cycles: 12500375 (Simulation time: 0 hr 3 min 5 sec) 

Heartbeat CPU 0 instructions: 60000002 cycles: 26705951 heartbeat IPC: 0.703949 cumulative IPC: 0.703949 (Simulation time: 0 hr 4 min 5 sec) 
Heartbeat CPU 0 instructions: 70000002 cycles: 40510790 heartbeat IPC: 0.724384 cumulative IPC: 0.714021 (Simulation time: 0 hr 5 min 4 sec) 
Heartbeat CPU 0 instructions: 80000002 cycles: 53977042 heartbeat IPC: 0.742598 cumulative IPC: 0.723299 (Simulation time: 0 hr 6 min 3 sec) 
Heartbeat CPU 0 instructions: 90000001 cycles: 68214209 heartbeat IPC: 0.702387 cumulative IPC: 0.717955 (Simulation time: 0 hr 7 min 3 sec) 
Heartbeat CPU 0 instructions: 100000000 cycles: 81466911 heartbeat IPC: 0.754564 cumulative IPC: 0.72499 (Simulation time: 0 hr 8 min 2 sec) 
*** Reached end of trace: /gpfs/projects/bsc18/MN4/bsc18/romol/ChampSim/traces/qualcomm_srv/srv180_ap.champsimtrace.xz
Heartbeat CPU 0 instructions: 110000002 cycles: 95726754 heartbeat IPC: 0.701271 cumulative IPC: 0.720926 (Simulation time: 0 hr 9 min 2 sec) 
Heartbeat CPU 0 instructions: 120000001 cycles: 109019831 heartbeat IPC: 0.752272 cumulative IPC: 0.725243 (Simulation time: 0 hr 10 min 1 sec) 
Heartbeat CPU 0 instructions: 130000000 cycles: 123006257 heartbeat IPC: 0.714979 cumulative IPC: 0.723944 (Simulation time: 0 hr 11 min 0 sec) 
Heartbeat CPU 0 instructions: 140000001 cycles: 136687313 heartbeat IPC: 0.730938 cumulative IPC: 0.724714 (Simulation time: 0 hr 11 min 59 sec) 
Heartbeat CPU 0 instructions: 150000000 cycles: 150372327 heartbeat IPC: 0.730727 cumulative IPC: 0.725311 (Simulation time: 0 hr 12 min 59 sec) 
Simulation finished CPU 0 instructions: 100000001 cycles: 137871954 cumulative IPC: 0.725311 (Simulation time: 0 hr 12 min 59 sec) 

Simulation complete CPU 0 instructions: 100000001 cycles: 137871954 (Simulation time: 0 hr 12 min 59 sec) 


ChampSim completed all CPUs

Saving instructions large page distribution to /home/bsc/bsc018186/scratch/itp_asplos25_AE/dump/srv180_ap.pdst...
Saving data large page distribution to /home/bsc/bsc018186/scratch/itp_asplos25_AE/dump/srv180_ap.pdst...
=== Simulation ===
CPU 0 runs /gpfs/projects/bsc18/MN4/bsc18/romol/ChampSim/traces/qualcomm_srv/srv180_ap.champsimtrace.xz

Region of Interest Statistics

CPU 0 cumulative IPC: 0.725311 instructions: 100000001 cycles: 137871954
CPU 0 Branch Prediction Accuracy: 83.4184% MPKI: 29.7702 Average ROB Occupancy at Mispredict: 12.4465
Branch type MPKI
BRANCH_DIRECT_JUMP: 0.94516
BRANCH_INDIRECT: 15.4666
BRANCH_CONDITIONAL: 9.74065
BRANCH_DIRECT_CALL: 1.8065
BRANCH_INDIRECT_CALL: 0.49482
BRANCH_RETURN: 1.31645

Instructions large pages: 0
Instructions small pages: 1015
Large page distribution for instructions: 0%

Data large pages: 0
Data small pages: 9026
Large page distribution for data: 0%

cpu0_L1I TOTAL       ACCESS:   35065020  HIT:   26500930  MISS:    8564090  iACCESS:   35065020  iHIT:   26500930  iMISS:    8564090  dACCESS:          0  dHIT:          0  dMISS:          0  itACCESS:          0  itHIT:          0  itMISS:          0  dtACCESS:          0  dtHIT:          0  dtMISS:          0
cpu0_L1I LOAD         ACCESS:   10210221  HIT:    7804774  MISS:    2405447  iACCESS:   10210221  iHIT:    7804774  iMISS:    2405447  dACCESS:          0  dHIT:          0  dMISS:          0  itACCESS:          0  itHIT:          0  itMISS:          0  dtACCESS:          0  dtHIT:          0  dtMISS:          0
cpu0_L1I RFO          ACCESS:          0  HIT:          0  MISS:          0  iACCESS:          0  iHIT:          0  iMISS:          0  dACCESS:          0  dHIT:          0  dMISS:          0  itACCESS:          0  itHIT:          0  itMISS:          0  dtACCESS:          0  dtHIT:          0  dtMISS:          0
cpu0_L1I PREFETCH     ACCESS:   24854799  HIT:   18696156  MISS:    6158643  iACCESS:   24854799  iHIT:   18696156  iMISS:    6158643  dACCESS:          0  dHIT:          0  dMISS:          0  itACCESS:          0  itHIT:          0  itMISS:          0  dtACCESS:          0  dtHIT:          0  dtMISS:          0
cpu0_L1I WRITE        ACCESS:          0  HIT:          0  MISS:          0  iACCESS:          0  iHIT:          0  iMISS:          0  dACCESS:          0  dHIT:          0  dMISS:          0  itACCESS:          0  itHIT:          0  itMISS:          0  dtACCESS:          0  dtHIT:          0  dtMISS:          0
cpu0_L1I TRANSLATION  ACCESS:          0  HIT:          0  MISS:          0  iACCESS:          0  iHIT:          0  iMISS:          0  dACCESS:          0  dHIT:          0  dMISS:          0  itACCESS:          0  itHIT:          0  itMISS:          0  dtACCESS:          0  dtHIT:          0  dtMISS:          0
cpu0_L1I PREFETCH  REQUESTED:   27098846  ISSUED:   27096209  CROSSED:          0  USEFUL:    1944197  USELESS:     641319
cpu0_L1I AVERAGE iMISS LATENCY: 12.8147 cycles
cpu0_L1I AVERAGE dMISS LATENCY: 0 cycles
cpu0_L1I AVERAGE itMISS LATENCY: 0 cycles
cpu0_L1I AVERAGE dtMISS LATENCY: 0 cycles
cpu0_L1I PAGE CROSSINGS (TLB HIT):         0 
cpu0_L1I PAGE CROSSINGS (TLB MISS):         0 
cpu0_L1I AVERAGE MISS LATENCY: 12.8147 cycles
cpu0_ITLB TOTAL       ACCESS:   29038379  HIT:   27027821  MISS:    2010558  iACCESS:   29038379  iHIT:   27027821  iMISS:    2010558  dACCESS:          0  dHIT:          0  dMISS:          0  itACCESS:          0  itHIT:          0  itMISS:          0  dtACCESS:          0  dtHIT:          0  dtMISS:          0
cpu0_ITLB LOAD         ACCESS:   29038379  HIT:   27027821  MISS:    2010558  iACCESS:   29038379  iHIT:   27027821  iMISS:    2010558  dACCESS:          0  dHIT:          0  dMISS:          0  itACCESS:          0  itHIT:          0  itMISS:          0  dtACCESS:          0  dtHIT:          0  dtMISS:          0
cpu0_ITLB RFO          ACCESS:          0  HIT:          0  MISS:          0  iACCESS:          0  iHIT:          0  iMISS:          0  dACCESS:          0  dHIT:          0  dMISS:          0  itACCESS:          0  itHIT:          0  itMISS:          0  dtACCESS:          0  dtHIT:          0  dtMISS:          0
cpu0_ITLB PREFETCH     ACCESS:          0  HIT:          0  MISS:          0  iACCESS:          0  iHIT:          0  iMISS:          0  dACCESS:          0  dHIT:          0  dMISS:          0  itACCESS:          0  itHIT:          0  itMISS:          0  dtACCESS:          0  dtHIT:          0  dtMISS:          0
cpu0_ITLB WRITE        ACCESS:          0  HIT:          0  MISS:          0  iACCESS:          0  iHIT:          0  iMISS:          0  dACCESS:          0  dHIT:          0  dMISS:          0  itACCESS:          0  itHIT:          0  itMISS:          0  dtACCESS:          0  dtHIT:          0  dtMISS:          0
cpu0_ITLB TRANSLATION  ACCESS:          0  HIT:          0  MISS:          0  iACCESS:          0  iHIT:          0  iMISS:          0  dACCESS:          0  dHIT:          0  dMISS:          0  itACCESS:          0  itHIT:          0  itMISS:          0  dtACCESS:          0  dtHIT:          0  dtMISS:          0
cpu0_ITLB PREFETCH  REQUESTED:          0  ISSUED:          0  CROSSED:          0  USEFUL:     327820  USELESS:      63267
cpu0_ITLB AVERAGE iMISS LATENCY: 2.95735 cycles
cpu0_ITLB AVERAGE dMISS LATENCY: 0 cycles
cpu0_ITLB AVERAGE itMISS LATENCY: 0 cycles
cpu0_ITLB AVERAGE dtMISS LATENCY: 0 cycles
cpu0_ITLB PAGE CROSSINGS (TLB HIT):         0 
cpu0_ITLB PAGE CROSSINGS (TLB MISS):         0 
cpu0_ITLB AVERAGE MISS LATENCY: 2.95735 cycles
cpu0_DTLB TOTAL       ACCESS:   27713609  HIT:   25873235  MISS:    1840374  iACCESS:          0  iHIT:          0  iMISS:          0  dACCESS:   27713609  dHIT:   25873235  dMISS:    1840374  itACCESS:          0  itHIT:          0  itMISS:          0  dtACCESS:          0  dtHIT:          0  dtMISS:          0
cpu0_DTLB LOAD         ACCESS:   27713609  HIT:   25873235  MISS:    1840374  iACCESS:          0  iHIT:          0  iMISS:          0  dACCESS:   27713609  dHIT:   25873235  dMISS:    1840374  itACCESS:          0  itHIT:          0  itMISS:          0  dtACCESS:          0  dtHIT:          0  dtMISS:          0
cpu0_DTLB RFO          ACCESS:          0  HIT:          0  MISS:          0  iACCESS:          0  iHIT:          0  iMISS:          0  dACCESS:          0  dHIT:          0  dMISS:          0  itACCESS:          0  itHIT:          0  itMISS:          0  dtACCESS:          0  dtHIT:          0  dtMISS:          0
cpu0_DTLB PREFETCH     ACCESS:          0  HIT:          0  MISS:          0  iACCESS:          0  iHIT:          0  iMISS:          0  dACCESS:          0  dHIT:          0  dMISS:          0  itACCESS:          0  itHIT:          0  itMISS:          0  dtACCESS:          0  dtHIT:          0  dtMISS:          0
cpu0_DTLB WRITE        ACCESS:          0  HIT:          0  MISS:          0  iACCESS:          0  iHIT:          0  iMISS:          0  dACCESS:          0  dHIT:          0  dMISS:          0  itACCESS:          0  itHIT:          0  itMISS:          0  dtACCESS:          0  dtHIT:          0  dtMISS:          0
cpu0_DTLB TRANSLATION  ACCESS:          0  HIT:          0  MISS:          0  iACCESS:          0  iHIT:          0  iMISS:          0  dACCESS:          0  dHIT:          0  dMISS:          0  itACCESS:          0  itHIT:          0  itMISS:          0  dtACCESS:          0  dtHIT:          0  dtMISS:          0
cpu0_DTLB PREFETCH  REQUESTED:          0  ISSUED:          0  CROSSED:          0  USEFUL:          0  USELESS:          0
cpu0_DTLB AVERAGE iMISS LATENCY: 0 cycles
cpu0_DTLB AVERAGE dMISS LATENCY: 10.5581 cycles
cpu0_DTLB AVERAGE itMISS LATENCY: 0 cycles
cpu0_DTLB AVERAGE dtMISS LATENCY: 0 cycles
cpu0_DTLB PAGE CROSSINGS (TLB HIT):         0 
cpu0_DTLB PAGE CROSSINGS (TLB MISS):         0 
cpu0_DTLB AVERAGE MISS LATENCY: 10.5581 cycles
cpu0_STLB TOTAL       ACCESS:    1521136  HIT:    1359354  MISS:     161782  iACCESS:     391116  iHIT:     334701  iMISS:      56415  dACCESS:    1130020  dHIT:    1024653  dMISS:     105367  itACCESS:          0  itHIT:          0  itMISS:          0  dtACCESS:          0  dtHIT:          0  dtMISS:          0
cpu0_STLB LOAD         ACCESS:    1521136  HIT:    1359354  MISS:     161782  iACCESS:     391116  iHIT:     334701  iMISS:      56415  dACCESS:    1130020  dHIT:    1024653  dMISS:     105367  itACCESS:          0  itHIT:          0  itMISS:          0  dtACCESS:          0  dtHIT:          0  dtMISS:          0
cpu0_STLB RFO          ACCESS:          0  HIT:          0  MISS:          0  iACCESS:          0  iHIT:          0  iMISS:          0  dACCESS:          0  dHIT:          0  dMISS:          0  itACCESS:          0  itHIT:          0  itMISS:          0  dtACCESS:          0  dtHIT:          0  dtMISS:          0
cpu0_STLB PREFETCH     ACCESS:          0  HIT:          0  MISS:          0  iACCESS:          0  iHIT:          0  iMISS:          0  dACCESS:          0  dHIT:          0  dMISS:          0  itACCESS:          0  itHIT:          0  itMISS:          0  dtACCESS:          0  dtHIT:          0  dtMISS:          0
cpu0_STLB WRITE        ACCESS:          0  HIT:          0  MISS:          0  iACCESS:          0  iHIT:          0  iMISS:          0  dACCESS:          0  dHIT:          0  dMISS:          0  itACCESS:          0  itHIT:          0  itMISS:          0  dtACCESS:          0  dtHIT:          0  dtMISS:          0
cpu0_STLB TRANSLATION  ACCESS:          0  HIT:          0  MISS:          0  iACCESS:          0  iHIT:          0  iMISS:          0  dACCESS:          0  dHIT:          0  dMISS:          0  itACCESS:          0  itHIT:          0  itMISS:          0  dtACCESS:          0  dtHIT:          0  dtMISS:          0
cpu0_STLB PREFETCH  REQUESTED:          0  ISSUED:          0  CROSSED:          0  USEFUL:          0  USELESS:          0
cpu0_STLB AVERAGE iMISS LATENCY: 17.6782 cycles
cpu0_STLB AVERAGE dMISS LATENCY: 64.3938 cycles
cpu0_STLB AVERAGE itMISS LATENCY: 0 cycles
cpu0_STLB AVERAGE dtMISS LATENCY: 0 cycles
cpu0_STLB PAGE CROSSINGS (TLB HIT):         0 
cpu0_STLB PAGE CROSSINGS (TLB MISS):         0 
cpu0_STLB AVERAGE MISS LATENCY: 82.072 cycles
cpu0_L1D TOTAL       ACCESS:   41497081  HIT:   37953280  MISS:    3543801  iACCESS:          0  iHIT:          0  iMISS:          0  dACCESS:   41273035  dHIT:   37933999  dMISS:    3339036  itACCESS:      61300  itHIT:       9021  itMISS:      52279  dtACCESS:     162746  dtHIT:      10260  dtMISS:     152486
cpu0_L1D LOAD         ACCESS:   18973767  HIT:   17445327  MISS:    1528440  iACCESS:          0  iHIT:          0  iMISS:          0  dACCESS:   18973767  dHIT:   17445327  dMISS:    1528440  itACCESS:          0  itHIT:          0  itMISS:          0  dtACCESS:          0  dtHIT:          0  dtMISS:          0
cpu0_L1D RFO          ACCESS:          0  HIT:          0  MISS:          0  iACCESS:          0  iHIT:          0  iMISS:          0  dACCESS:          0  dHIT:          0  dMISS:          0  itACCESS:          0  itHIT:          0  itMISS:          0  dtACCESS:          0  dtHIT:          0  dtMISS:          0
cpu0_L1D PREFETCH     ACCESS:   12160396  HIT:   10777052  MISS:    1383344  iACCESS:          0  iHIT:          0  iMISS:          0  dACCESS:   12160396  dHIT:   10777052  dMISS:    1383344  itACCESS:          0  itHIT:          0  itMISS:          0  dtACCESS:          0  dtHIT:          0  dtMISS:          0
cpu0_L1D WRITE        ACCESS:   10138872  HIT:    9711620  MISS:     427252  iACCESS:          0  iHIT:          0  iMISS:          0  dACCESS:   10138872  dHIT:    9711620  dMISS:     427252  itACCESS:          0  itHIT:          0  itMISS:          0  dtACCESS:          0  dtHIT:          0  dtMISS:          0
cpu0_L1D TRANSLATION  ACCESS:     224046  HIT:      19281  MISS:     204765  iACCESS:          0  iHIT:          0  iMISS:          0  dACCESS:          0  dHIT:          0  dMISS:          0  itACCESS:      61300  itHIT:       9021  itMISS:      52279  dtACCESS:     162746  dtHIT:      10260  dtMISS:     152486
cpu0_L1D PREFETCH  REQUESTED:   18973767  ISSUED:   16943531  CROSSED:          0  USEFUL:     312201  USELESS:     706834
cpu0_L1D AVERAGE iMISS LATENCY: 0 cycles
cpu0_L1D AVERAGE dMISS LATENCY: 31.7062 cycles
cpu0_L1D AVERAGE itMISS LATENCY: 0.670054 cycles
cpu0_L1D AVERAGE dtMISS LATENCY: 2.30785 cycles
cpu0_L1D PAGE CROSSINGS (TLB HIT):         0 
cpu0_L1D PAGE CROSSINGS (TLB MISS):         0 
cpu0_L1D AVERAGE MISS LATENCY: 34.6841 cycles
cpu0_L2C TOTAL       ACCESS:    7045164  HIT:    1726568  MISS:    5318596  iACCESS:    3348025  iHIT:     891892  iMISS:    2456133  dACCESS:    3505706  dHIT:     721155  dMISS:    2784551  itACCESS:      52124  itHIT:      37188  itMISS:      14936  dtACCESS:     139309  dtHIT:      76333  dtMISS:      62976
cpu0_L2C LOAD         ACCESS:    1743325  HIT:     309347  MISS:    1433978  iACCESS:     802741  iHIT:     156476  iMISS:     646265  dACCESS:     940584  dHIT:     152871  dMISS:     787713  itACCESS:          0  itHIT:          0  itMISS:          0  dtACCESS:          0  dtHIT:          0  dtMISS:          0
cpu0_L2C RFO          ACCESS:     156082  HIT:      52424  MISS:     103658  iACCESS:          0  iHIT:          0  iMISS:          0  dACCESS:     156082  dHIT:      52424  dMISS:     103658  itACCESS:          0  itHIT:          0  itMISS:          0  dtACCESS:          0  dtHIT:          0  dtMISS:          0
cpu0_L2C PREFETCH     ACCESS:    4668484  HIT:    1110783  MISS:    3557701  iACCESS:    2545284  iHIT:     735416  iMISS:    1809868  dACCESS:    2123200  dHIT:     375367  dMISS:    1747833  itACCESS:          0  itHIT:          0  itMISS:          0  dtACCESS:          0  dtHIT:          0  dtMISS:          0
cpu0_L2C WRITE        ACCESS:     285840  HIT:     140493  MISS:     145347  iACCESS:          0  iHIT:          0  iMISS:          0  dACCESS:     285840  dHIT:     140493  dMISS:     145347  itACCESS:          0  itHIT:          0  itMISS:          0  dtACCESS:          0  dtHIT:          0  dtMISS:          0
cpu0_L2C TRANSLATION  ACCESS:     191433  HIT:     113521  MISS:      77912  iACCESS:          0  iHIT:          0  iMISS:          0  dACCESS:          0  dHIT:          0  dMISS:          0  itACCESS:      52124  itHIT:      37188  itMISS:      14936  dtACCESS:     139309  dtHIT:      76333  dtMISS:      62976
cpu0_L2C PREFETCH  REQUESTED:    1392314  ISSUED:    1392314  CROSSED:          0  USEFUL:     402861  USELESS:     375174
cpu0_L2C AVERAGE iMISS LATENCY: 14.7649 cycles
cpu0_L2C AVERAGE dMISS LATENCY: 23.9128 cycles
cpu0_L2C AVERAGE itMISS LATENCY: 0.355251 cycles
cpu0_L2C AVERAGE dtMISS LATENCY: 1.28858 cycles
cpu0_L2C PAGE CROSSINGS (TLB HIT):         0 
cpu0_L2C PAGE CROSSINGS (TLB MISS):         0 
cpu0_L2C AVERAGE MISS LATENCY: 40.3215 cycles
LLC TOTAL       ACCESS:    5206808  HIT:    4461561  MISS:     745247  iACCESS:    2403320  iHIT:    2185777  iMISS:     217543  dACCESS:    2725576  dHIT:    2238661  dMISS:     486915  itACCESS:      14936  itHIT:       5629  itMISS:       9307  dtACCESS:      62976  dtHIT:      31494  dtMISS:      31482
LLC LOAD         ACCESS:    1431805  HIT:    1265683  MISS:     166122  iACCESS:     644409  iHIT:     598619  iMISS:      45790  dACCESS:     787396  dHIT:     667064  dMISS:     120332  itACCESS:          0  itHIT:          0  itMISS:          0  dtACCESS:          0  dtHIT:          0  dtMISS:          0
LLC RFO          ACCESS:     103654  HIT:      68988  MISS:      34666  iACCESS:          0  iHIT:          0  iMISS:          0  dACCESS:     103654  dHIT:      68988  dMISS:      34666  itACCESS:          0  itHIT:          0  itMISS:          0  dtACCESS:          0  dtHIT:          0  dtMISS:          0
LLC PREFETCH     ACCESS:    3460570  HIT:    2965490  MISS:     495080  iACCESS:    1758911  iHIT:    1587158  iMISS:     171753  dACCESS:    1701659  dHIT:    1378332  dMISS:     323327  itACCESS:          0  itHIT:          0  itMISS:          0  dtACCESS:          0  dtHIT:          0  dtMISS:          0
LLC WRITE        ACCESS:     132867  HIT:     124277  MISS:       8590  iACCESS:          0  iHIT:          0  iMISS:          0  dACCESS:     132867  dHIT:     124277  dMISS:       8590  itACCESS:          0  itHIT:          0  itMISS:          0  dtACCESS:          0  dtHIT:          0  dtMISS:          0
LLC TRANSLATION  ACCESS:      77912  HIT:      37123  MISS:      40789  iACCESS:          0  iHIT:          0  iMISS:          0  dACCESS:          0  dHIT:          0  dMISS:          0  itACCESS:      14936  itHIT:       5629  itMISS:       9307  dtACCESS:      62976  dtHIT:      31494  dtMISS:      31482
LLC PREFETCH  REQUESTED:          0  ISSUED:          0  CROSSED:          0  USEFUL:          0  USELESS:          0
LLC AVERAGE iMISS LATENCY: 43.1551 cycles
LLC AVERAGE dMISS LATENCY: 103.473 cycles
LLC AVERAGE itMISS LATENCY: 2.14274 cycles
LLC AVERAGE dtMISS LATENCY: 7.54974 cycles
LLC PAGE CROSSINGS (TLB HIT):         0 
LLC PAGE CROSSINGS (TLB MISS):         0 
LLC AVERAGE MISS LATENCY: 156.321 cycles

PageTableWalker TOTAL       ACCESS:      81960  
PageTableWalker AVERAGE LATENCY: 4.49281 cycles
PageTableWalker TOTAL LATENCY: 368230 cycles

DRAM Statistics
Channel 0
 RQ ROW_BUFFER_HIT:     202470
  ROW_BUFFER_MISS:     534134
 AVG DBUS CONGESTED CYCLE:    3.62214
 WQ ROW_BUFFER_HIT:      14547
  ROW_BUFFER_MISS:      20449  FULL:          0

