last_page:0x200000000000000
VMEM_RES_CAP:0x100000
PAGE_SIZE:4096
LOG2_PAGE_SIZE:12
LOG2_PAGE_TABLE_SIZE:9
page_table_levels:5
WARNING: physical memory size is smaller than virtual memory size
FDiP enabled with aggresivity 16

*** ChampSim Multicore Out-of-Order Simulator ***

Warmup Instructions: 50000000
Simulation Instructions: 100000000
Number of CPUs: 1
Small page size: 4096
Large page size: 2097152

CPU 0 Bimodal branch predictor
Basic BTB sets: 1024 ways: 8 indirect buffer size: 4096 RAS size: 64
Instruction page size distrubution: 0
Loading instruction page size distribution from /home/bsc/bsc018186/scratch/itp_asplos25_AE/dump/srv16_ap.pdst
Data page size distrubution: 0
Loading data page size distribution from /home/bsc/bsc018186/scratch/itp_asplos25_AE/dump/srv16_ap.pdst
cpu0_L2C IP-based stride prefetcher
cpu0_L2C is using PTP replacement policy:
	TLB_STRESS_THRESHOLD:0
	PTE_EVICTION_RATIO:0
cpu0_L1D next line prefetcher
cpu0_STLB using iTP with max lru@8
cpu0_STLB using iTP with instr@0 and data@2
Init sat counter with 3 bits (max:50).
cpu0_L1I next line prefetcher
Off-chip DRAM Size: 4 GiB Channels: 1 Width: 64-bit Data Rate: 3200 MT/s
Heartbeat CPU 0 instructions: 10000000 cycles: 2500210 heartbeat IPC: 3.99967 cumulative IPC: 3.99967 (Simulation time: 0 hr 0 min 36 sec) 
Heartbeat CPU 0 instructions: 20000000 cycles: 5000245 heartbeat IPC: 3.99995 cumulative IPC: 3.99981 (Simulation time: 0 hr 1 min 15 sec) 
Heartbeat CPU 0 instructions: 30000003 cycles: 7500274 heartbeat IPC: 3.99996 cumulative IPC: 3.99986 (Simulation time: 0 hr 1 min 54 sec) 
Heartbeat CPU 0 instructions: 40000003 cycles: 10000275 heartbeat IPC: 4 cumulative IPC: 3.9999 (Simulation time: 0 hr 2 min 32 sec) 
Heartbeat CPU 0 instructions: 50000000 cycles: 12500329 heartbeat IPC: 3.99992 cumulative IPC: 3.9999 (Simulation time: 0 hr 3 min 11 sec) 
Warmup finished CPU 0 instructions: 50000000 cycles: 12500330 cumulative IPC: 3.9999 (Simulation time: 0 hr 3 min 11 sec) 

Warmup complete CPU 0 instructions: 50000000 cycles: 12500330 (Simulation time: 0 hr 3 min 11 sec) 

Heartbeat CPU 0 instructions: 60000001 cycles: 26556705 heartbeat IPC: 0.711421 cumulative IPC: 0.711422 (Simulation time: 0 hr 4 min 12 sec) 
Heartbeat CPU 0 instructions: 70000004 cycles: 40799527 heartbeat IPC: 0.702109 cumulative IPC: 0.706734 (Simulation time: 0 hr 5 min 12 sec) 
Heartbeat CPU 0 instructions: 80000003 cycles: 55113230 heartbeat IPC: 0.698632 cumulative IPC: 0.704013 (Simulation time: 0 hr 6 min 11 sec) 
Heartbeat CPU 0 instructions: 90000000 cycles: 69416703 heartbeat IPC: 0.699131 cumulative IPC: 0.702786 (Simulation time: 0 hr 7 min 11 sec) 
Heartbeat CPU 0 instructions: 100000001 cycles: 83821611 heartbeat IPC: 0.694208 cumulative IPC: 0.701054 (Simulation time: 0 hr 8 min 10 sec) 
*** Reached end of trace: /gpfs/projects/bsc18/MN4/bsc18/romol/ChampSim/traces/qualcomm_srv/srv16_ap.champsimtrace.xz
Heartbeat CPU 0 instructions: 110000002 cycles: 98464037 heartbeat IPC: 0.682948 cumulative IPC: 0.697969 (Simulation time: 0 hr 9 min 9 sec) 
Heartbeat CPU 0 instructions: 120000002 cycles: 112356217 heartbeat IPC: 0.71983 cumulative IPC: 0.701011 (Simulation time: 0 hr 10 min 7 sec) 
Heartbeat CPU 0 instructions: 130000002 cycles: 126723271 heartbeat IPC: 0.696037 cumulative IPC: 0.700385 (Simulation time: 0 hr 11 min 6 sec) 
Heartbeat CPU 0 instructions: 140000000 cycles: 140504937 heartbeat IPC: 0.725602 cumulative IPC: 0.7031 (Simulation time: 0 hr 12 min 4 sec) 
Heartbeat CPU 0 instructions: 150000001 cycles: 154942096 heartbeat IPC: 0.692658 cumulative IPC: 0.702042 (Simulation time: 0 hr 13 min 3 sec) 
Simulation finished CPU 0 instructions: 100000001 cycles: 142441767 cumulative IPC: 0.702042 (Simulation time: 0 hr 13 min 3 sec) 

Simulation complete CPU 0 instructions: 100000001 cycles: 142441767 (Simulation time: 0 hr 13 min 3 sec) 


ChampSim completed all CPUs

Saving instructions large page distribution to /home/bsc/bsc018186/scratch/itp_asplos25_AE/dump/srv16_ap.pdst...
Saving data large page distribution to /home/bsc/bsc018186/scratch/itp_asplos25_AE/dump/srv16_ap.pdst...
=== Simulation ===
CPU 0 runs /gpfs/projects/bsc18/MN4/bsc18/romol/ChampSim/traces/qualcomm_srv/srv16_ap.champsimtrace.xz

Region of Interest Statistics

CPU 0 cumulative IPC: 0.702042 instructions: 100000001 cycles: 142441767
CPU 0 Branch Prediction Accuracy: 83.3333% MPKI: 29.9146 Average ROB Occupancy at Mispredict: 12.4458
Branch type MPKI
BRANCH_DIRECT_JUMP: 0.96503
BRANCH_INDIRECT: 15.5278
BRANCH_CONDITIONAL: 9.75804
BRANCH_DIRECT_CALL: 1.83742
BRANCH_INDIRECT_CALL: 0.49222
BRANCH_RETURN: 1.33411

Instructions large pages: 0
Instructions small pages: 9894
Large page distribution for instructions: 0%

Data large pages: 0
Data small pages: 9057
Large page distribution for data: 0%

cpu0_L1I TOTAL       ACCESS:   35170350  HIT:   26506769  MISS:    8663581  iACCESS:   35170350  iHIT:   26506769  iMISS:    8663581  dACCESS:          0  dHIT:          0  dMISS:          0  itACCESS:          0  itHIT:          0  itMISS:          0  dtACCESS:          0  dtHIT:          0  dtMISS:          0
cpu0_L1I LOAD         ACCESS:   10253749  HIT:    7823554  MISS:    2430195  iACCESS:   10253749  iHIT:    7823554  iMISS:    2430195  dACCESS:          0  dHIT:          0  dMISS:          0  itACCESS:          0  itHIT:          0  itMISS:          0  dtACCESS:          0  dtHIT:          0  dtMISS:          0
cpu0_L1I RFO          ACCESS:          0  HIT:          0  MISS:          0  iACCESS:          0  iHIT:          0  iMISS:          0  dACCESS:          0  dHIT:          0  dMISS:          0  itACCESS:          0  itHIT:          0  itMISS:          0  dtACCESS:          0  dtHIT:          0  dtMISS:          0
cpu0_L1I PREFETCH     ACCESS:   24916601  HIT:   18683215  MISS:    6233386  iACCESS:   24916601  iHIT:   18683215  iMISS:    6233386  dACCESS:          0  dHIT:          0  dMISS:          0  itACCESS:          0  itHIT:          0  itMISS:          0  dtACCESS:          0  dtHIT:          0  dtMISS:          0
cpu0_L1I WRITE        ACCESS:          0  HIT:          0  MISS:          0  iACCESS:          0  iHIT:          0  iMISS:          0  dACCESS:          0  dHIT:          0  dMISS:          0  itACCESS:          0  itHIT:          0  itMISS:          0  dtACCESS:          0  dtHIT:          0  dtMISS:          0
cpu0_L1I TRANSLATION  ACCESS:          0  HIT:          0  MISS:          0  iACCESS:          0  iHIT:          0  iMISS:          0  dACCESS:          0  dHIT:          0  dMISS:          0  itACCESS:          0  itHIT:          0  itMISS:          0  dtACCESS:          0  dtHIT:          0  dtMISS:          0
cpu0_L1I PREFETCH  REQUESTED:   27143938  ISSUED:   27140130  CROSSED:          0  USEFUL:    1943592  USELESS:     637144
cpu0_L1I AVERAGE iMISS LATENCY: 13.9202 cycles
cpu0_L1I AVERAGE dMISS LATENCY: 0 cycles
cpu0_L1I AVERAGE itMISS LATENCY: 0 cycles
cpu0_L1I AVERAGE dtMISS LATENCY: 0 cycles
cpu0_L1I PAGE CROSSINGS (TLB HIT):         0 
cpu0_L1I PAGE CROSSINGS (TLB MISS):         0 
cpu0_L1I AVERAGE MISS LATENCY: 13.9202 cycles
cpu0_ITLB TOTAL       ACCESS:   29061514  HIT:   27076305  MISS:    1985209  iACCESS:   29061514  iHIT:   27076305  iMISS:    1985209  dACCESS:          0  dHIT:          0  dMISS:          0  itACCESS:          0  itHIT:          0  itMISS:          0  dtACCESS:          0  dtHIT:          0  dtMISS:          0
cpu0_ITLB LOAD         ACCESS:   29061514  HIT:   27076305  MISS:    1985209  iACCESS:   29061514  iHIT:   27076305  iMISS:    1985209  dACCESS:          0  dHIT:          0  dMISS:          0  itACCESS:          0  itHIT:          0  itMISS:          0  dtACCESS:          0  dtHIT:          0  dtMISS:          0
cpu0_ITLB RFO          ACCESS:          0  HIT:          0  MISS:          0  iACCESS:          0  iHIT:          0  iMISS:          0  dACCESS:          0  dHIT:          0  dMISS:          0  itACCESS:          0  itHIT:          0  itMISS:          0  dtACCESS:          0  dtHIT:          0  dtMISS:          0
cpu0_ITLB PREFETCH     ACCESS:          0  HIT:          0  MISS:          0  iACCESS:          0  iHIT:          0  iMISS:          0  dACCESS:          0  dHIT:          0  dMISS:          0  itACCESS:          0  itHIT:          0  itMISS:          0  dtACCESS:          0  dtHIT:          0  dtMISS:          0
cpu0_ITLB WRITE        ACCESS:          0  HIT:          0  MISS:          0  iACCESS:          0  iHIT:          0  iMISS:          0  dACCESS:          0  dHIT:          0  dMISS:          0  itACCESS:          0  itHIT:          0  itMISS:          0  dtACCESS:          0  dtHIT:          0  dtMISS:          0
cpu0_ITLB TRANSLATION  ACCESS:          0  HIT:          0  MISS:          0  iACCESS:          0  iHIT:          0  iMISS:          0  dACCESS:          0  dHIT:          0  dMISS:          0  itACCESS:          0  itHIT:          0  itMISS:          0  dtACCESS:          0  dtHIT:          0  dtMISS:          0
cpu0_ITLB PREFETCH  REQUESTED:          0  ISSUED:          0  CROSSED:          0  USEFUL:     326970  USELESS:      61927
cpu0_ITLB AVERAGE iMISS LATENCY: 1.76915 cycles
cpu0_ITLB AVERAGE dMISS LATENCY: 0 cycles
cpu0_ITLB AVERAGE itMISS LATENCY: 0 cycles
cpu0_ITLB AVERAGE dtMISS LATENCY: 0 cycles
cpu0_ITLB PAGE CROSSINGS (TLB HIT):         0 
cpu0_ITLB PAGE CROSSINGS (TLB MISS):         0 
cpu0_ITLB AVERAGE MISS LATENCY: 1.76915 cycles
cpu0_DTLB TOTAL       ACCESS:   27735032  HIT:   25622547  MISS:    2112485  iACCESS:          0  iHIT:          0  iMISS:          0  dACCESS:   27735032  dHIT:   25622547  dMISS:    2112485  itACCESS:          0  itHIT:          0  itMISS:          0  dtACCESS:          0  dtHIT:          0  dtMISS:          0
cpu0_DTLB LOAD         ACCESS:   27735032  HIT:   25622547  MISS:    2112485  iACCESS:          0  iHIT:          0  iMISS:          0  dACCESS:   27735032  dHIT:   25622547  dMISS:    2112485  itACCESS:          0  itHIT:          0  itMISS:          0  dtACCESS:          0  dtHIT:          0  dtMISS:          0
cpu0_DTLB RFO          ACCESS:          0  HIT:          0  MISS:          0  iACCESS:          0  iHIT:          0  iMISS:          0  dACCESS:          0  dHIT:          0  dMISS:          0  itACCESS:          0  itHIT:          0  itMISS:          0  dtACCESS:          0  dtHIT:          0  dtMISS:          0
cpu0_DTLB PREFETCH     ACCESS:          0  HIT:          0  MISS:          0  iACCESS:          0  iHIT:          0  iMISS:          0  dACCESS:          0  dHIT:          0  dMISS:          0  itACCESS:          0  itHIT:          0  itMISS:          0  dtACCESS:          0  dtHIT:          0  dtMISS:          0
cpu0_DTLB WRITE        ACCESS:          0  HIT:          0  MISS:          0  iACCESS:          0  iHIT:          0  iMISS:          0  dACCESS:          0  dHIT:          0  dMISS:          0  itACCESS:          0  itHIT:          0  itMISS:          0  dtACCESS:          0  dtHIT:          0  dtMISS:          0
cpu0_DTLB TRANSLATION  ACCESS:          0  HIT:          0  MISS:          0  iACCESS:          0  iHIT:          0  iMISS:          0  dACCESS:          0  dHIT:          0  dMISS:          0  itACCESS:          0  itHIT:          0  itMISS:          0  dtACCESS:          0  dtHIT:          0  dtMISS:          0
cpu0_DTLB PREFETCH  REQUESTED:          0  ISSUED:          0  CROSSED:          0  USEFUL:          0  USELESS:          0
cpu0_DTLB AVERAGE iMISS LATENCY: 0 cycles
cpu0_DTLB AVERAGE dMISS LATENCY: 9.40238 cycles
cpu0_DTLB AVERAGE itMISS LATENCY: 0 cycles
cpu0_DTLB AVERAGE dtMISS LATENCY: 0 cycles
cpu0_DTLB PAGE CROSSINGS (TLB HIT):         0 
cpu0_DTLB PAGE CROSSINGS (TLB MISS):         0 
cpu0_DTLB AVERAGE MISS LATENCY: 9.40238 cycles
cpu0_STLB TOTAL       ACCESS:    1645597  HIT:    1513206  MISS:     132391  iACCESS:     388945  iHIT:     383952  iMISS:       4993  dACCESS:    1256652  dHIT:    1129254  dMISS:     127398  itACCESS:          0  itHIT:          0  itMISS:          0  dtACCESS:          0  dtHIT:          0  dtMISS:          0
cpu0_STLB LOAD         ACCESS:    1645597  HIT:    1513206  MISS:     132391  iACCESS:     388945  iHIT:     383952  iMISS:       4993  dACCESS:    1256652  dHIT:    1129254  dMISS:     127398  itACCESS:          0  itHIT:          0  itMISS:          0  dtACCESS:          0  dtHIT:          0  dtMISS:          0
cpu0_STLB RFO          ACCESS:          0  HIT:          0  MISS:          0  iACCESS:          0  iHIT:          0  iMISS:          0  dACCESS:          0  dHIT:          0  dMISS:          0  itACCESS:          0  itHIT:          0  itMISS:          0  dtACCESS:          0  dtHIT:          0  dtMISS:          0
cpu0_STLB PREFETCH     ACCESS:          0  HIT:          0  MISS:          0  iACCESS:          0  iHIT:          0  iMISS:          0  dACCESS:          0  dHIT:          0  dMISS:          0  itACCESS:          0  itHIT:          0  itMISS:          0  dtACCESS:          0  dtHIT:          0  dtMISS:          0
cpu0_STLB WRITE        ACCESS:          0  HIT:          0  MISS:          0  iACCESS:          0  iHIT:          0  iMISS:          0  dACCESS:          0  dHIT:          0  dMISS:          0  itACCESS:          0  itHIT:          0  itMISS:          0  dtACCESS:          0  dtHIT:          0  dtMISS:          0
cpu0_STLB TRANSLATION  ACCESS:          0  HIT:          0  MISS:          0  iACCESS:          0  iHIT:          0  iMISS:          0  dACCESS:          0  dHIT:          0  dMISS:          0  itACCESS:          0  itHIT:          0  itMISS:          0  dtACCESS:          0  dtHIT:          0  dtMISS:          0
cpu0_STLB PREFETCH  REQUESTED:          0  ISSUED:          0  CROSSED:          0  USEFUL:          0  USELESS:          0
cpu0_STLB AVERAGE iMISS LATENCY: 3.77741 cycles
cpu0_STLB AVERAGE dMISS LATENCY: 74.3113 cycles
cpu0_STLB AVERAGE itMISS LATENCY: 0 cycles
cpu0_STLB AVERAGE dtMISS LATENCY: 0 cycles
cpu0_STLB PAGE CROSSINGS (TLB HIT):         0 
cpu0_STLB PAGE CROSSINGS (TLB MISS):         0 
cpu0_STLB AVERAGE MISS LATENCY: 78.0887 cycles
cpu0_L1D TOTAL       ACCESS:   41523689  HIT:   37965566  MISS:    3558123  iACCESS:          0  iHIT:          0  iMISS:          0  dACCESS:   41324695  dHIT:   37953501  dMISS:    3371194  itACCESS:       6076  itHIT:        531  itMISS:       5545  dtACCESS:     192918  dtHIT:      11534  dtMISS:     181384
cpu0_L1D LOAD         ACCESS:   18947997  HIT:   17411000  MISS:    1536997  iACCESS:          0  iHIT:          0  iMISS:          0  dACCESS:   18947997  dHIT:   17411000  dMISS:    1536997  itACCESS:          0  itHIT:          0  itMISS:          0  dtACCESS:          0  dtHIT:          0  dtMISS:          0
cpu0_L1D RFO          ACCESS:          0  HIT:          0  MISS:          0  iACCESS:          0  iHIT:          0  iMISS:          0  dACCESS:          0  dHIT:          0  dMISS:          0  itACCESS:          0  itHIT:          0  itMISS:          0  dtACCESS:          0  dtHIT:          0  dtMISS:          0
cpu0_L1D PREFETCH     ACCESS:   12230601  HIT:   10842870  MISS:    1387731  iACCESS:          0  iHIT:          0  iMISS:          0  dACCESS:   12230601  dHIT:   10842870  dMISS:    1387731  itACCESS:          0  itHIT:          0  itMISS:          0  dtACCESS:          0  dtHIT:          0  dtMISS:          0
cpu0_L1D WRITE        ACCESS:   10146097  HIT:    9699631  MISS:     446466  iACCESS:          0  iHIT:          0  iMISS:          0  dACCESS:   10146097  dHIT:    9699631  dMISS:     446466  itACCESS:          0  itHIT:          0  itMISS:          0  dtACCESS:          0  dtHIT:          0  dtMISS:          0
cpu0_L1D TRANSLATION  ACCESS:     198994  HIT:      12065  MISS:     186929  iACCESS:          0  iHIT:          0  iMISS:          0  dACCESS:          0  dHIT:          0  dMISS:          0  itACCESS:       6076  itHIT:        531  itMISS:       5545  dtACCESS:     192918  dtHIT:      11534  dtMISS:     181384
cpu0_L1D PREFETCH  REQUESTED:   18947997  ISSUED:   17070286  CROSSED:          0  USEFUL:     308622  USELESS:     706916
cpu0_L1D AVERAGE iMISS LATENCY: 0 cycles
cpu0_L1D AVERAGE dMISS LATENCY: 35.3489 cycles
cpu0_L1D AVERAGE itMISS LATENCY: 0.124147 cycles
cpu0_L1D AVERAGE dtMISS LATENCY: 2.05749 cycles
cpu0_L1D PAGE CROSSINGS (TLB HIT):         0 
cpu0_L1D PAGE CROSSINGS (TLB MISS):         0 
cpu0_L1D AVERAGE MISS LATENCY: 37.5305 cycles
cpu0_L2C TOTAL       ACCESS:    7020066  HIT:    1199692  MISS:    5820374  iACCESS:    3332324  iHIT:     692864  iMISS:    2639460  dACCESS:    3511848  dHIT:     374122  dMISS:    3137726  itACCESS:       5545  itHIT:       2582  itMISS:       2963  dtACCESS:     170349  dtHIT:     130124  dtMISS:      40225
cpu0_L2C LOAD         ACCESS:    1730840  HIT:     146601  MISS:    1584239  iACCESS:     791138  iHIT:     106338  iMISS:     684800  dACCESS:     939702  dHIT:      40263  dMISS:     899439  itACCESS:          0  itHIT:          0  itMISS:          0  dtACCESS:          0  dtHIT:          0  dtMISS:          0
cpu0_L2C RFO          ACCESS:     156085  HIT:       9486  MISS:     146599  iACCESS:          0  iHIT:          0  iMISS:          0  dACCESS:     156085  dHIT:       9486  dMISS:     146599  itACCESS:          0  itHIT:          0  itMISS:          0  dtACCESS:          0  dtHIT:          0  dtMISS:          0
cpu0_L2C PREFETCH     ACCESS:    4671634  HIT:     852904  MISS:    3818730  iACCESS:    2541186  iHIT:     586526  iMISS:    1954660  dACCESS:    2130448  dHIT:     266378  dMISS:    1864070  itACCESS:          0  itHIT:          0  itMISS:          0  dtACCESS:          0  dtHIT:          0  dtMISS:          0
cpu0_L2C WRITE        ACCESS:     285613  HIT:      57995  MISS:     227618  iACCESS:          0  iHIT:          0  iMISS:          0  dACCESS:     285613  dHIT:      57995  dMISS:     227618  itACCESS:          0  itHIT:          0  itMISS:          0  dtACCESS:          0  dtHIT:          0  dtMISS:          0
cpu0_L2C TRANSLATION  ACCESS:     175894  HIT:     132706  MISS:      43188  iACCESS:          0  iHIT:          0  iMISS:          0  dACCESS:          0  dHIT:          0  dMISS:          0  itACCESS:       5545  itHIT:       2582  itMISS:       2963  dtACCESS:     170349  dtHIT:     130124  dtMISS:      40225
cpu0_L2C PREFETCH  REQUESTED:    1401381  ISSUED:    1401381  CROSSED:          0  USEFUL:     417679  USELESS:     406167
cpu0_L2C AVERAGE iMISS LATENCY: 15.3562 cycles
cpu0_L2C AVERAGE dMISS LATENCY: 25.5902 cycles
cpu0_L2C AVERAGE itMISS LATENCY: 0.0667872 cycles
cpu0_L2C AVERAGE dtMISS LATENCY: 0.985934 cycles
cpu0_L2C PAGE CROSSINGS (TLB HIT):         0 
cpu0_L2C PAGE CROSSINGS (TLB MISS):         0 
cpu0_L2C AVERAGE MISS LATENCY: 41.999 cycles
LLC TOTAL       ACCESS:    5728119  HIT:    4852068  MISS:     876051  iACCESS:    2577145  iHIT:    2306194  iMISS:     270951  dACCESS:    3107786  dHIT:    2532451  dMISS:     575335  itACCESS:       2963  itHIT:       1110  itMISS:       1853  dtACCESS:      40225  dtHIT:      12313  dtMISS:      27912
LLC LOAD         ACCESS:    1582120  HIT:    1384385  MISS:     197735  iACCESS:     682999  iHIT:     627753  iMISS:      55246  dACCESS:     899121  dHIT:     756632  dMISS:     142489  itACCESS:          0  itHIT:          0  itMISS:          0  dtACCESS:          0  dtHIT:          0  dtMISS:          0
LLC RFO          ACCESS:     146594  HIT:     105434  MISS:      41160  iACCESS:          0  iHIT:          0  iMISS:          0  dACCESS:     146594  dHIT:     105434  dMISS:      41160  itACCESS:          0  itHIT:          0  itMISS:          0  dtACCESS:          0  dtHIT:          0  dtMISS:          0
LLC PREFETCH     ACCESS:    3697930  HIT:    3090539  MISS:     607391  iACCESS:    1894146  iHIT:    1678441  iMISS:     215705  dACCESS:    1803784  dHIT:    1412098  dMISS:     391686  itACCESS:          0  itHIT:          0  itMISS:          0  dtACCESS:          0  dtHIT:          0  dtMISS:          0
LLC WRITE        ACCESS:     258287  HIT:     258287  MISS:          0  iACCESS:          0  iHIT:          0  iMISS:          0  dACCESS:     258287  dHIT:     258287  dMISS:          0  itACCESS:          0  itHIT:          0  itMISS:          0  dtACCESS:          0  dtHIT:          0  dtMISS:          0
LLC TRANSLATION  ACCESS:      43188  HIT:      13423  MISS:      29765  iACCESS:          0  iHIT:          0  iMISS:          0  dACCESS:          0  dHIT:          0  dMISS:          0  itACCESS:       2963  itHIT:       1110  itMISS:       1853  dtACCESS:      40225  dtHIT:      12313  dtMISS:      27912
LLC PREFETCH  REQUESTED:          0  ISSUED:          0  CROSSED:          0  USEFUL:          0  USELESS:          0
LLC AVERAGE iMISS LATENCY: 45.2208 cycles
LLC AVERAGE dMISS LATENCY: 107.085 cycles
LLC AVERAGE itMISS LATENCY: 0.377525 cycles
LLC AVERAGE dtMISS LATENCY: 5.64817 cycles
LLC PAGE CROSSINGS (TLB HIT):         0 
LLC PAGE CROSSINGS (TLB MISS):         0 
LLC AVERAGE MISS LATENCY: 158.331 cycles

PageTableWalker TOTAL       ACCESS:      66303  
PageTableWalker AVERAGE LATENCY: 4.6277 cycles
PageTableWalker TOTAL LATENCY: 306830 cycles

DRAM Statistics
Channel 0
 RQ ROW_BUFFER_HIT:     242768
  ROW_BUFFER_MISS:     633220
 AVG DBUS CONGESTED CYCLE:     3.6249
 WQ ROW_BUFFER_HIT:      21720
  ROW_BUFFER_MISS:      31262  FULL:          0

