last_page:0x200000000000000
VMEM_RES_CAP:0x100000
PAGE_SIZE:4096
LOG2_PAGE_SIZE:12
LOG2_PAGE_TABLE_SIZE:9
page_table_levels:5
WARNING: physical memory size is smaller than virtual memory size
FDiP enabled with aggresivity 16

*** ChampSim Multicore Out-of-Order Simulator ***

Warmup Instructions: 50000000
Simulation Instructions: 100000000
Number of CPUs: 1
Small page size: 4096
Large page size: 2097152

CPU 0 Bimodal branch predictor
Basic BTB sets: 1024 ways: 8 indirect buffer size: 4096 RAS size: 64
Instruction page size distrubution: 0
Loading instruction page size distribution from /home/bsc/bsc018186/scratch/itp_asplos25_AE/dump/srv133_ap.pdst
Data page size distrubution: 0
Loading data page size distribution from /home/bsc/bsc018186/scratch/itp_asplos25_AE/dump/srv133_ap.pdst
cpu0_L2C IP-based stride prefetcher
cpu0_L1D next line prefetcher
cpu0_STLB using iTP with max lru@8
cpu0_STLB using iTP with instr@0 and data@2
Init sat counter with 3 bits (max:50).
cpu0_L1I next line prefetcher
Off-chip DRAM Size: 4 GiB Channels: 1 Width: 64-bit Data Rate: 3200 MT/s
Heartbeat CPU 0 instructions: 10000002 cycles: 2500147 heartbeat IPC: 3.99977 cumulative IPC: 3.99977 (Simulation time: 0 hr 0 min 38 sec) 
Heartbeat CPU 0 instructions: 20000002 cycles: 5000156 heartbeat IPC: 3.99999 cumulative IPC: 3.99988 (Simulation time: 0 hr 1 min 17 sec) 
Heartbeat CPU 0 instructions: 30000002 cycles: 7500156 heartbeat IPC: 4 cumulative IPC: 3.99992 (Simulation time: 0 hr 1 min 58 sec) 
Heartbeat CPU 0 instructions: 40000001 cycles: 10000169 heartbeat IPC: 3.99998 cumulative IPC: 3.99994 (Simulation time: 0 hr 2 min 39 sec) 
Heartbeat CPU 0 instructions: 50000000 cycles: 12500190 heartbeat IPC: 3.99997 cumulative IPC: 3.99994 (Simulation time: 0 hr 3 min 21 sec) 
Warmup finished CPU 0 instructions: 50000000 cycles: 12500191 cumulative IPC: 3.99994 (Simulation time: 0 hr 3 min 21 sec) 

Warmup complete CPU 0 instructions: 50000000 cycles: 12500191 (Simulation time: 0 hr 3 min 21 sec) 

Heartbeat CPU 0 instructions: 60000001 cycles: 26516758 heartbeat IPC: 0.713442 cumulative IPC: 0.713442 (Simulation time: 0 hr 4 min 25 sec) 
Heartbeat CPU 0 instructions: 70000003 cycles: 40755932 heartbeat IPC: 0.702289 cumulative IPC: 0.707821 (Simulation time: 0 hr 5 min 30 sec) 
Heartbeat CPU 0 instructions: 80000001 cycles: 55130463 heartbeat IPC: 0.695675 cumulative IPC: 0.703726 (Simulation time: 0 hr 6 min 36 sec) 
Heartbeat CPU 0 instructions: 90000004 cycles: 69583377 heartbeat IPC: 0.691903 cumulative IPC: 0.700732 (Simulation time: 0 hr 7 min 42 sec) 
Heartbeat CPU 0 instructions: 100000000 cycles: 84024332 heartbeat IPC: 0.692475 cumulative IPC: 0.699065 (Simulation time: 0 hr 8 min 47 sec) 
*** Reached end of trace: /gpfs/projects/bsc18/MN4/bsc18/romol/ChampSim/traces/qualcomm_srv/srv133_ap.champsimtrace.xz
Heartbeat CPU 0 instructions: 110000004 cycles: 99332750 heartbeat IPC: 0.653236 cumulative IPC: 0.690986 (Simulation time: 0 hr 9 min 54 sec) 
Heartbeat CPU 0 instructions: 120000003 cycles: 113563213 heartbeat IPC: 0.702718 cumulative IPC: 0.692638 (Simulation time: 0 hr 10 min 59 sec) 
Heartbeat CPU 0 instructions: 130000000 cycles: 127200544 heartbeat IPC: 0.733282 cumulative IPC: 0.69747 (Simulation time: 0 hr 12 min 3 sec) 
Heartbeat CPU 0 instructions: 140000003 cycles: 140897677 heartbeat IPC: 0.730081 cumulative IPC: 0.700949 (Simulation time: 0 hr 13 min 7 sec) 
Heartbeat CPU 0 instructions: 150000001 cycles: 155024469 heartbeat IPC: 0.707875 cumulative IPC: 0.701635 (Simulation time: 0 hr 14 min 12 sec) 
Simulation finished CPU 0 instructions: 100000001 cycles: 142524279 cumulative IPC: 0.701635 (Simulation time: 0 hr 14 min 12 sec) 

Simulation complete CPU 0 instructions: 100000001 cycles: 142524279 (Simulation time: 0 hr 14 min 12 sec) 


ChampSim completed all CPUs

Saving instructions large page distribution to /home/bsc/bsc018186/scratch/itp_asplos25_AE/dump/srv133_ap.pdst...
Saving data large page distribution to /home/bsc/bsc018186/scratch/itp_asplos25_AE/dump/srv133_ap.pdst...
=== Simulation ===
CPU 0 runs /gpfs/projects/bsc18/MN4/bsc18/romol/ChampSim/traces/qualcomm_srv/srv133_ap.champsimtrace.xz

Region of Interest Statistics

CPU 0 cumulative IPC: 0.701635 instructions: 100000001 cycles: 142524279
CPU 0 Branch Prediction Accuracy: 82.6476% MPKI: 31.112 Average ROB Occupancy at Mispredict: 12.9772
Branch type MPKI
BRANCH_DIRECT_JUMP: 1.04507
BRANCH_INDIRECT: 16.1102
BRANCH_CONDITIONAL: 10.1887
BRANCH_DIRECT_CALL: 1.89521
BRANCH_INDIRECT_CALL: 0.51874
BRANCH_RETURN: 1.35407

Instructions large pages: 0
Instructions small pages: 1119
Large page distribution for instructions: 0%

Data large pages: 0
Data small pages: 9274
Large page distribution for data: 0%

cpu0_L1I TOTAL       ACCESS:   35664218  HIT:   27317055  MISS:    8347163  iACCESS:   35664218  iHIT:   27317055  iMISS:    8347163  dACCESS:          0  dHIT:          0  dMISS:          0  itACCESS:          0  itHIT:          0  itMISS:          0  dtACCESS:          0  dtHIT:          0  dtMISS:          0
cpu0_L1I LOAD         ACCESS:   10453197  HIT:    8122445  MISS:    2330752  iACCESS:   10453197  iHIT:    8122445  iMISS:    2330752  dACCESS:          0  dHIT:          0  dMISS:          0  itACCESS:          0  itHIT:          0  itMISS:          0  dtACCESS:          0  dtHIT:          0  dtMISS:          0
cpu0_L1I RFO          ACCESS:          0  HIT:          0  MISS:          0  iACCESS:          0  iHIT:          0  iMISS:          0  dACCESS:          0  dHIT:          0  dMISS:          0  itACCESS:          0  itHIT:          0  itMISS:          0  dtACCESS:          0  dtHIT:          0  dtMISS:          0
cpu0_L1I PREFETCH     ACCESS:   25211021  HIT:   19194610  MISS:    6016411  iACCESS:   25211021  iHIT:   19194610  iMISS:    6016411  dACCESS:          0  dHIT:          0  dMISS:          0  itACCESS:          0  itHIT:          0  itMISS:          0  dtACCESS:          0  dtHIT:          0  dtMISS:          0
cpu0_L1I WRITE        ACCESS:          0  HIT:          0  MISS:          0  iACCESS:          0  iHIT:          0  iMISS:          0  dACCESS:          0  dHIT:          0  dMISS:          0  itACCESS:          0  itHIT:          0  itMISS:          0  dtACCESS:          0  dtHIT:          0  dtMISS:          0
cpu0_L1I TRANSLATION  ACCESS:          0  HIT:          0  MISS:          0  iACCESS:          0  iHIT:          0  iMISS:          0  dACCESS:          0  dHIT:          0  dMISS:          0  itACCESS:          0  itHIT:          0  itMISS:          0  dtACCESS:          0  dtHIT:          0  dtMISS:          0
cpu0_L1I PREFETCH  REQUESTED:   27541871  ISSUED:   27538067  CROSSED:          0  USEFUL:    1940065  USELESS:     626486
cpu0_L1I AVERAGE iMISS LATENCY: 13.321 cycles
cpu0_L1I AVERAGE dMISS LATENCY: 0 cycles
cpu0_L1I AVERAGE itMISS LATENCY: 0 cycles
cpu0_L1I AVERAGE dtMISS LATENCY: 0 cycles
cpu0_L1I PAGE CROSSINGS (TLB HIT):         0 
cpu0_L1I PAGE CROSSINGS (TLB MISS):         0 
cpu0_L1I AVERAGE MISS LATENCY: 13.321 cycles
cpu0_ITLB TOTAL       ACCESS:   29512204  HIT:   27592200  MISS:    1920004  iACCESS:   29512204  iHIT:   27592200  iMISS:    1920004  dACCESS:          0  dHIT:          0  dMISS:          0  itACCESS:          0  itHIT:          0  itMISS:          0  dtACCESS:          0  dtHIT:          0  dtMISS:          0
cpu0_ITLB LOAD         ACCESS:   29512204  HIT:   27592200  MISS:    1920004  iACCESS:   29512204  iHIT:   27592200  iMISS:    1920004  dACCESS:          0  dHIT:          0  dMISS:          0  itACCESS:          0  itHIT:          0  itMISS:          0  dtACCESS:          0  dtHIT:          0  dtMISS:          0
cpu0_ITLB RFO          ACCESS:          0  HIT:          0  MISS:          0  iACCESS:          0  iHIT:          0  iMISS:          0  dACCESS:          0  dHIT:          0  dMISS:          0  itACCESS:          0  itHIT:          0  itMISS:          0  dtACCESS:          0  dtHIT:          0  dtMISS:          0
cpu0_ITLB PREFETCH     ACCESS:          0  HIT:          0  MISS:          0  iACCESS:          0  iHIT:          0  iMISS:          0  dACCESS:          0  dHIT:          0  dMISS:          0  itACCESS:          0  itHIT:          0  itMISS:          0  dtACCESS:          0  dtHIT:          0  dtMISS:          0
cpu0_ITLB WRITE        ACCESS:          0  HIT:          0  MISS:          0  iACCESS:          0  iHIT:          0  iMISS:          0  dACCESS:          0  dHIT:          0  dMISS:          0  itACCESS:          0  itHIT:          0  itMISS:          0  dtACCESS:          0  dtHIT:          0  dtMISS:          0
cpu0_ITLB TRANSLATION  ACCESS:          0  HIT:          0  MISS:          0  iACCESS:          0  iHIT:          0  iMISS:          0  dACCESS:          0  dHIT:          0  dMISS:          0  itACCESS:          0  itHIT:          0  itMISS:          0  dtACCESS:          0  dtHIT:          0  dtMISS:          0
cpu0_ITLB PREFETCH  REQUESTED:          0  ISSUED:          0  CROSSED:          0  USEFUL:     316678  USELESS:      63521
cpu0_ITLB AVERAGE iMISS LATENCY: 2.02008 cycles
cpu0_ITLB AVERAGE dMISS LATENCY: 0 cycles
cpu0_ITLB AVERAGE itMISS LATENCY: 0 cycles
cpu0_ITLB AVERAGE dtMISS LATENCY: 0 cycles
cpu0_ITLB PAGE CROSSINGS (TLB HIT):         0 
cpu0_ITLB PAGE CROSSINGS (TLB MISS):         0 
cpu0_ITLB AVERAGE MISS LATENCY: 2.02008 cycles
cpu0_DTLB TOTAL       ACCESS:   27896531  HIT:   26071806  MISS:    1824725  iACCESS:          0  iHIT:          0  iMISS:          0  dACCESS:   27896531  dHIT:   26071806  dMISS:    1824725  itACCESS:          0  itHIT:          0  itMISS:          0  dtACCESS:          0  dtHIT:          0  dtMISS:          0
cpu0_DTLB LOAD         ACCESS:   27896531  HIT:   26071806  MISS:    1824725  iACCESS:          0  iHIT:          0  iMISS:          0  dACCESS:   27896531  dHIT:   26071806  dMISS:    1824725  itACCESS:          0  itHIT:          0  itMISS:          0  dtACCESS:          0  dtHIT:          0  dtMISS:          0
cpu0_DTLB RFO          ACCESS:          0  HIT:          0  MISS:          0  iACCESS:          0  iHIT:          0  iMISS:          0  dACCESS:          0  dHIT:          0  dMISS:          0  itACCESS:          0  itHIT:          0  itMISS:          0  dtACCESS:          0  dtHIT:          0  dtMISS:          0
cpu0_DTLB PREFETCH     ACCESS:          0  HIT:          0  MISS:          0  iACCESS:          0  iHIT:          0  iMISS:          0  dACCESS:          0  dHIT:          0  dMISS:          0  itACCESS:          0  itHIT:          0  itMISS:          0  dtACCESS:          0  dtHIT:          0  dtMISS:          0
cpu0_DTLB WRITE        ACCESS:          0  HIT:          0  MISS:          0  iACCESS:          0  iHIT:          0  iMISS:          0  dACCESS:          0  dHIT:          0  dMISS:          0  itACCESS:          0  itHIT:          0  itMISS:          0  dtACCESS:          0  dtHIT:          0  dtMISS:          0
cpu0_DTLB TRANSLATION  ACCESS:          0  HIT:          0  MISS:          0  iACCESS:          0  iHIT:          0  iMISS:          0  dACCESS:          0  dHIT:          0  dMISS:          0  itACCESS:          0  itHIT:          0  itMISS:          0  dtACCESS:          0  dtHIT:          0  dtMISS:          0
cpu0_DTLB PREFETCH  REQUESTED:          0  ISSUED:          0  CROSSED:          0  USEFUL:          0  USELESS:          0
cpu0_DTLB AVERAGE iMISS LATENCY: 0 cycles
cpu0_DTLB AVERAGE dMISS LATENCY: 11.9693 cycles
cpu0_DTLB AVERAGE itMISS LATENCY: 0 cycles
cpu0_DTLB AVERAGE dtMISS LATENCY: 0 cycles
cpu0_DTLB PAGE CROSSINGS (TLB HIT):         0 
cpu0_DTLB PAGE CROSSINGS (TLB MISS):         0 
cpu0_DTLB AVERAGE MISS LATENCY: 11.9693 cycles
cpu0_STLB TOTAL       ACCESS:    1506465  HIT:    1361734  MISS:     144731  iACCESS:     380225  iHIT:     370514  iMISS:       9711  dACCESS:    1126240  dHIT:     991220  dMISS:     135020  itACCESS:          0  itHIT:          0  itMISS:          0  dtACCESS:          0  dtHIT:          0  dtMISS:          0
cpu0_STLB LOAD         ACCESS:    1506465  HIT:    1361734  MISS:     144731  iACCESS:     380225  iHIT:     370514  iMISS:       9711  dACCESS:    1126240  dHIT:     991220  dMISS:     135020  itACCESS:          0  itHIT:          0  itMISS:          0  dtACCESS:          0  dtHIT:          0  dtMISS:          0
cpu0_STLB RFO          ACCESS:          0  HIT:          0  MISS:          0  iACCESS:          0  iHIT:          0  iMISS:          0  dACCESS:          0  dHIT:          0  dMISS:          0  itACCESS:          0  itHIT:          0  itMISS:          0  dtACCESS:          0  dtHIT:          0  dtMISS:          0
cpu0_STLB PREFETCH     ACCESS:          0  HIT:          0  MISS:          0  iACCESS:          0  iHIT:          0  iMISS:          0  dACCESS:          0  dHIT:          0  dMISS:          0  itACCESS:          0  itHIT:          0  itMISS:          0  dtACCESS:          0  dtHIT:          0  dtMISS:          0
cpu0_STLB WRITE        ACCESS:          0  HIT:          0  MISS:          0  iACCESS:          0  iHIT:          0  iMISS:          0  dACCESS:          0  dHIT:          0  dMISS:          0  itACCESS:          0  itHIT:          0  itMISS:          0  dtACCESS:          0  dtHIT:          0  dtMISS:          0
cpu0_STLB TRANSLATION  ACCESS:          0  HIT:          0  MISS:          0  iACCESS:          0  iHIT:          0  iMISS:          0  dACCESS:          0  dHIT:          0  dMISS:          0  itACCESS:          0  itHIT:          0  itMISS:          0  dtACCESS:          0  dtHIT:          0  dtMISS:          0
cpu0_STLB PREFETCH  REQUESTED:          0  ISSUED:          0  CROSSED:          0  USEFUL:          0  USELESS:          0
cpu0_STLB AVERAGE iMISS LATENCY: 6.43174 cycles
cpu0_STLB AVERAGE dMISS LATENCY: 88.6055 cycles
cpu0_STLB AVERAGE itMISS LATENCY: 0 cycles
cpu0_STLB AVERAGE dtMISS LATENCY: 0 cycles
cpu0_STLB PAGE CROSSINGS (TLB HIT):         0 
cpu0_STLB PAGE CROSSINGS (TLB MISS):         0 
cpu0_STLB AVERAGE MISS LATENCY: 95.0372 cycles
cpu0_L1D TOTAL       ACCESS:   41599196  HIT:   38169227  MISS:    3429969  iACCESS:          0  iHIT:          0  iMISS:          0  dACCESS:   41389353  dHIT:   38155870  dMISS:    3233483  itACCESS:      11269  itHIT:       1068  itMISS:      10201  dtACCESS:     198574  dtHIT:      12289  dtMISS:     186285
cpu0_L1D LOAD         ACCESS:   19091462  HIT:   17612013  MISS:    1479449  iACCESS:          0  iHIT:          0  iMISS:          0  dACCESS:   19091462  dHIT:   17612013  dMISS:    1479449  itACCESS:          0  itHIT:          0  itMISS:          0  dtACCESS:          0  dtHIT:          0  dtMISS:          0
cpu0_L1D RFO          ACCESS:          0  HIT:          0  MISS:          0  iACCESS:          0  iHIT:          0  iMISS:          0  dACCESS:          0  dHIT:          0  dMISS:          0  itACCESS:          0  itHIT:          0  itMISS:          0  dtACCESS:          0  dtHIT:          0  dtMISS:          0
cpu0_L1D PREFETCH     ACCESS:   12121069  HIT:   10785858  MISS:    1335211  iACCESS:          0  iHIT:          0  iMISS:          0  dACCESS:   12121069  dHIT:   10785858  dMISS:    1335211  itACCESS:          0  itHIT:          0  itMISS:          0  dtACCESS:          0  dtHIT:          0  dtMISS:          0
cpu0_L1D WRITE        ACCESS:   10176822  HIT:    9757999  MISS:     418823  iACCESS:          0  iHIT:          0  iMISS:          0  dACCESS:   10176822  dHIT:    9757999  dMISS:     418823  itACCESS:          0  itHIT:          0  itMISS:          0  dtACCESS:          0  dtHIT:          0  dtMISS:          0
cpu0_L1D TRANSLATION  ACCESS:     209843  HIT:      13357  MISS:     196486  iACCESS:          0  iHIT:          0  iMISS:          0  dACCESS:          0  dHIT:          0  dMISS:          0  itACCESS:      11269  itHIT:       1068  itMISS:      10201  dtACCESS:     198574  dtHIT:      12289  dtMISS:     186285
cpu0_L1D PREFETCH  REQUESTED:   19091462  ISSUED:   16903389  CROSSED:          0  USEFUL:     306185  USELESS:     701499
cpu0_L1D AVERAGE iMISS LATENCY: 0 cycles
cpu0_L1D AVERAGE dMISS LATENCY: 34.0593 cycles
cpu0_L1D AVERAGE itMISS LATENCY: 0.242584 cycles
cpu0_L1D AVERAGE dtMISS LATENCY: 2.9939 cycles
cpu0_L1D PAGE CROSSINGS (TLB HIT):         0 
cpu0_L1D PAGE CROSSINGS (TLB MISS):         0 
cpu0_L1D AVERAGE MISS LATENCY: 37.2958 cycles
cpu0_L2C TOTAL       ACCESS:    6994450  HIT:    1710930  MISS:    5283520  iACCESS:    3301606  iHIT:     890327  iMISS:    2411279  dACCESS:    3502636  dHIT:     720243  dMISS:    2782393  itACCESS:      10201  itHIT:       4766  itMISS:       5435  dtACCESS:     180007  dtHIT:      95594  dtMISS:      84413
cpu0_L2C LOAD         ACCESS:    1703120  HIT:     303737  MISS:    1399383  iACCESS:     773821  iHIT:     152455  iMISS:     621366  dACCESS:     929299  dHIT:     151282  dMISS:     778017  itACCESS:          0  itHIT:          0  itMISS:          0  dtACCESS:          0  dtHIT:          0  dtMISS:          0
cpu0_L2C RFO          ACCESS:     158341  HIT:      52781  MISS:     105560  iACCESS:          0  iHIT:          0  iMISS:          0  dACCESS:     158341  dHIT:      52781  dMISS:     105560  itACCESS:          0  itHIT:          0  itMISS:          0  dtACCESS:          0  dtHIT:          0  dtMISS:          0
cpu0_L2C PREFETCH     ACCESS:    4662084  HIT:    1120237  MISS:    3541847  iACCESS:    2527785  iHIT:     737872  iMISS:    1789913  dACCESS:    2134299  dHIT:     382365  dMISS:    1751934  itACCESS:          0  itHIT:          0  itMISS:          0  dtACCESS:          0  dtHIT:          0  dtMISS:          0
cpu0_L2C WRITE        ACCESS:     280697  HIT:     133815  MISS:     146882  iACCESS:          0  iHIT:          0  iMISS:          0  dACCESS:     280697  dHIT:     133815  dMISS:     146882  itACCESS:          0  itHIT:          0  itMISS:          0  dtACCESS:          0  dtHIT:          0  dtMISS:          0
cpu0_L2C TRANSLATION  ACCESS:     190208  HIT:     100360  MISS:      89848  iACCESS:          0  iHIT:          0  iMISS:          0  dACCESS:          0  dHIT:          0  dMISS:          0  itACCESS:      10201  itHIT:       4766  itMISS:       5435  dtACCESS:     180007  dtHIT:      95594  dtMISS:      84413
cpu0_L2C PREFETCH  REQUESTED:    1389741  ISSUED:    1389741  CROSSED:          0  USEFUL:     413258  USELESS:     373835
cpu0_L2C AVERAGE iMISS LATENCY: 15.2265 cycles
cpu0_L2C AVERAGE dMISS LATENCY: 25.7011 cycles
cpu0_L2C AVERAGE itMISS LATENCY: 0.139032 cycles
cpu0_L2C AVERAGE dtMISS LATENCY: 1.61916 cycles
cpu0_L2C PAGE CROSSINGS (TLB HIT):         0 
cpu0_L2C PAGE CROSSINGS (TLB MISS):         0 
cpu0_L2C AVERAGE MISS LATENCY: 42.6857 cycles
LLC TOTAL       ACCESS:    5165689  HIT:    4349313  MISS:     816376  iACCESS:    2358778  iHIT:    2120851  iMISS:     237927  dACCESS:    2717063  dHIT:    2181858  dMISS:     535205  itACCESS:       5435  itHIT:       1851  itMISS:       3584  dtACCESS:      84413  dtHIT:      44753  dtMISS:      39660
LLC LOAD         ACCESS:    1397543  HIT:    1219889  MISS:     177654  iACCESS:     619924  iHIT:     572026  iMISS:      47898  dACCESS:     777619  dHIT:     647863  dMISS:     129756  itACCESS:          0  itHIT:          0  itMISS:          0  dtACCESS:          0  dtHIT:          0  dtMISS:          0
LLC RFO          ACCESS:     105560  HIT:      71119  MISS:      34441  iACCESS:          0  iHIT:          0  iMISS:          0  dACCESS:     105560  dHIT:      71119  dMISS:      34441  itACCESS:          0  itHIT:          0  itMISS:          0  dtACCESS:          0  dtHIT:          0  dtMISS:          0
LLC PREFETCH     ACCESS:    3438372  HIT:    2886655  MISS:     551717  iACCESS:    1738854  iHIT:    1548825  iMISS:     190029  dACCESS:    1699518  dHIT:    1337830  dMISS:     361688  itACCESS:          0  itHIT:          0  itMISS:          0  dtACCESS:          0  dtHIT:          0  dtMISS:          0
LLC WRITE        ACCESS:     134366  HIT:     125046  MISS:       9320  iACCESS:          0  iHIT:          0  iMISS:          0  dACCESS:     134366  dHIT:     125046  dMISS:       9320  itACCESS:          0  itHIT:          0  itMISS:          0  dtACCESS:          0  dtHIT:          0  dtMISS:          0
LLC TRANSLATION  ACCESS:      89848  HIT:      46604  MISS:      43244  iACCESS:          0  iHIT:          0  iMISS:          0  dACCESS:          0  dHIT:          0  dMISS:          0  itACCESS:       5435  itHIT:       1851  itMISS:       3584  dtACCESS:      84413  dtHIT:      44753  dtMISS:      39660
LLC PREFETCH  REQUESTED:          0  ISSUED:          0  CROSSED:          0  USEFUL:          0  USELESS:          0
LLC AVERAGE iMISS LATENCY: 42.8066 cycles
LLC AVERAGE dMISS LATENCY: 105.248 cycles
LLC AVERAGE itMISS LATENCY: 0.769336 cycles
LLC AVERAGE dtMISS LATENCY: 8.46648 cycles
LLC PAGE CROSSINGS (TLB HIT):         0 
LLC PAGE CROSSINGS (TLB MISS):         0 
LLC AVERAGE MISS LATENCY: 157.291 cycles

PageTableWalker TOTAL       ACCESS:      70311  
PageTableWalker AVERAGE LATENCY: 5.05219 cycles
PageTableWalker TOTAL LATENCY: 355224 cycles

DRAM Statistics
Channel 0
 RQ ROW_BUFFER_HIT:     217790
  ROW_BUFFER_MISS:     589219
 AVG DBUS CONGESTED CYCLE:    3.62102
 WQ ROW_BUFFER_HIT:      15845
  ROW_BUFFER_MISS:      21836  FULL:          0

