last_page:0x200000000000000
VMEM_RES_CAP:0x100000
PAGE_SIZE:4096
LOG2_PAGE_SIZE:12
LOG2_PAGE_TABLE_SIZE:9
page_table_levels:5
WARNING: physical memory size is smaller than virtual memory size
FDiP enabled with aggresivity 16

*** ChampSim Multicore Out-of-Order Simulator ***

Warmup Instructions: 50000000
Simulation Instructions: 100000000
Number of CPUs: 1
Small page size: 4096
Large page size: 2097152

CPU 0 Bimodal branch predictor
Basic BTB sets: 1024 ways: 8 indirect buffer size: 4096 RAS size: 64
Instruction page size distrubution: 0
Loading instruction page size distribution from /home/bsc/bsc018186/scratch/itp_asplos25_AE/dump/srv133_ap.pdst
Data page size distrubution: 0
Loading data page size distribution from /home/bsc/bsc018186/scratch/itp_asplos25_AE/dump/srv133_ap.pdst
cpu0_L2C IP-based stride prefetcher
cpu0_L2C is using PTP replacement policy:
	TLB_STRESS_THRESHOLD:0
	PTE_EVICTION_RATIO:0
cpu0_L1D next line prefetcher
cpu0_L1I next line prefetcher
Off-chip DRAM Size: 4 GiB Channels: 1 Width: 64-bit Data Rate: 3200 MT/s
Heartbeat CPU 0 instructions: 10000000 cycles: 2500201 heartbeat IPC: 3.99968 cumulative IPC: 3.99968 (Simulation time: 0 hr 0 min 38 sec) 
Heartbeat CPU 0 instructions: 20000001 cycles: 5000219 heartbeat IPC: 3.99998 cumulative IPC: 3.99983 (Simulation time: 0 hr 1 min 18 sec) 
Heartbeat CPU 0 instructions: 30000003 cycles: 7500227 heartbeat IPC: 3.99999 cumulative IPC: 3.99988 (Simulation time: 0 hr 1 min 58 sec) 
Heartbeat CPU 0 instructions: 40000002 cycles: 10000332 heartbeat IPC: 3.99984 cumulative IPC: 3.99987 (Simulation time: 0 hr 2 min 39 sec) 
Heartbeat CPU 0 instructions: 50000001 cycles: 12500351 heartbeat IPC: 3.99997 cumulative IPC: 3.99989 (Simulation time: 0 hr 3 min 21 sec) 
Warmup finished CPU 0 instructions: 50000001 cycles: 12500352 cumulative IPC: 3.99989 (Simulation time: 0 hr 3 min 21 sec) 

Warmup complete CPU 0 instructions: 50000001 cycles: 12500352 (Simulation time: 0 hr 3 min 21 sec) 

Heartbeat CPU 0 instructions: 60000001 cycles: 26716690 heartbeat IPC: 0.703416 cumulative IPC: 0.703417 (Simulation time: 0 hr 4 min 24 sec) 
Heartbeat CPU 0 instructions: 70000003 cycles: 41168892 heartbeat IPC: 0.691937 cumulative IPC: 0.697629 (Simulation time: 0 hr 5 min 29 sec) 
Heartbeat CPU 0 instructions: 80000001 cycles: 55812110 heartbeat IPC: 0.68291 cumulative IPC: 0.692653 (Simulation time: 0 hr 6 min 34 sec) 
Heartbeat CPU 0 instructions: 90000004 cycles: 70323414 heartbeat IPC: 0.689119 cumulative IPC: 0.691766 (Simulation time: 0 hr 7 min 39 sec) 
Heartbeat CPU 0 instructions: 100000000 cycles: 84895301 heartbeat IPC: 0.686253 cumulative IPC: 0.690656 (Simulation time: 0 hr 8 min 43 sec) 
*** Reached end of trace: /gpfs/projects/bsc18/MN4/bsc18/romol/ChampSim/traces/qualcomm_srv/srv133_ap.champsimtrace.xz
Heartbeat CPU 0 instructions: 110000004 cycles: 99979745 heartbeat IPC: 0.662935 cumulative IPC: 0.685876 (Simulation time: 0 hr 9 min 48 sec) 
Heartbeat CPU 0 instructions: 120000003 cycles: 114193486 heartbeat IPC: 0.703545 cumulative IPC: 0.688346 (Simulation time: 0 hr 10 min 52 sec) 
Heartbeat CPU 0 instructions: 130000000 cycles: 127910909 heartbeat IPC: 0.729 cumulative IPC: 0.693178 (Simulation time: 0 hr 11 min 55 sec) 
Heartbeat CPU 0 instructions: 140000003 cycles: 141748448 heartbeat IPC: 0.722673 cumulative IPC: 0.696336 (Simulation time: 0 hr 12 min 59 sec) 
Heartbeat CPU 0 instructions: 150000001 cycles: 155997832 heartbeat IPC: 0.701785 cumulative IPC: 0.696877 (Simulation time: 0 hr 14 min 3 sec) 
Simulation finished CPU 0 instructions: 100000000 cycles: 143497481 cumulative IPC: 0.696877 (Simulation time: 0 hr 14 min 3 sec) 

Simulation complete CPU 0 instructions: 100000000 cycles: 143497481 (Simulation time: 0 hr 14 min 3 sec) 


ChampSim completed all CPUs

Saving instructions large page distribution to /home/bsc/bsc018186/scratch/itp_asplos25_AE/dump/srv133_ap.pdst...
Saving data large page distribution to /home/bsc/bsc018186/scratch/itp_asplos25_AE/dump/srv133_ap.pdst...
=== Simulation ===
CPU 0 runs /gpfs/projects/bsc18/MN4/bsc18/romol/ChampSim/traces/qualcomm_srv/srv133_ap.champsimtrace.xz

Region of Interest Statistics

CPU 0 cumulative IPC: 0.696877 instructions: 100000000 cycles: 143497481
CPU 0 Branch Prediction Accuracy: 82.6476% MPKI: 31.112 Average ROB Occupancy at Mispredict: 12.9375
Branch type MPKI
BRANCH_DIRECT_JUMP: 1.04508
BRANCH_INDIRECT: 16.1102
BRANCH_CONDITIONAL: 10.1887
BRANCH_DIRECT_CALL: 1.89522
BRANCH_INDIRECT_CALL: 0.518741
BRANCH_RETURN: 1.35408

Instructions large pages: 0
Instructions small pages: 1119
Large page distribution for instructions: 0%

Data large pages: 0
Data small pages: 9274
Large page distribution for data: 0%

cpu0_L1I TOTAL       ACCESS:   35775030  HIT:   27292328  MISS:    8482702  iACCESS:   35775030  iHIT:   27292328  iMISS:    8482702  dACCESS:          0  dHIT:          0  dMISS:          0  itACCESS:          0  itHIT:          0  itMISS:          0  dtACCESS:          0  dtHIT:          0  dtMISS:          0
cpu0_L1I LOAD         ACCESS:   10481938  HIT:    8113627  MISS:    2368311  iACCESS:   10481938  iHIT:    8113627  iMISS:    2368311  dACCESS:          0  dHIT:          0  dMISS:          0  itACCESS:          0  itHIT:          0  itMISS:          0  dtACCESS:          0  dtHIT:          0  dtMISS:          0
cpu0_L1I RFO          ACCESS:          0  HIT:          0  MISS:          0  iACCESS:          0  iHIT:          0  iMISS:          0  dACCESS:          0  dHIT:          0  dMISS:          0  itACCESS:          0  itHIT:          0  itMISS:          0  dtACCESS:          0  dtHIT:          0  dtMISS:          0
cpu0_L1I PREFETCH     ACCESS:   25293092  HIT:   19178701  MISS:    6114391  iACCESS:   25293092  iHIT:   19178701  iMISS:    6114391  dACCESS:          0  dHIT:          0  dMISS:          0  itACCESS:          0  itHIT:          0  itMISS:          0  dtACCESS:          0  dtHIT:          0  dtMISS:          0
cpu0_L1I WRITE        ACCESS:          0  HIT:          0  MISS:          0  iACCESS:          0  iHIT:          0  iMISS:          0  dACCESS:          0  dHIT:          0  dMISS:          0  itACCESS:          0  itHIT:          0  itMISS:          0  dtACCESS:          0  dtHIT:          0  dtMISS:          0
cpu0_L1I TRANSLATION  ACCESS:          0  HIT:          0  MISS:          0  iACCESS:          0  iHIT:          0  iMISS:          0  dACCESS:          0  dHIT:          0  dMISS:          0  itACCESS:          0  itHIT:          0  itMISS:          0  dtACCESS:          0  dtHIT:          0  dtMISS:          0
cpu0_L1I PREFETCH  REQUESTED:   27568632  ISSUED:   27564493  CROSSED:          0  USEFUL:    1936067  USELESS:     626466
cpu0_L1I AVERAGE iMISS LATENCY: 13.9002 cycles
cpu0_L1I AVERAGE dMISS LATENCY: 0 cycles
cpu0_L1I AVERAGE itMISS LATENCY: 0 cycles
cpu0_L1I AVERAGE dtMISS LATENCY: 0 cycles
cpu0_L1I PAGE CROSSINGS (TLB HIT):         0 
cpu0_L1I PAGE CROSSINGS (TLB MISS):         0 
cpu0_L1I AVERAGE MISS LATENCY: 13.9002 cycles
cpu0_ITLB TOTAL       ACCESS:   29531962  HIT:   27609081  MISS:    1922881  iACCESS:   29531962  iHIT:   27609081  iMISS:    1922881  dACCESS:          0  dHIT:          0  dMISS:          0  itACCESS:          0  itHIT:          0  itMISS:          0  dtACCESS:          0  dtHIT:          0  dtMISS:          0
cpu0_ITLB LOAD         ACCESS:   29531962  HIT:   27609081  MISS:    1922881  iACCESS:   29531962  iHIT:   27609081  iMISS:    1922881  dACCESS:          0  dHIT:          0  dMISS:          0  itACCESS:          0  itHIT:          0  itMISS:          0  dtACCESS:          0  dtHIT:          0  dtMISS:          0
cpu0_ITLB RFO          ACCESS:          0  HIT:          0  MISS:          0  iACCESS:          0  iHIT:          0  iMISS:          0  dACCESS:          0  dHIT:          0  dMISS:          0  itACCESS:          0  itHIT:          0  itMISS:          0  dtACCESS:          0  dtHIT:          0  dtMISS:          0
cpu0_ITLB PREFETCH     ACCESS:          0  HIT:          0  MISS:          0  iACCESS:          0  iHIT:          0  iMISS:          0  dACCESS:          0  dHIT:          0  dMISS:          0  itACCESS:          0  itHIT:          0  itMISS:          0  dtACCESS:          0  dtHIT:          0  dtMISS:          0
cpu0_ITLB WRITE        ACCESS:          0  HIT:          0  MISS:          0  iACCESS:          0  iHIT:          0  iMISS:          0  dACCESS:          0  dHIT:          0  dMISS:          0  itACCESS:          0  itHIT:          0  itMISS:          0  dtACCESS:          0  dtHIT:          0  dtMISS:          0
cpu0_ITLB TRANSLATION  ACCESS:          0  HIT:          0  MISS:          0  iACCESS:          0  iHIT:          0  iMISS:          0  dACCESS:          0  dHIT:          0  dMISS:          0  itACCESS:          0  itHIT:          0  itMISS:          0  dtACCESS:          0  dtHIT:          0  dtMISS:          0
cpu0_ITLB PREFETCH  REQUESTED:          0  ISSUED:          0  CROSSED:          0  USEFUL:     317140  USELESS:      63075
cpu0_ITLB AVERAGE iMISS LATENCY: 2.91226 cycles
cpu0_ITLB AVERAGE dMISS LATENCY: 0 cycles
cpu0_ITLB AVERAGE itMISS LATENCY: 0 cycles
cpu0_ITLB AVERAGE dtMISS LATENCY: 0 cycles
cpu0_ITLB PAGE CROSSINGS (TLB HIT):         0 
cpu0_ITLB PAGE CROSSINGS (TLB MISS):         0 
cpu0_ITLB AVERAGE MISS LATENCY: 2.91226 cycles
cpu0_DTLB TOTAL       ACCESS:   27896705  HIT:   26083138  MISS:    1813567  iACCESS:          0  iHIT:          0  iMISS:          0  dACCESS:   27896705  dHIT:   26083138  dMISS:    1813567  itACCESS:          0  itHIT:          0  itMISS:          0  dtACCESS:          0  dtHIT:          0  dtMISS:          0
cpu0_DTLB LOAD         ACCESS:   27896705  HIT:   26083138  MISS:    1813567  iACCESS:          0  iHIT:          0  iMISS:          0  dACCESS:   27896705  dHIT:   26083138  dMISS:    1813567  itACCESS:          0  itHIT:          0  itMISS:          0  dtACCESS:          0  dtHIT:          0  dtMISS:          0
cpu0_DTLB RFO          ACCESS:          0  HIT:          0  MISS:          0  iACCESS:          0  iHIT:          0  iMISS:          0  dACCESS:          0  dHIT:          0  dMISS:          0  itACCESS:          0  itHIT:          0  itMISS:          0  dtACCESS:          0  dtHIT:          0  dtMISS:          0
cpu0_DTLB PREFETCH     ACCESS:          0  HIT:          0  MISS:          0  iACCESS:          0  iHIT:          0  iMISS:          0  dACCESS:          0  dHIT:          0  dMISS:          0  itACCESS:          0  itHIT:          0  itMISS:          0  dtACCESS:          0  dtHIT:          0  dtMISS:          0
cpu0_DTLB WRITE        ACCESS:          0  HIT:          0  MISS:          0  iACCESS:          0  iHIT:          0  iMISS:          0  dACCESS:          0  dHIT:          0  dMISS:          0  itACCESS:          0  itHIT:          0  itMISS:          0  dtACCESS:          0  dtHIT:          0  dtMISS:          0
cpu0_DTLB TRANSLATION  ACCESS:          0  HIT:          0  MISS:          0  iACCESS:          0  iHIT:          0  iMISS:          0  dACCESS:          0  dHIT:          0  dMISS:          0  itACCESS:          0  itHIT:          0  itMISS:          0  dtACCESS:          0  dtHIT:          0  dtMISS:          0
cpu0_DTLB PREFETCH  REQUESTED:          0  ISSUED:          0  CROSSED:          0  USEFUL:          0  USELESS:          0
cpu0_DTLB AVERAGE iMISS LATENCY: 0 cycles
cpu0_DTLB AVERAGE dMISS LATENCY: 9.49897 cycles
cpu0_DTLB AVERAGE itMISS LATENCY: 0 cycles
cpu0_DTLB AVERAGE dtMISS LATENCY: 0 cycles
cpu0_DTLB PAGE CROSSINGS (TLB HIT):         0 
cpu0_DTLB PAGE CROSSINGS (TLB MISS):         0 
cpu0_DTLB AVERAGE MISS LATENCY: 9.49897 cycles
cpu0_STLB TOTAL       ACCESS:    1506318  HIT:    1337346  MISS:     168972  iACCESS:     380227  iHIT:     321526  iMISS:      58701  dACCESS:    1126091  dHIT:    1015820  dMISS:     110271  itACCESS:          0  itHIT:          0  itMISS:          0  dtACCESS:          0  dtHIT:          0  dtMISS:          0
cpu0_STLB LOAD         ACCESS:    1506318  HIT:    1337346  MISS:     168972  iACCESS:     380227  iHIT:     321526  iMISS:      58701  dACCESS:    1126091  dHIT:    1015820  dMISS:     110271  itACCESS:          0  itHIT:          0  itMISS:          0  dtACCESS:          0  dtHIT:          0  dtMISS:          0
cpu0_STLB RFO          ACCESS:          0  HIT:          0  MISS:          0  iACCESS:          0  iHIT:          0  iMISS:          0  dACCESS:          0  dHIT:          0  dMISS:          0  itACCESS:          0  itHIT:          0  itMISS:          0  dtACCESS:          0  dtHIT:          0  dtMISS:          0
cpu0_STLB PREFETCH     ACCESS:          0  HIT:          0  MISS:          0  iACCESS:          0  iHIT:          0  iMISS:          0  dACCESS:          0  dHIT:          0  dMISS:          0  itACCESS:          0  itHIT:          0  itMISS:          0  dtACCESS:          0  dtHIT:          0  dtMISS:          0
cpu0_STLB WRITE        ACCESS:          0  HIT:          0  MISS:          0  iACCESS:          0  iHIT:          0  iMISS:          0  dACCESS:          0  dHIT:          0  dMISS:          0  itACCESS:          0  itHIT:          0  itMISS:          0  dtACCESS:          0  dtHIT:          0  dtMISS:          0
cpu0_STLB TRANSLATION  ACCESS:          0  HIT:          0  MISS:          0  iACCESS:          0  iHIT:          0  iMISS:          0  dACCESS:          0  dHIT:          0  dMISS:          0  itACCESS:          0  itHIT:          0  itMISS:          0  dtACCESS:          0  dtHIT:          0  dtMISS:          0
cpu0_STLB PREFETCH  REQUESTED:          0  ISSUED:          0  CROSSED:          0  USEFUL:          0  USELESS:          0
cpu0_STLB AVERAGE iMISS LATENCY: 15.3773 cycles
cpu0_STLB AVERAGE dMISS LATENCY: 48.735 cycles
cpu0_STLB AVERAGE itMISS LATENCY: 0 cycles
cpu0_STLB AVERAGE dtMISS LATENCY: 0 cycles
cpu0_STLB PAGE CROSSINGS (TLB HIT):         0 
cpu0_STLB PAGE CROSSINGS (TLB MISS):         0 
cpu0_STLB AVERAGE MISS LATENCY: 64.1123 cycles
cpu0_L1D TOTAL       ACCESS:   41665307  HIT:   38162907  MISS:    3502400  iACCESS:          0  iHIT:          0  iMISS:          0  dACCESS:   41437313  dHIT:   38143229  dMISS:    3294084  itACCESS:      63600  itHIT:       9018  itMISS:      54582  dtACCESS:     164394  dtHIT:      10660  dtMISS:     153734
cpu0_L1D LOAD         ACCESS:   19099678  HIT:   17605533  MISS:    1494145  iACCESS:          0  iHIT:          0  iMISS:          0  dACCESS:   19099678  dHIT:   17605533  dMISS:    1494145  itACCESS:          0  itHIT:          0  itMISS:          0  dtACCESS:          0  dtHIT:          0  dtMISS:          0
cpu0_L1D RFO          ACCESS:          0  HIT:          0  MISS:          0  iACCESS:          0  iHIT:          0  iMISS:          0  dACCESS:          0  dHIT:          0  dMISS:          0  itACCESS:          0  itHIT:          0  itMISS:          0  dtACCESS:          0  dtHIT:          0  dtMISS:          0
cpu0_L1D PREFETCH     ACCESS:   12141082  HIT:   10783009  MISS:    1358073  iACCESS:          0  iHIT:          0  iMISS:          0  dACCESS:   12141082  dHIT:   10783009  dMISS:    1358073  itACCESS:          0  itHIT:          0  itMISS:          0  dtACCESS:          0  dtHIT:          0  dtMISS:          0
cpu0_L1D WRITE        ACCESS:   10196553  HIT:    9754687  MISS:     441866  iACCESS:          0  iHIT:          0  iMISS:          0  dACCESS:   10196553  dHIT:    9754687  dMISS:     441866  itACCESS:          0  itHIT:          0  itMISS:          0  dtACCESS:          0  dtHIT:          0  dtMISS:          0
cpu0_L1D TRANSLATION  ACCESS:     227994  HIT:      19678  MISS:     208316  iACCESS:          0  iHIT:          0  iMISS:          0  dACCESS:          0  dHIT:          0  dMISS:          0  itACCESS:      63600  itHIT:       9018  itMISS:      54582  dtACCESS:     164394  dtHIT:      10660  dtMISS:     153734
cpu0_L1D PREFETCH  REQUESTED:   19099678  ISSUED:   16917827  CROSSED:          0  USEFUL:     306597  USELESS:     703437
cpu0_L1D AVERAGE iMISS LATENCY: 0 cycles
cpu0_L1D AVERAGE dMISS LATENCY: 35.7813 cycles
cpu0_L1D AVERAGE itMISS LATENCY: 0.59842 cycles
cpu0_L1D AVERAGE dtMISS LATENCY: 1.71272 cycles
cpu0_L1D PAGE CROSSINGS (TLB HIT):         0 
cpu0_L1D PAGE CROSSINGS (TLB MISS):         0 
cpu0_L1D AVERAGE MISS LATENCY: 38.0925 cycles
cpu0_L2C TOTAL       ACCESS:    7009155  HIT:    1245175  MISS:    5763980  iACCESS:    3302531  iHIT:     706636  iMISS:    2595895  dACCESS:    3506727  dHIT:     378502  dMISS:    3128225  itACCESS:      54582  itHIT:      42990  itMISS:      11592  dtACCESS:     145315  dtHIT:     117047  dtMISS:      28268
cpu0_L2C LOAD         ACCESS:    1708230  HIT:     139893  MISS:    1568337  iACCESS:     777811  iHIT:     103301  iMISS:     674510  dACCESS:     930419  dHIT:      36592  dMISS:     893827  itACCESS:          0  itHIT:          0  itMISS:          0  dtACCESS:          0  dtHIT:          0  dtMISS:          0
cpu0_L2C RFO          ACCESS:     158707  HIT:       8314  MISS:     150393  iACCESS:          0  iHIT:          0  iMISS:          0  dACCESS:     158707  dHIT:       8314  dMISS:     150393  itACCESS:          0  itHIT:          0  itMISS:          0  dtACCESS:          0  dtHIT:          0  dtMISS:          0
cpu0_L2C PREFETCH     ACCESS:    4660483  HIT:     884055  MISS:    3776428  iACCESS:    2524720  iHIT:     603335  iMISS:    1921385  dACCESS:    2135763  dHIT:     280720  dMISS:    1855043  itACCESS:          0  itHIT:          0  itMISS:          0  dtACCESS:          0  dtHIT:          0  dtMISS:          0
cpu0_L2C WRITE        ACCESS:     281838  HIT:      52876  MISS:     228962  iACCESS:          0  iHIT:          0  iMISS:          0  dACCESS:     281838  dHIT:      52876  dMISS:     228962  itACCESS:          0  itHIT:          0  itMISS:          0  dtACCESS:          0  dtHIT:          0  dtMISS:          0
cpu0_L2C TRANSLATION  ACCESS:     199897  HIT:     160037  MISS:      39860  iACCESS:          0  iHIT:          0  iMISS:          0  dACCESS:          0  dHIT:          0  dMISS:          0  itACCESS:      54582  itHIT:      42990  itMISS:      11592  dtACCESS:     145315  dtHIT:     117047  dtMISS:      28268
cpu0_L2C PREFETCH  REQUESTED:    1390259  ISSUED:    1390259  CROSSED:          0  USEFUL:     428732  USELESS:     390740
cpu0_L2C AVERAGE iMISS LATENCY: 15.0419 cycles
cpu0_L2C AVERAGE dMISS LATENCY: 25.4721 cycles
cpu0_L2C AVERAGE itMISS LATENCY: 0.27619 cycles
cpu0_L2C AVERAGE dtMISS LATENCY: 0.807701 cycles
cpu0_L2C PAGE CROSSINGS (TLB HIT):         0 
cpu0_L2C PAGE CROSSINGS (TLB MISS):         0 
cpu0_L2C AVERAGE MISS LATENCY: 41.5978 cycles
LLC TOTAL       ACCESS:    5679943  HIT:    4834397  MISS:     845546  iACCESS:    2539853  iHIT:    2282432  iMISS:     257421  dACCESS:    3100230  dHIT:    2543179  dMISS:     557051  itACCESS:      11592  itHIT:       3674  itMISS:       7918  dtACCESS:      28268  dtHIT:       5112  dtMISS:      23156
LLC LOAD         ACCESS:    1566488  HIT:    1374278  MISS:     192210  iACCESS:     673037  iHIT:     618618  iMISS:      54419  dACCESS:     893451  dHIT:     755660  dMISS:     137791  itACCESS:          0  itHIT:          0  itMISS:          0  dtACCESS:          0  dtHIT:          0  dtMISS:          0
LLC RFO          ACCESS:     150385  HIT:     108893  MISS:      41492  iACCESS:          0  iHIT:          0  iMISS:          0  dACCESS:     150385  dHIT:     108893  dMISS:      41492  itACCESS:          0  itHIT:          0  itMISS:          0  dtACCESS:          0  dtHIT:          0  dtMISS:          0
LLC PREFETCH     ACCESS:    3664307  HIT:    3083539  MISS:     580768  iACCESS:    1866816  iHIT:    1663814  iMISS:     203002  dACCESS:    1797491  dHIT:    1419725  dMISS:     377766  itACCESS:          0  itHIT:          0  itMISS:          0  dtACCESS:          0  dtHIT:          0  dtMISS:          0
LLC WRITE        ACCESS:     258903  HIT:     258901  MISS:          2  iACCESS:          0  iHIT:          0  iMISS:          0  dACCESS:     258903  dHIT:     258901  dMISS:          2  itACCESS:          0  itHIT:          0  itMISS:          0  dtACCESS:          0  dtHIT:          0  dtMISS:          0
LLC TRANSLATION  ACCESS:      39860  HIT:       8786  MISS:      31074  iACCESS:          0  iHIT:          0  iMISS:          0  dACCESS:          0  dHIT:          0  dMISS:          0  itACCESS:      11592  itHIT:       3674  itMISS:       7918  dtACCESS:      28268  dtHIT:       5112  dtMISS:      23156
LLC PREFETCH  REQUESTED:          0  ISSUED:          0  CROSSED:          0  USEFUL:          0  USELESS:          0
LLC AVERAGE iMISS LATENCY: 44.5514 cycles
LLC AVERAGE dMISS LATENCY: 108.752 cycles
LLC AVERAGE itMISS LATENCY: 1.6134 cycles
LLC AVERAGE dtMISS LATENCY: 4.84682 cycles
LLC PAGE CROSSINGS (TLB HIT):         0 
LLC PAGE CROSSINGS (TLB MISS):         0 
LLC AVERAGE MISS LATENCY: 159.764 cycles

PageTableWalker TOTAL       ACCESS:      83210  
PageTableWalker AVERAGE LATENCY: 4.20688 cycles
PageTableWalker TOTAL LATENCY: 350054 cycles

DRAM Statistics
Channel 0
 RQ ROW_BUFFER_HIT:     232526
  ROW_BUFFER_MISS:     612970
 AVG DBUS CONGESTED CYCLE:    3.64233
 WQ ROW_BUFFER_HIT:      21543
  ROW_BUFFER_MISS:      29462  FULL:          0

