last_page:0x200000000000000
VMEM_RES_CAP:0x100000
PAGE_SIZE:4096
LOG2_PAGE_SIZE:12
LOG2_PAGE_TABLE_SIZE:9
page_table_levels:5
WARNING: physical memory size is smaller than virtual memory size
FDiP enabled with aggresivity 16

*** ChampSim Multicore Out-of-Order Simulator ***

Warmup Instructions: 50000000
Simulation Instructions: 100000000
Number of CPUs: 1
Small page size: 4096
Large page size: 2097152

CPU 0 Bimodal branch predictor
Basic BTB sets: 1024 ways: 8 indirect buffer size: 4096 RAS size: 64
Instruction page size distrubution: 0
Loading instruction page size distribution from /home/bsc/bsc018186/scratch/itp_asplos25_AE/dump/srv171_ap.pdst
Data page size distrubution: 0
Loading data page size distribution from /home/bsc/bsc018186/scratch/itp_asplos25_AE/dump/srv171_ap.pdst
cpu0_L2C IP-based stride prefetcher
cpu0_L1D next line prefetcher
cpu0_L1I next line prefetcher
Off-chip DRAM Size: 4 GiB Channels: 1 Width: 64-bit Data Rate: 3200 MT/s
Heartbeat CPU 0 instructions: 10000002 cycles: 2502057 heartbeat IPC: 3.99672 cumulative IPC: 3.99672 (Simulation time: 0 hr 0 min 34 sec) 
Heartbeat CPU 0 instructions: 20000003 cycles: 5002296 heartbeat IPC: 3.99962 cumulative IPC: 3.99817 (Simulation time: 0 hr 1 min 11 sec) 
Heartbeat CPU 0 instructions: 30000001 cycles: 7502473 heartbeat IPC: 3.99972 cumulative IPC: 3.99869 (Simulation time: 0 hr 1 min 48 sec) 
Heartbeat CPU 0 instructions: 40000003 cycles: 10002504 heartbeat IPC: 3.99996 cumulative IPC: 3.999 (Simulation time: 0 hr 2 min 25 sec) 
Heartbeat CPU 0 instructions: 50000000 cycles: 12502525 heartbeat IPC: 3.99997 cumulative IPC: 3.9992 (Simulation time: 0 hr 3 min 3 sec) 
Warmup finished CPU 0 instructions: 50000000 cycles: 12502526 cumulative IPC: 3.9992 (Simulation time: 0 hr 3 min 3 sec) 

Warmup complete CPU 0 instructions: 50000000 cycles: 12502526 (Simulation time: 0 hr 3 min 3 sec) 

Heartbeat CPU 0 instructions: 60000001 cycles: 27985882 heartbeat IPC: 0.645855 cumulative IPC: 0.645855 (Simulation time: 0 hr 4 min 3 sec) 
Heartbeat CPU 0 instructions: 70000004 cycles: 43345407 heartbeat IPC: 0.651062 cumulative IPC: 0.648448 (Simulation time: 0 hr 5 min 3 sec) 
Heartbeat CPU 0 instructions: 80000000 cycles: 59299125 heartbeat IPC: 0.626813 cumulative IPC: 0.641073 (Simulation time: 0 hr 6 min 4 sec) 
Heartbeat CPU 0 instructions: 90000000 cycles: 74744562 heartbeat IPC: 0.647441 cumulative IPC: 0.642653 (Simulation time: 0 hr 7 min 5 sec) 
Heartbeat CPU 0 instructions: 100000004 cycles: 90573260 heartbeat IPC: 0.631765 cumulative IPC: 0.640445 (Simulation time: 0 hr 8 min 5 sec) 
*** Reached end of trace: /gpfs/projects/bsc18/MN4/bsc18/romol/ChampSim/traces/qualcomm_srv/srv171_ap.champsimtrace.xz
Heartbeat CPU 0 instructions: 110000003 cycles: 106880403 heartbeat IPC: 0.613229 cumulative IPC: 0.635743 (Simulation time: 0 hr 9 min 7 sec) 
Heartbeat CPU 0 instructions: 120000003 cycles: 123498911 heartbeat IPC: 0.601739 cumulative IPC: 0.630652 (Simulation time: 0 hr 10 min 9 sec) 
Heartbeat CPU 0 instructions: 130000002 cycles: 139219358 heartbeat IPC: 0.636115 cumulative IPC: 0.631329 (Simulation time: 0 hr 11 min 10 sec) 
Heartbeat CPU 0 instructions: 140000004 cycles: 154154832 heartbeat IPC: 0.669548 cumulative IPC: 0.635359 (Simulation time: 0 hr 12 min 9 sec) 
Heartbeat CPU 0 instructions: 150000003 cycles: 169723730 heartbeat IPC: 0.642307 cumulative IPC: 0.636047 (Simulation time: 0 hr 13 min 10 sec) 
Simulation finished CPU 0 instructions: 100000003 cycles: 157221205 cumulative IPC: 0.636047 (Simulation time: 0 hr 13 min 10 sec) 

Simulation complete CPU 0 instructions: 100000003 cycles: 157221205 (Simulation time: 0 hr 13 min 10 sec) 


ChampSim completed all CPUs

Saving instructions large page distribution to /home/bsc/bsc018186/scratch/itp_asplos25_AE/dump/srv171_ap.pdst...
Saving data large page distribution to /home/bsc/bsc018186/scratch/itp_asplos25_AE/dump/srv171_ap.pdst...
=== Simulation ===
CPU 0 runs /gpfs/projects/bsc18/MN4/bsc18/romol/ChampSim/traces/qualcomm_srv/srv171_ap.champsimtrace.xz

Region of Interest Statistics

CPU 0 cumulative IPC: 0.636047 instructions: 100000003 cycles: 157221205
CPU 0 Branch Prediction Accuracy: 83.3635% MPKI: 29.7299 Average ROB Occupancy at Mispredict: 12.8887
Branch type MPKI
BRANCH_DIRECT_JUMP: 1.02615
BRANCH_INDIRECT: 15.295
BRANCH_CONDITIONAL: 9.72302
BRANCH_DIRECT_CALL: 1.84627
BRANCH_INDIRECT_CALL: 0.506
BRANCH_RETURN: 1.33345

Instructions large pages: 0
Instructions small pages: 1107
Large page distribution for instructions: 0%

Data large pages: 0
Data small pages: 10526
Large page distribution for data: 0%

cpu0_L1I TOTAL       ACCESS:   34634230  HIT:   26945930  MISS:    7688300  iACCESS:   34634230  iHIT:   26945930  iMISS:    7688300  dACCESS:          0  dHIT:          0  dMISS:          0  itACCESS:          0  itHIT:          0  itMISS:          0  dtACCESS:          0  dtHIT:          0  dtMISS:          0
cpu0_L1I LOAD         ACCESS:   10174196  HIT:    8012436  MISS:    2161760  iACCESS:   10174196  iHIT:    8012436  iMISS:    2161760  dACCESS:          0  dHIT:          0  dMISS:          0  itACCESS:          0  itHIT:          0  itMISS:          0  dtACCESS:          0  dtHIT:          0  dtMISS:          0
cpu0_L1I RFO          ACCESS:          0  HIT:          0  MISS:          0  iACCESS:          0  iHIT:          0  iMISS:          0  dACCESS:          0  dHIT:          0  dMISS:          0  itACCESS:          0  itHIT:          0  itMISS:          0  dtACCESS:          0  dtHIT:          0  dtMISS:          0
cpu0_L1I PREFETCH     ACCESS:   24460034  HIT:   18933494  MISS:    5526540  iACCESS:   24460034  iHIT:   18933494  iMISS:    5526540  dACCESS:          0  dHIT:          0  dMISS:          0  itACCESS:          0  itHIT:          0  itMISS:          0  dtACCESS:          0  dtHIT:          0  dtMISS:          0
cpu0_L1I WRITE        ACCESS:          0  HIT:          0  MISS:          0  iACCESS:          0  iHIT:          0  iMISS:          0  dACCESS:          0  dHIT:          0  dMISS:          0  itACCESS:          0  itHIT:          0  itMISS:          0  dtACCESS:          0  dtHIT:          0  dtMISS:          0
cpu0_L1I TRANSLATION  ACCESS:          0  HIT:          0  MISS:          0  iACCESS:          0  iHIT:          0  iMISS:          0  dACCESS:          0  dHIT:          0  dMISS:          0  itACCESS:          0  itHIT:          0  itMISS:          0  dtACCESS:          0  dtHIT:          0  dtMISS:          0
cpu0_L1I PREFETCH  REQUESTED:   27039922  ISSUED:   27039922  CROSSED:          0  USEFUL:    1872735  USELESS:     619260
cpu0_L1I AVERAGE iMISS LATENCY: 13.5439 cycles
cpu0_L1I AVERAGE dMISS LATENCY: 0 cycles
cpu0_L1I AVERAGE itMISS LATENCY: 0 cycles
cpu0_L1I AVERAGE dtMISS LATENCY: 0 cycles
cpu0_L1I PAGE CROSSINGS (TLB HIT):         0 
cpu0_L1I PAGE CROSSINGS (TLB MISS):         0 
cpu0_L1I AVERAGE MISS LATENCY: 13.5439 cycles
cpu0_ITLB TOTAL       ACCESS:   28931450  HIT:   26967942  MISS:    1963508  iACCESS:   28931450  iHIT:   26967942  iMISS:    1963508  dACCESS:          0  dHIT:          0  dMISS:          0  itACCESS:          0  itHIT:          0  itMISS:          0  dtACCESS:          0  dtHIT:          0  dtMISS:          0
cpu0_ITLB LOAD         ACCESS:   28931450  HIT:   26967942  MISS:    1963508  iACCESS:   28931450  iHIT:   26967942  iMISS:    1963508  dACCESS:          0  dHIT:          0  dMISS:          0  itACCESS:          0  itHIT:          0  itMISS:          0  dtACCESS:          0  dtHIT:          0  dtMISS:          0
cpu0_ITLB RFO          ACCESS:          0  HIT:          0  MISS:          0  iACCESS:          0  iHIT:          0  iMISS:          0  dACCESS:          0  dHIT:          0  dMISS:          0  itACCESS:          0  itHIT:          0  itMISS:          0  dtACCESS:          0  dtHIT:          0  dtMISS:          0
cpu0_ITLB PREFETCH     ACCESS:          0  HIT:          0  MISS:          0  iACCESS:          0  iHIT:          0  iMISS:          0  dACCESS:          0  dHIT:          0  dMISS:          0  itACCESS:          0  itHIT:          0  itMISS:          0  dtACCESS:          0  dtHIT:          0  dtMISS:          0
cpu0_ITLB WRITE        ACCESS:          0  HIT:          0  MISS:          0  iACCESS:          0  iHIT:          0  iMISS:          0  dACCESS:          0  dHIT:          0  dMISS:          0  itACCESS:          0  itHIT:          0  itMISS:          0  dtACCESS:          0  dtHIT:          0  dtMISS:          0
cpu0_ITLB TRANSLATION  ACCESS:          0  HIT:          0  MISS:          0  iACCESS:          0  iHIT:          0  iMISS:          0  dACCESS:          0  dHIT:          0  dMISS:          0  itACCESS:          0  itHIT:          0  itMISS:          0  dtACCESS:          0  dtHIT:          0  dtMISS:          0
cpu0_ITLB PREFETCH  REQUESTED:          0  ISSUED:          0  CROSSED:          0  USEFUL:     317342  USELESS:      66440
cpu0_ITLB AVERAGE iMISS LATENCY: 5.76976 cycles
cpu0_ITLB AVERAGE dMISS LATENCY: 0 cycles
cpu0_ITLB AVERAGE itMISS LATENCY: 0 cycles
cpu0_ITLB AVERAGE dtMISS LATENCY: 0 cycles
cpu0_ITLB PAGE CROSSINGS (TLB HIT):         0 
cpu0_ITLB PAGE CROSSINGS (TLB MISS):         0 
cpu0_ITLB AVERAGE MISS LATENCY: 5.76976 cycles
cpu0_DTLB TOTAL       ACCESS:   27690877  HIT:   25611091  MISS:    2079786  iACCESS:          0  iHIT:          0  iMISS:          0  dACCESS:   27690877  dHIT:   25611091  dMISS:    2079786  itACCESS:          0  itHIT:          0  itMISS:          0  dtACCESS:          0  dtHIT:          0  dtMISS:          0
cpu0_DTLB LOAD         ACCESS:   27690877  HIT:   25611091  MISS:    2079786  iACCESS:          0  iHIT:          0  iMISS:          0  dACCESS:   27690877  dHIT:   25611091  dMISS:    2079786  itACCESS:          0  itHIT:          0  itMISS:          0  dtACCESS:          0  dtHIT:          0  dtMISS:          0
cpu0_DTLB RFO          ACCESS:          0  HIT:          0  MISS:          0  iACCESS:          0  iHIT:          0  iMISS:          0  dACCESS:          0  dHIT:          0  dMISS:          0  itACCESS:          0  itHIT:          0  itMISS:          0  dtACCESS:          0  dtHIT:          0  dtMISS:          0
cpu0_DTLB PREFETCH     ACCESS:          0  HIT:          0  MISS:          0  iACCESS:          0  iHIT:          0  iMISS:          0  dACCESS:          0  dHIT:          0  dMISS:          0  itACCESS:          0  itHIT:          0  itMISS:          0  dtACCESS:          0  dtHIT:          0  dtMISS:          0
cpu0_DTLB WRITE        ACCESS:          0  HIT:          0  MISS:          0  iACCESS:          0  iHIT:          0  iMISS:          0  dACCESS:          0  dHIT:          0  dMISS:          0  itACCESS:          0  itHIT:          0  itMISS:          0  dtACCESS:          0  dtHIT:          0  dtMISS:          0
cpu0_DTLB TRANSLATION  ACCESS:          0  HIT:          0  MISS:          0  iACCESS:          0  iHIT:          0  iMISS:          0  dACCESS:          0  dHIT:          0  dMISS:          0  itACCESS:          0  itHIT:          0  itMISS:          0  dtACCESS:          0  dtHIT:          0  dtMISS:          0
cpu0_DTLB PREFETCH  REQUESTED:          0  ISSUED:          0  CROSSED:          0  USEFUL:          0  USELESS:          0
cpu0_DTLB AVERAGE iMISS LATENCY: 0 cycles
cpu0_DTLB AVERAGE dMISS LATENCY: 15.211 cycles
cpu0_DTLB AVERAGE itMISS LATENCY: 0 cycles
cpu0_DTLB AVERAGE dtMISS LATENCY: 0 cycles
cpu0_DTLB PAGE CROSSINGS (TLB HIT):         0 
cpu0_DTLB PAGE CROSSINGS (TLB MISS):         0 
cpu0_DTLB AVERAGE MISS LATENCY: 15.211 cycles
cpu0_STLB TOTAL       ACCESS:    1609543  HIT:    1433689  MISS:     175854  iACCESS:     383794  iHIT:     319729  iMISS:      64065  dACCESS:    1225749  dHIT:    1113960  dMISS:     111789  itACCESS:          0  itHIT:          0  itMISS:          0  dtACCESS:          0  dtHIT:          0  dtMISS:          0
cpu0_STLB LOAD         ACCESS:    1609543  HIT:    1433689  MISS:     175854  iACCESS:     383794  iHIT:     319729  iMISS:      64065  dACCESS:    1225749  dHIT:    1113960  dMISS:     111789  itACCESS:          0  itHIT:          0  itMISS:          0  dtACCESS:          0  dtHIT:          0  dtMISS:          0
cpu0_STLB RFO          ACCESS:          0  HIT:          0  MISS:          0  iACCESS:          0  iHIT:          0  iMISS:          0  dACCESS:          0  dHIT:          0  dMISS:          0  itACCESS:          0  itHIT:          0  itMISS:          0  dtACCESS:          0  dtHIT:          0  dtMISS:          0
cpu0_STLB PREFETCH     ACCESS:          0  HIT:          0  MISS:          0  iACCESS:          0  iHIT:          0  iMISS:          0  dACCESS:          0  dHIT:          0  dMISS:          0  itACCESS:          0  itHIT:          0  itMISS:          0  dtACCESS:          0  dtHIT:          0  dtMISS:          0
cpu0_STLB WRITE        ACCESS:          0  HIT:          0  MISS:          0  iACCESS:          0  iHIT:          0  iMISS:          0  dACCESS:          0  dHIT:          0  dMISS:          0  itACCESS:          0  itHIT:          0  itMISS:          0  dtACCESS:          0  dtHIT:          0  dtMISS:          0
cpu0_STLB TRANSLATION  ACCESS:          0  HIT:          0  MISS:          0  iACCESS:          0  iHIT:          0  iMISS:          0  dACCESS:          0  dHIT:          0  dMISS:          0  itACCESS:          0  itHIT:          0  itMISS:          0  dtACCESS:          0  dtHIT:          0  dtMISS:          0
cpu0_STLB PREFETCH  REQUESTED:          0  ISSUED:          0  CROSSED:          0  USEFUL:          0  USELESS:          0
cpu0_STLB AVERAGE iMISS LATENCY: 47.1288 cycles
cpu0_STLB AVERAGE dMISS LATENCY: 124.279 cycles
cpu0_STLB AVERAGE itMISS LATENCY: 0 cycles
cpu0_STLB AVERAGE dtMISS LATENCY: 0 cycles
cpu0_STLB PAGE CROSSINGS (TLB HIT):         0 
cpu0_STLB PAGE CROSSINGS (TLB MISS):         0 
cpu0_STLB AVERAGE MISS LATENCY: 171.408 cycles
cpu0_L1D TOTAL       ACCESS:   41515866  HIT:   37987892  MISS:    3527974  iACCESS:          0  iHIT:          0  iMISS:          0  dACCESS:   41276484  dHIT:   37965983  dMISS:    3310501  itACCESS:      69601  itHIT:      10179  itMISS:      59422  dtACCESS:     169781  dtHIT:      11730  dtMISS:     158051
cpu0_L1D LOAD         ACCESS:   18929829  HIT:   17419210  MISS:    1510619  iACCESS:          0  iHIT:          0  iMISS:          0  dACCESS:   18929829  dHIT:   17419210  dMISS:    1510619  itACCESS:          0  itHIT:          0  itMISS:          0  dtACCESS:          0  dtHIT:          0  dtMISS:          0
cpu0_L1D RFO          ACCESS:          0  HIT:          0  MISS:          0  iACCESS:          0  iHIT:          0  iMISS:          0  dACCESS:          0  dHIT:          0  dMISS:          0  itACCESS:          0  itHIT:          0  itMISS:          0  dtACCESS:          0  dtHIT:          0  dtMISS:          0
cpu0_L1D PREFETCH     ACCESS:   12164735  HIT:   10804045  MISS:    1360690  iACCESS:          0  iHIT:          0  iMISS:          0  dACCESS:   12164735  dHIT:   10804045  dMISS:    1360690  itACCESS:          0  itHIT:          0  itMISS:          0  dtACCESS:          0  dtHIT:          0  dtMISS:          0
cpu0_L1D WRITE        ACCESS:   10181920  HIT:    9742728  MISS:     439192  iACCESS:          0  iHIT:          0  iMISS:          0  dACCESS:   10181920  dHIT:    9742728  dMISS:     439192  itACCESS:          0  itHIT:          0  itMISS:          0  dtACCESS:          0  dtHIT:          0  dtMISS:          0
cpu0_L1D TRANSLATION  ACCESS:     239382  HIT:      21909  MISS:     217473  iACCESS:          0  iHIT:          0  iMISS:          0  dACCESS:          0  dHIT:          0  dMISS:          0  itACCESS:      69601  itHIT:      10179  itMISS:      59422  dtACCESS:     169781  dtHIT:      11730  dtMISS:     158051
cpu0_L1D PREFETCH  REQUESTED:   18929829  ISSUED:   17013842  CROSSED:          0  USEFUL:     303659  USELESS:     694329
cpu0_L1D AVERAGE iMISS LATENCY: 0 cycles
cpu0_L1D AVERAGE dMISS LATENCY: 33.5606 cycles
cpu0_L1D AVERAGE itMISS LATENCY: 2.19168 cycles
cpu0_L1D AVERAGE dtMISS LATENCY: 5.44237 cycles
cpu0_L1D PAGE CROSSINGS (TLB HIT):         0 
cpu0_L1D PAGE CROSSINGS (TLB MISS):         0 
cpu0_L1D AVERAGE MISS LATENCY: 41.1946 cycles
cpu0_L2C TOTAL       ACCESS:    6877212  HIT:    3971691  MISS:    2905521  iACCESS:    3240522  iHIT:    2160609  iMISS:    1079913  dACCESS:    3429058  dHIT:    1783537  dMISS:    1645521  itACCESS:      59412  itHIT:       9428  itMISS:      49984  dtACCESS:     148220  dtHIT:      18117  dtMISS:     130103
cpu0_L2C LOAD         ACCESS:    1707928  HIT:    1020457  MISS:     687471  iACCESS:     783410  iHIT:     543975  iMISS:     239435  dACCESS:     924518  dHIT:     476482  dMISS:     448036  itACCESS:          0  itHIT:          0  itMISS:          0  dtACCESS:          0  dtHIT:          0  dtMISS:          0
cpu0_L2C RFO          ACCESS:     156323  HIT:      72170  MISS:      84153  iACCESS:          0  iHIT:          0  iMISS:          0  dACCESS:     156323  dHIT:      72170  dMISS:      84153  itACCESS:          0  itHIT:          0  itMISS:          0  dtACCESS:          0  dtHIT:          0  dtMISS:          0
cpu0_L2C PREFETCH     ACCESS:    4522141  HIT:    2569757  MISS:    1952384  iACCESS:    2457112  iHIT:    1616634  iMISS:     840478  dACCESS:    2065029  dHIT:     953123  dMISS:    1111906  itACCESS:          0  itHIT:          0  itMISS:          0  dtACCESS:          0  dtHIT:          0  dtMISS:          0
cpu0_L2C WRITE        ACCESS:     283188  HIT:     281762  MISS:       1426  iACCESS:          0  iHIT:          0  iMISS:          0  dACCESS:     283188  dHIT:     281762  dMISS:       1426  itACCESS:          0  itHIT:          0  itMISS:          0  dtACCESS:          0  dtHIT:          0  dtMISS:          0
cpu0_L2C TRANSLATION  ACCESS:     207632  HIT:      27545  MISS:     180087  iACCESS:          0  iHIT:          0  iMISS:          0  dACCESS:          0  dHIT:          0  dMISS:          0  itACCESS:      59412  itHIT:       9428  itMISS:      49984  dtACCESS:     148220  dtHIT:      18117  dtMISS:     130103
cpu0_L2C PREFETCH  REQUESTED:    1313567  ISSUED:    1313477  CROSSED:          0  USEFUL:     310305  USELESS:     223430
cpu0_L2C AVERAGE iMISS LATENCY: 25.9331 cycles
cpu0_L2C AVERAGE dMISS LATENCY: 47.9676 cycles
cpu0_L2C AVERAGE itMISS LATENCY: 2.45953 cycles
cpu0_L2C AVERAGE dtMISS LATENCY: 6.10042 cycles
cpu0_L2C PAGE CROSSINGS (TLB HIT):         0 
cpu0_L2C PAGE CROSSINGS (TLB MISS):         0 
cpu0_L2C AVERAGE MISS LATENCY: 82.4605 cycles
LLC TOTAL       ACCESS:    2932417  HIT:    1766501  MISS:    1165916  iACCESS:    1028531  iHIT:     655308  iMISS:     373223  dACCESS:    1723799  dHIT:    1051063  dMISS:     672736  itACCESS:      49984  itHIT:      14250  itMISS:      35734  dtACCESS:     130103  dtHIT:      45880  dtMISS:      84223
LLC LOAD         ACCESS:     685290  HIT:     428521  MISS:     256769  iACCESS:     238283  iHIT:     155989  iMISS:      82294  dACCESS:     447007  dHIT:     272532  dMISS:     174475  itACCESS:          0  itHIT:          0  itMISS:          0  dtACCESS:          0  dtHIT:          0  dtMISS:          0
LLC RFO          ACCESS:      84148  HIT:      42558  MISS:      41590  iACCESS:          0  iHIT:          0  iMISS:          0  dACCESS:      84148  dHIT:      42558  dMISS:      41590  itACCESS:          0  itHIT:          0  itMISS:          0  dtACCESS:          0  dtHIT:          0  dtMISS:          0
LLC PREFETCH     ACCESS:    1846744  HIT:    1105263  MISS:     741481  iACCESS:     790248  iHIT:     499319  iMISS:     290929  dACCESS:    1056496  dHIT:     605944  dMISS:     450552  itACCESS:          0  itHIT:          0  itMISS:          0  dtACCESS:          0  dtHIT:          0  dtMISS:          0
LLC WRITE        ACCESS:     136148  HIT:     130029  MISS:       6119  iACCESS:          0  iHIT:          0  iMISS:          0  dACCESS:     136148  dHIT:     130029  dMISS:       6119  itACCESS:          0  itHIT:          0  itMISS:          0  dtACCESS:          0  dtHIT:          0  dtMISS:          0
LLC TRANSLATION  ACCESS:     180087  HIT:      60130  MISS:     119957  iACCESS:          0  iHIT:          0  iMISS:          0  dACCESS:          0  dHIT:          0  dMISS:          0  itACCESS:      49984  itHIT:      14250  itMISS:      35734  dtACCESS:     130103  dtHIT:      45880  dtMISS:      84223
LLC PREFETCH  REQUESTED:          0  ISSUED:          0  CROSSED:          0  USEFUL:          0  USELESS:          0
LLC AVERAGE iMISS LATENCY: 47.4553 cycles
LLC AVERAGE dMISS LATENCY: 93.3594 cycles
LLC AVERAGE itMISS LATENCY: 5.28636 cycles
LLC AVERAGE dtMISS LATENCY: 13.0166 cycles
LLC PAGE CROSSINGS (TLB HIT):         0 
LLC PAGE CROSSINGS (TLB MISS):         0 
LLC AVERAGE MISS LATENCY: 159.118 cycles

PageTableWalker TOTAL       ACCESS:      87128  
PageTableWalker AVERAGE LATENCY: 5.32144 cycles
PageTableWalker TOTAL LATENCY: 463646 cycles

DRAM Statistics
Channel 0
 RQ ROW_BUFFER_HIT:     303306
  ROW_BUFFER_MISS:     855752
 AVG DBUS CONGESTED CYCLE:    3.62214
 WQ ROW_BUFFER_HIT:      23963
  ROW_BUFFER_MISS:      21607  FULL:          0

