last_page:0x200000000000000
VMEM_RES_CAP:0x100000
PAGE_SIZE:4096
LOG2_PAGE_SIZE:12
LOG2_PAGE_TABLE_SIZE:9
page_table_levels:5
WARNING: physical memory size is smaller than virtual memory size
FDiP enabled with aggresivity 16

*** ChampSim Multicore Out-of-Order Simulator ***

Warmup Instructions: 50000000
Simulation Instructions: 100000000
Number of CPUs: 1
Small page size: 4096
Large page size: 2097152

CPU 0 Bimodal branch predictor
Basic BTB sets: 1024 ways: 8 indirect buffer size: 4096 RAS size: 64
Instruction page size distrubution: 0
Loading instruction page size distribution from /home/bsc/bsc018186/scratch/itp_asplos25_AE/dump/srv105_ap.pdst
Data page size distrubution: 0
Loading data page size distribution from /home/bsc/bsc018186/scratch/itp_asplos25_AE/dump/srv105_ap.pdst
cpu0_L2C IP-based stride prefetcher
cpu0_L2C is using PTP replacement policy:
	TLB_STRESS_THRESHOLD:0
	PTE_EVICTION_RATIO:0
cpu0_L1D next line prefetcher
CHiRPing...
cpu0_L1I next line prefetcher
Off-chip DRAM Size: 4 GiB Channels: 1 Width: 64-bit Data Rate: 3200 MT/s
Heartbeat CPU 0 instructions: 10000002 cycles: 2500284 heartbeat IPC: 3.99955 cumulative IPC: 3.99955 (Simulation time: 0 hr 0 min 38 sec) 
Heartbeat CPU 0 instructions: 20000001 cycles: 5000357 heartbeat IPC: 3.99989 cumulative IPC: 3.99972 (Simulation time: 0 hr 1 min 19 sec) 
Heartbeat CPU 0 instructions: 30000003 cycles: 7500447 heartbeat IPC: 3.99986 cumulative IPC: 3.99977 (Simulation time: 0 hr 2 min 0 sec) 
Heartbeat CPU 0 instructions: 40000003 cycles: 10000468 heartbeat IPC: 3.99997 cumulative IPC: 3.99982 (Simulation time: 0 hr 2 min 41 sec) 
Heartbeat CPU 0 instructions: 50000000 cycles: 12502362 heartbeat IPC: 3.99698 cumulative IPC: 3.99925 (Simulation time: 0 hr 3 min 22 sec) 
Warmup finished CPU 0 instructions: 50000000 cycles: 12502363 cumulative IPC: 3.99925 (Simulation time: 0 hr 3 min 22 sec) 

Warmup complete CPU 0 instructions: 50000000 cycles: 12502363 (Simulation time: 0 hr 3 min 22 sec) 

Heartbeat CPU 0 instructions: 60000002 cycles: 26336549 heartbeat IPC: 0.722848 cumulative IPC: 0.722848 (Simulation time: 0 hr 4 min 25 sec) 
Heartbeat CPU 0 instructions: 70000003 cycles: 40653083 heartbeat IPC: 0.698494 cumulative IPC: 0.710462 (Simulation time: 0 hr 5 min 29 sec) 
Heartbeat CPU 0 instructions: 80000001 cycles: 54233672 heartbeat IPC: 0.736345 cumulative IPC: 0.718885 (Simulation time: 0 hr 6 min 32 sec) 
Heartbeat CPU 0 instructions: 90000001 cycles: 67909203 heartbeat IPC: 0.731234 cumulative IPC: 0.721933 (Simulation time: 0 hr 7 min 36 sec) 
Heartbeat CPU 0 instructions: 100000001 cycles: 82613219 heartbeat IPC: 0.680087 cumulative IPC: 0.713157 (Simulation time: 0 hr 8 min 40 sec) 
*** Reached end of trace: /gpfs/projects/bsc18/MN4/bsc18/romol/ChampSim/traces/qualcomm_srv/srv105_ap.champsimtrace.xz
Heartbeat CPU 0 instructions: 110000000 cycles: 96330790 heartbeat IPC: 0.728992 cumulative IPC: 0.715748 (Simulation time: 0 hr 9 min 44 sec) 
Heartbeat CPU 0 instructions: 120000002 cycles: 110021001 heartbeat IPC: 0.73045 cumulative IPC: 0.717812 (Simulation time: 0 hr 10 min 47 sec) 
Heartbeat CPU 0 instructions: 130000004 cycles: 124226440 heartbeat IPC: 0.703956 cumulative IPC: 0.71605 (Simulation time: 0 hr 11 min 51 sec) 
Heartbeat CPU 0 instructions: 140000001 cycles: 138103451 heartbeat IPC: 0.720617 cumulative IPC: 0.716555 (Simulation time: 0 hr 12 min 54 sec) 
Heartbeat CPU 0 instructions: 150000002 cycles: 152880648 heartbeat IPC: 0.676719 cumulative IPC: 0.712361 (Simulation time: 0 hr 13 min 59 sec) 
Simulation finished CPU 0 instructions: 100000002 cycles: 140378286 cumulative IPC: 0.712361 (Simulation time: 0 hr 13 min 59 sec) 

Simulation complete CPU 0 instructions: 100000002 cycles: 140378286 (Simulation time: 0 hr 13 min 59 sec) 


ChampSim completed all CPUs

Saving instructions large page distribution to /home/bsc/bsc018186/scratch/itp_asplos25_AE/dump/srv105_ap.pdst...
Saving data large page distribution to /home/bsc/bsc018186/scratch/itp_asplos25_AE/dump/srv105_ap.pdst...
=== Simulation ===
CPU 0 runs /gpfs/projects/bsc18/MN4/bsc18/romol/ChampSim/traces/qualcomm_srv/srv105_ap.champsimtrace.xz

Region of Interest Statistics

CPU 0 cumulative IPC: 0.712361 instructions: 100000002 cycles: 140378286
CPU 0 Branch Prediction Accuracy: 83.4325% MPKI: 29.7637 Average ROB Occupancy at Mispredict: 12.3089
Branch type MPKI
BRANCH_DIRECT_JUMP: 0.95112
BRANCH_INDIRECT: 15.4543
BRANCH_CONDITIONAL: 9.71814
BRANCH_DIRECT_CALL: 1.80961
BRANCH_INDIRECT_CALL: 0.50451
BRANCH_RETURN: 1.32606

Instructions large pages: 0
Instructions small pages: 988
Large page distribution for instructions: 0%

Data large pages: 0
Data small pages: 9284
Large page distribution for data: 0%

cpu0_L1I TOTAL       ACCESS:   35150229  HIT:   26525876  MISS:    8624353  iACCESS:   35150229  iHIT:   26525876  iMISS:    8624353  dACCESS:          0  dHIT:          0  dMISS:          0  itACCESS:          0  itHIT:          0  itMISS:          0  dtACCESS:          0  dtHIT:          0  dtMISS:          0
cpu0_L1I LOAD         ACCESS:   10234175  HIT:    7814109  MISS:    2420066  iACCESS:   10234175  iHIT:    7814109  iMISS:    2420066  dACCESS:          0  dHIT:          0  dMISS:          0  itACCESS:          0  itHIT:          0  itMISS:          0  dtACCESS:          0  dtHIT:          0  dtMISS:          0
cpu0_L1I RFO          ACCESS:          0  HIT:          0  MISS:          0  iACCESS:          0  iHIT:          0  iMISS:          0  dACCESS:          0  dHIT:          0  dMISS:          0  itACCESS:          0  itHIT:          0  itMISS:          0  dtACCESS:          0  dtHIT:          0  dtMISS:          0
cpu0_L1I PREFETCH     ACCESS:   24916054  HIT:   18711767  MISS:    6204287  iACCESS:   24916054  iHIT:   18711767  iMISS:    6204287  dACCESS:          0  dHIT:          0  dMISS:          0  itACCESS:          0  itHIT:          0  itMISS:          0  dtACCESS:          0  dtHIT:          0  dtMISS:          0
cpu0_L1I WRITE        ACCESS:          0  HIT:          0  MISS:          0  iACCESS:          0  iHIT:          0  iMISS:          0  dACCESS:          0  dHIT:          0  dMISS:          0  itACCESS:          0  itHIT:          0  itMISS:          0  dtACCESS:          0  dtHIT:          0  dtMISS:          0
cpu0_L1I TRANSLATION  ACCESS:          0  HIT:          0  MISS:          0  iACCESS:          0  iHIT:          0  iMISS:          0  dACCESS:          0  dHIT:          0  dMISS:          0  itACCESS:          0  itHIT:          0  itMISS:          0  dtACCESS:          0  dtHIT:          0  dtMISS:          0
cpu0_L1I PREFETCH  REQUESTED:   27137662  ISSUED:   27134510  CROSSED:          0  USEFUL:    1931379  USELESS:     637013
cpu0_L1I AVERAGE iMISS LATENCY: 13.5112 cycles
cpu0_L1I AVERAGE dMISS LATENCY: 0 cycles
cpu0_L1I AVERAGE itMISS LATENCY: 0 cycles
cpu0_L1I AVERAGE dtMISS LATENCY: 0 cycles
cpu0_L1I PAGE CROSSINGS (TLB HIT):         0 
cpu0_L1I PAGE CROSSINGS (TLB MISS):         0 
cpu0_L1I AVERAGE MISS LATENCY: 13.5112 cycles
cpu0_ITLB TOTAL       ACCESS:   29030422  HIT:   27038863  MISS:    1991559  iACCESS:   29030422  iHIT:   27038863  iMISS:    1991559  dACCESS:          0  dHIT:          0  dMISS:          0  itACCESS:          0  itHIT:          0  itMISS:          0  dtACCESS:          0  dtHIT:          0  dtMISS:          0
cpu0_ITLB LOAD         ACCESS:   29030422  HIT:   27038863  MISS:    1991559  iACCESS:   29030422  iHIT:   27038863  iMISS:    1991559  dACCESS:          0  dHIT:          0  dMISS:          0  itACCESS:          0  itHIT:          0  itMISS:          0  dtACCESS:          0  dtHIT:          0  dtMISS:          0
cpu0_ITLB RFO          ACCESS:          0  HIT:          0  MISS:          0  iACCESS:          0  iHIT:          0  iMISS:          0  dACCESS:          0  dHIT:          0  dMISS:          0  itACCESS:          0  itHIT:          0  itMISS:          0  dtACCESS:          0  dtHIT:          0  dtMISS:          0
cpu0_ITLB PREFETCH     ACCESS:          0  HIT:          0  MISS:          0  iACCESS:          0  iHIT:          0  iMISS:          0  dACCESS:          0  dHIT:          0  dMISS:          0  itACCESS:          0  itHIT:          0  itMISS:          0  dtACCESS:          0  dtHIT:          0  dtMISS:          0
cpu0_ITLB WRITE        ACCESS:          0  HIT:          0  MISS:          0  iACCESS:          0  iHIT:          0  iMISS:          0  dACCESS:          0  dHIT:          0  dMISS:          0  itACCESS:          0  itHIT:          0  itMISS:          0  dtACCESS:          0  dtHIT:          0  dtMISS:          0
cpu0_ITLB TRANSLATION  ACCESS:          0  HIT:          0  MISS:          0  iACCESS:          0  iHIT:          0  iMISS:          0  dACCESS:          0  dHIT:          0  dMISS:          0  itACCESS:          0  itHIT:          0  itMISS:          0  dtACCESS:          0  dtHIT:          0  dtMISS:          0
cpu0_ITLB PREFETCH  REQUESTED:          0  ISSUED:          0  CROSSED:          0  USEFUL:     325796  USELESS:      62636
cpu0_ITLB AVERAGE iMISS LATENCY: 2.67644 cycles
cpu0_ITLB AVERAGE dMISS LATENCY: 0 cycles
cpu0_ITLB AVERAGE itMISS LATENCY: 0 cycles
cpu0_ITLB AVERAGE dtMISS LATENCY: 0 cycles
cpu0_ITLB PAGE CROSSINGS (TLB HIT):         0 
cpu0_ITLB PAGE CROSSINGS (TLB MISS):         0 
cpu0_ITLB AVERAGE MISS LATENCY: 2.67644 cycles
cpu0_DTLB TOTAL       ACCESS:   27753388  HIT:   25655236  MISS:    2098152  iACCESS:          0  iHIT:          0  iMISS:          0  dACCESS:   27753388  dHIT:   25655236  dMISS:    2098152  itACCESS:          0  itHIT:          0  itMISS:          0  dtACCESS:          0  dtHIT:          0  dtMISS:          0
cpu0_DTLB LOAD         ACCESS:   27753388  HIT:   25655236  MISS:    2098152  iACCESS:          0  iHIT:          0  iMISS:          0  dACCESS:   27753388  dHIT:   25655236  dMISS:    2098152  itACCESS:          0  itHIT:          0  itMISS:          0  dtACCESS:          0  dtHIT:          0  dtMISS:          0
cpu0_DTLB RFO          ACCESS:          0  HIT:          0  MISS:          0  iACCESS:          0  iHIT:          0  iMISS:          0  dACCESS:          0  dHIT:          0  dMISS:          0  itACCESS:          0  itHIT:          0  itMISS:          0  dtACCESS:          0  dtHIT:          0  dtMISS:          0
cpu0_DTLB PREFETCH     ACCESS:          0  HIT:          0  MISS:          0  iACCESS:          0  iHIT:          0  iMISS:          0  dACCESS:          0  dHIT:          0  dMISS:          0  itACCESS:          0  itHIT:          0  itMISS:          0  dtACCESS:          0  dtHIT:          0  dtMISS:          0
cpu0_DTLB WRITE        ACCESS:          0  HIT:          0  MISS:          0  iACCESS:          0  iHIT:          0  iMISS:          0  dACCESS:          0  dHIT:          0  dMISS:          0  itACCESS:          0  itHIT:          0  itMISS:          0  dtACCESS:          0  dtHIT:          0  dtMISS:          0
cpu0_DTLB TRANSLATION  ACCESS:          0  HIT:          0  MISS:          0  iACCESS:          0  iHIT:          0  iMISS:          0  dACCESS:          0  dHIT:          0  dMISS:          0  itACCESS:          0  itHIT:          0  itMISS:          0  dtACCESS:          0  dtHIT:          0  dtMISS:          0
cpu0_DTLB PREFETCH  REQUESTED:          0  ISSUED:          0  CROSSED:          0  USEFUL:          0  USELESS:          0
cpu0_DTLB AVERAGE iMISS LATENCY: 0 cycles
cpu0_DTLB AVERAGE dMISS LATENCY: 8.2781 cycles
cpu0_DTLB AVERAGE itMISS LATENCY: 0 cycles
cpu0_DTLB AVERAGE dtMISS LATENCY: 0 cycles
cpu0_DTLB PAGE CROSSINGS (TLB HIT):         0 
cpu0_DTLB PAGE CROSSINGS (TLB MISS):         0 
cpu0_DTLB AVERAGE MISS LATENCY: 8.2781 cycles
cpu0_STLB TOTAL       ACCESS:    1641967  HIT:    1478561  MISS:     163406  iACCESS:     388469  iHIT:     331250  iMISS:      57219  dACCESS:    1253498  dHIT:    1147311  dMISS:     106187  itACCESS:          0  itHIT:          0  itMISS:          0  dtACCESS:          0  dtHIT:          0  dtMISS:          0
cpu0_STLB LOAD         ACCESS:    1641967  HIT:    1478561  MISS:     163406  iACCESS:     388469  iHIT:     331250  iMISS:      57219  dACCESS:    1253498  dHIT:    1147311  dMISS:     106187  itACCESS:          0  itHIT:          0  itMISS:          0  dtACCESS:          0  dtHIT:          0  dtMISS:          0
cpu0_STLB RFO          ACCESS:          0  HIT:          0  MISS:          0  iACCESS:          0  iHIT:          0  iMISS:          0  dACCESS:          0  dHIT:          0  dMISS:          0  itACCESS:          0  itHIT:          0  itMISS:          0  dtACCESS:          0  dtHIT:          0  dtMISS:          0
cpu0_STLB PREFETCH     ACCESS:          0  HIT:          0  MISS:          0  iACCESS:          0  iHIT:          0  iMISS:          0  dACCESS:          0  dHIT:          0  dMISS:          0  itACCESS:          0  itHIT:          0  itMISS:          0  dtACCESS:          0  dtHIT:          0  dtMISS:          0
cpu0_STLB WRITE        ACCESS:          0  HIT:          0  MISS:          0  iACCESS:          0  iHIT:          0  iMISS:          0  dACCESS:          0  dHIT:          0  dMISS:          0  itACCESS:          0  itHIT:          0  itMISS:          0  dtACCESS:          0  dtHIT:          0  dtMISS:          0
cpu0_STLB TRANSLATION  ACCESS:          0  HIT:          0  MISS:          0  iACCESS:          0  iHIT:          0  iMISS:          0  dACCESS:          0  dHIT:          0  dMISS:          0  itACCESS:          0  itHIT:          0  itMISS:          0  dtACCESS:          0  dtHIT:          0  dtMISS:          0
cpu0_STLB PREFETCH  REQUESTED:          0  ISSUED:          0  CROSSED:          0  USEFUL:          0  USELESS:          0
cpu0_STLB AVERAGE iMISS LATENCY: 13.8497 cycles
cpu0_STLB AVERAGE dMISS LATENCY: 45.2032 cycles
cpu0_STLB AVERAGE itMISS LATENCY: 0 cycles
cpu0_STLB AVERAGE dtMISS LATENCY: 0 cycles
cpu0_STLB PAGE CROSSINGS (TLB HIT):         0 
cpu0_STLB PAGE CROSSINGS (TLB MISS):         0 
cpu0_STLB AVERAGE MISS LATENCY: 59.0529 cycles
cpu0_L1D TOTAL       ACCESS:   41651989  HIT:   38002206  MISS:    3649783  iACCESS:          0  iHIT:          0  iMISS:          0  dACCESS:   41426023  dHIT:   37982577  dMISS:    3443446  itACCESS:      62221  itHIT:       9066  itMISS:      53155  dtACCESS:     163745  dtHIT:      10563  dtMISS:     153182
cpu0_L1D LOAD         ACCESS:   18990682  HIT:   17422423  MISS:    1568259  iACCESS:          0  iHIT:          0  iMISS:          0  dACCESS:   18990682  dHIT:   17422423  dMISS:    1568259  itACCESS:          0  itHIT:          0  itMISS:          0  dtACCESS:          0  dtHIT:          0  dtMISS:          0
cpu0_L1D RFO          ACCESS:          0  HIT:          0  MISS:          0  iACCESS:          0  iHIT:          0  iMISS:          0  dACCESS:          0  dHIT:          0  dMISS:          0  itACCESS:          0  itHIT:          0  itMISS:          0  dtACCESS:          0  dtHIT:          0  dtMISS:          0
cpu0_L1D PREFETCH     ACCESS:   12267487  HIT:   10840642  MISS:    1426845  iACCESS:          0  iHIT:          0  iMISS:          0  dACCESS:   12267487  dHIT:   10840642  dMISS:    1426845  itACCESS:          0  itHIT:          0  itMISS:          0  dtACCESS:          0  dtHIT:          0  dtMISS:          0
cpu0_L1D WRITE        ACCESS:   10167854  HIT:    9719512  MISS:     448342  iACCESS:          0  iHIT:          0  iMISS:          0  dACCESS:   10167854  dHIT:    9719512  dMISS:     448342  itACCESS:          0  itHIT:          0  itMISS:          0  dtACCESS:          0  dtHIT:          0  dtMISS:          0
cpu0_L1D TRANSLATION  ACCESS:     225966  HIT:      19629  MISS:     206337  iACCESS:          0  iHIT:          0  iMISS:          0  dACCESS:          0  dHIT:          0  dMISS:          0  itACCESS:      62221  itHIT:       9066  itMISS:      53155  dtACCESS:     163745  dtHIT:      10563  dtMISS:     153182
cpu0_L1D PREFETCH  REQUESTED:   18990682  ISSUED:   17087270  CROSSED:          0  USEFUL:     308742  USELESS:     705641
cpu0_L1D AVERAGE iMISS LATENCY: 0 cycles
cpu0_L1D AVERAGE dMISS LATENCY: 34.5869 cycles
cpu0_L1D AVERAGE itMISS LATENCY: 0.483397 cycles
cpu0_L1D AVERAGE dtMISS LATENCY: 1.4027 cycles
cpu0_L1D PAGE CROSSINGS (TLB HIT):         0 
cpu0_L1D PAGE CROSSINGS (TLB MISS):         0 
cpu0_L1D AVERAGE MISS LATENCY: 36.4729 cycles
cpu0_L2C TOTAL       ACCESS:    7016983  HIT:    1258820  MISS:    5758163  iACCESS:    3323396  iHIT:     718864  iMISS:    2604532  dACCESS:    3500510  dHIT:     378858  dMISS:    3121652  itACCESS:      53143  itHIT:      43818  itMISS:       9325  dtACCESS:     139934  dtHIT:     117280  dtMISS:      22654
cpu0_L2C LOAD         ACCESS:    1734163  HIT:     152324  MISS:    1581839  iACCESS:     794359  iHIT:     112991  iMISS:     681368  dACCESS:     939804  dHIT:      39333  dMISS:     900471  itACCESS:          0  itHIT:          0  itMISS:          0  dtACCESS:          0  dtHIT:          0  dtMISS:          0
cpu0_L2C RFO          ACCESS:     156937  HIT:       8096  MISS:     148841  iACCESS:          0  iHIT:          0  iMISS:          0  dACCESS:     156937  dHIT:       8096  dMISS:     148841  itACCESS:          0  itHIT:          0  itMISS:          0  dtACCESS:          0  dtHIT:          0  dtMISS:          0
cpu0_L2C PREFETCH     ACCESS:    4647239  HIT:     876415  MISS:    3770824  iACCESS:    2529037  iHIT:     605873  iMISS:    1923164  dACCESS:    2118202  dHIT:     270542  dMISS:    1847660  itACCESS:          0  itHIT:          0  itMISS:          0  dtACCESS:          0  dtHIT:          0  dtMISS:          0
cpu0_L2C WRITE        ACCESS:     285567  HIT:      60887  MISS:     224680  iACCESS:          0  iHIT:          0  iMISS:          0  dACCESS:     285567  dHIT:      60887  dMISS:     224680  itACCESS:          0  itHIT:          0  itMISS:          0  dtACCESS:          0  dtHIT:          0  dtMISS:          0
cpu0_L2C TRANSLATION  ACCESS:     193077  HIT:     161098  MISS:      31979  iACCESS:          0  iHIT:          0  iMISS:          0  dACCESS:          0  dHIT:          0  dMISS:          0  itACCESS:      53143  itHIT:      43818  itMISS:       9325  dtACCESS:     139934  dtHIT:     117280  dtMISS:      22654
cpu0_L2C PREFETCH  REQUESTED:    1389540  ISSUED:    1389540  CROSSED:          0  USEFUL:     416499  USELESS:     395302
cpu0_L2C AVERAGE iMISS LATENCY: 14.8187 cycles
cpu0_L2C AVERAGE dMISS LATENCY: 25.3492 cycles
cpu0_L2C AVERAGE itMISS LATENCY: 0.221517 cycles
cpu0_L2C AVERAGE dtMISS LATENCY: 0.665296 cycles
cpu0_L2C PAGE CROSSINGS (TLB HIT):         0 
cpu0_L2C PAGE CROSSINGS (TLB MISS):         0 
cpu0_L2C AVERAGE MISS LATENCY: 41.0547 cycles
LLC TOTAL       ACCESS:    5675340  HIT:    4849720  MISS:     825620  iACCESS:    2543975  iHIT:    2298062  iMISS:     245913  dACCESS:    3099386  dHIT:    2544942  dMISS:     554444  itACCESS:       9325  itHIT:       2989  itMISS:       6336  dtACCESS:      22654  dtHIT:       3727  dtMISS:      18927
LLC LOAD         ACCESS:    1579011  HIT:    1383464  MISS:     195547  iACCESS:     679514  iHIT:     627364  iMISS:      52150  dACCESS:     899497  dHIT:     756100  dMISS:     143397  itACCESS:          0  itHIT:          0  itMISS:          0  dtACCESS:          0  dtHIT:          0  dtMISS:          0
LLC RFO          ACCESS:     148841  HIT:     108869  MISS:      39972  iACCESS:          0  iHIT:          0  iMISS:          0  dACCESS:     148841  dHIT:     108869  dMISS:      39972  itACCESS:          0  itHIT:          0  itMISS:          0  dtACCESS:          0  dtHIT:          0  dtMISS:          0
LLC PREFETCH     ACCESS:    3656047  HIT:    3091209  MISS:     564838  iACCESS:    1864461  iHIT:    1670698  iMISS:     193763  dACCESS:    1791586  dHIT:    1420511  dMISS:     371075  itACCESS:          0  itHIT:          0  itMISS:          0  dtACCESS:          0  dtHIT:          0  dtMISS:          0
LLC WRITE        ACCESS:     259462  HIT:     259462  MISS:          0  iACCESS:          0  iHIT:          0  iMISS:          0  dACCESS:     259462  dHIT:     259462  dMISS:          0  itACCESS:          0  itHIT:          0  itMISS:          0  dtACCESS:          0  dtHIT:          0  dtMISS:          0
LLC TRANSLATION  ACCESS:      31979  HIT:       6716  MISS:      25263  iACCESS:          0  iHIT:          0  iMISS:          0  dACCESS:          0  dHIT:          0  dMISS:          0  itACCESS:       9325  itHIT:       2989  itMISS:       6336  dtACCESS:      22654  dtHIT:       3727  dtMISS:      18927
LLC PREFETCH  REQUESTED:          0  ISSUED:          0  CROSSED:          0  USEFUL:          0  USELESS:          0
LLC AVERAGE iMISS LATENCY: 43.884 cycles
LLC AVERAGE dMISS LATENCY: 110.455 cycles
LLC AVERAGE itMISS LATENCY: 1.32316 cycles
LLC AVERAGE dtMISS LATENCY: 4.09871 cycles
LLC PAGE CROSSINGS (TLB HIT):         0 
LLC PAGE CROSSINGS (TLB MISS):         0 
LLC AVERAGE MISS LATENCY: 159.761 cycles

PageTableWalker TOTAL       ACCESS:      83689  
PageTableWalker AVERAGE LATENCY: 4.10254 cycles
PageTableWalker TOTAL LATENCY: 343337 cycles

DRAM Statistics
Channel 0
 RQ ROW_BUFFER_HIT:     229620
  ROW_BUFFER_MISS:     595472
 AVG DBUS CONGESTED CYCLE:    3.63116
 WQ ROW_BUFFER_HIT:      22333
  ROW_BUFFER_MISS:      31813  FULL:          0

