last_page:0x200000000000000
VMEM_RES_CAP:0x100000
PAGE_SIZE:4096
LOG2_PAGE_SIZE:12
LOG2_PAGE_TABLE_SIZE:9
page_table_levels:5
WARNING: physical memory size is smaller than virtual memory size
FDiP enabled with aggresivity 16

*** ChampSim Multicore Out-of-Order Simulator ***

Warmup Instructions: 50000000
Simulation Instructions: 100000000
Number of CPUs: 1
Small page size: 4096
Large page size: 2097152

CPU 0 Bimodal branch predictor
Basic BTB sets: 1024 ways: 8 indirect buffer size: 4096 RAS size: 64
Instruction page size distrubution: 0
Loading instruction page size distribution from /home/bsc/bsc018186/scratch/itp_asplos25_AE/dump/srv171_ap.pdst
Data page size distrubution: 0
Loading data page size distribution from /home/bsc/bsc018186/scratch/itp_asplos25_AE/dump/srv171_ap.pdst
cpu0_L2C IP-based stride prefetcher
cpu0_L1D next line prefetcher
cpu0_STLB using iTP with max lru@8
cpu0_STLB using iTP with instr@0 and data@2
Init sat counter with 3 bits (max:50).
cpu0_L1I next line prefetcher
Off-chip DRAM Size: 4 GiB Channels: 1 Width: 64-bit Data Rate: 3200 MT/s
Heartbeat CPU 0 instructions: 10000001 cycles: 2502327 heartbeat IPC: 3.99629 cumulative IPC: 3.99629 (Simulation time: 0 hr 0 min 38 sec) 
Heartbeat CPU 0 instructions: 20000001 cycles: 5002513 heartbeat IPC: 3.99971 cumulative IPC: 3.998 (Simulation time: 0 hr 1 min 18 sec) 
Heartbeat CPU 0 instructions: 30000000 cycles: 7502688 heartbeat IPC: 3.99972 cumulative IPC: 3.99857 (Simulation time: 0 hr 1 min 59 sec) 
Heartbeat CPU 0 instructions: 40000002 cycles: 10002706 heartbeat IPC: 3.99998 cumulative IPC: 3.99892 (Simulation time: 0 hr 2 min 39 sec) 
Heartbeat CPU 0 instructions: 50000002 cycles: 12502706 heartbeat IPC: 4 cumulative IPC: 3.99914 (Simulation time: 0 hr 3 min 20 sec) 
Warmup finished CPU 0 instructions: 50000002 cycles: 12502707 cumulative IPC: 3.99914 (Simulation time: 0 hr 3 min 20 sec) 

Warmup complete CPU 0 instructions: 50000002 cycles: 12502707 (Simulation time: 0 hr 3 min 20 sec) 

Heartbeat CPU 0 instructions: 60000001 cycles: 26465492 heartbeat IPC: 0.71619 cumulative IPC: 0.71619 (Simulation time: 0 hr 4 min 23 sec) 
Heartbeat CPU 0 instructions: 70000004 cycles: 40351275 heartbeat IPC: 0.720162 cumulative IPC: 0.71817 (Simulation time: 0 hr 5 min 26 sec) 
Heartbeat CPU 0 instructions: 80000003 cycles: 54785635 heartbeat IPC: 0.692792 cumulative IPC: 0.709507 (Simulation time: 0 hr 6 min 31 sec) 
Heartbeat CPU 0 instructions: 90000000 cycles: 68786562 heartbeat IPC: 0.714239 cumulative IPC: 0.710684 (Simulation time: 0 hr 7 min 34 sec) 
Heartbeat CPU 0 instructions: 100000004 cycles: 83086214 heartbeat IPC: 0.699318 cumulative IPC: 0.708381 (Simulation time: 0 hr 8 min 37 sec) 
*** Reached end of trace: /gpfs/projects/bsc18/MN4/bsc18/romol/ChampSim/traces/qualcomm_srv/srv171_ap.champsimtrace.xz
Heartbeat CPU 0 instructions: 110000002 cycles: 97791438 heartbeat IPC: 0.680031 cumulative IPC: 0.703493 (Simulation time: 0 hr 9 min 41 sec) 
Heartbeat CPU 0 instructions: 120000003 cycles: 112783471 heartbeat IPC: 0.667022 cumulative IPC: 0.698041 (Simulation time: 0 hr 10 min 46 sec) 
Heartbeat CPU 0 instructions: 130000002 cycles: 126983387 heartbeat IPC: 0.70423 cumulative IPC: 0.698808 (Simulation time: 0 hr 11 min 50 sec) 
Heartbeat CPU 0 instructions: 140000004 cycles: 140500152 heartbeat IPC: 0.739823 cumulative IPC: 0.70314 (Simulation time: 0 hr 12 min 53 sec) 
Heartbeat CPU 0 instructions: 150000003 cycles: 154535250 heartbeat IPC: 0.7125 cumulative IPC: 0.704065 (Simulation time: 0 hr 13 min 56 sec) 
Simulation finished CPU 0 instructions: 100000001 cycles: 142032544 cumulative IPC: 0.704064 (Simulation time: 0 hr 13 min 56 sec) 

Simulation complete CPU 0 instructions: 100000001 cycles: 142032544 (Simulation time: 0 hr 13 min 56 sec) 


ChampSim completed all CPUs

Saving instructions large page distribution to /home/bsc/bsc018186/scratch/itp_asplos25_AE/dump/srv171_ap.pdst...
Saving data large page distribution to /home/bsc/bsc018186/scratch/itp_asplos25_AE/dump/srv171_ap.pdst...
=== Simulation ===
CPU 0 runs /gpfs/projects/bsc18/MN4/bsc18/romol/ChampSim/traces/qualcomm_srv/srv171_ap.champsimtrace.xz

Region of Interest Statistics

CPU 0 cumulative IPC: 0.704064 instructions: 100000001 cycles: 142032544
CPU 0 Branch Prediction Accuracy: 83.3635% MPKI: 29.7299 Average ROB Occupancy at Mispredict: 12.5628
Branch type MPKI
BRANCH_DIRECT_JUMP: 1.02615
BRANCH_INDIRECT: 15.295
BRANCH_CONDITIONAL: 9.72302
BRANCH_DIRECT_CALL: 1.84627
BRANCH_INDIRECT_CALL: 0.506
BRANCH_RETURN: 1.33345

Instructions large pages: 0
Instructions small pages: 1107
Large page distribution for instructions: 0%

Data large pages: 0
Data small pages: 10526
Large page distribution for data: 0%

cpu0_L1I TOTAL       ACCESS:   35018576  HIT:   26837151  MISS:    8181425  iACCESS:   35018576  iHIT:   26837151  iMISS:    8181425  dACCESS:          0  dHIT:          0  dMISS:          0  itACCESS:          0  itHIT:          0  itMISS:          0  dtACCESS:          0  dtHIT:          0  dtMISS:          0
cpu0_L1I LOAD         ACCESS:   10267778  HIT:    7978009  MISS:    2289769  iACCESS:   10267778  iHIT:    7978009  iMISS:    2289769  dACCESS:          0  dHIT:          0  dMISS:          0  itACCESS:          0  itHIT:          0  itMISS:          0  dtACCESS:          0  dtHIT:          0  dtMISS:          0
cpu0_L1I RFO          ACCESS:          0  HIT:          0  MISS:          0  iACCESS:          0  iHIT:          0  iMISS:          0  dACCESS:          0  dHIT:          0  dMISS:          0  itACCESS:          0  itHIT:          0  itMISS:          0  dtACCESS:          0  dtHIT:          0  dtMISS:          0
cpu0_L1I PREFETCH     ACCESS:   24750798  HIT:   18859142  MISS:    5891656  iACCESS:   24750798  iHIT:   18859142  iMISS:    5891656  dACCESS:          0  dHIT:          0  dMISS:          0  itACCESS:          0  itHIT:          0  itMISS:          0  dtACCESS:          0  dtHIT:          0  dtMISS:          0
cpu0_L1I WRITE        ACCESS:          0  HIT:          0  MISS:          0  iACCESS:          0  iHIT:          0  iMISS:          0  dACCESS:          0  dHIT:          0  dMISS:          0  itACCESS:          0  itHIT:          0  itMISS:          0  dtACCESS:          0  dtHIT:          0  dtMISS:          0
cpu0_L1I TRANSLATION  ACCESS:          0  HIT:          0  MISS:          0  iACCESS:          0  iHIT:          0  iMISS:          0  dACCESS:          0  dHIT:          0  dMISS:          0  itACCESS:          0  itHIT:          0  itMISS:          0  dtACCESS:          0  dtHIT:          0  dtMISS:          0
cpu0_L1I PREFETCH  REQUESTED:   27128748  ISSUED:   27127623  CROSSED:          0  USEFUL:    1882606  USELESS:     618902
cpu0_L1I AVERAGE iMISS LATENCY: 13.6808 cycles
cpu0_L1I AVERAGE dMISS LATENCY: 0 cycles
cpu0_L1I AVERAGE itMISS LATENCY: 0 cycles
cpu0_L1I AVERAGE dtMISS LATENCY: 0 cycles
cpu0_L1I PAGE CROSSINGS (TLB HIT):         0 
cpu0_L1I PAGE CROSSINGS (TLB MISS):         0 
cpu0_L1I AVERAGE MISS LATENCY: 13.6808 cycles
cpu0_ITLB TOTAL       ACCESS:   29029232  HIT:   27084768  MISS:    1944464  iACCESS:   29029232  iHIT:   27084768  iMISS:    1944464  dACCESS:          0  dHIT:          0  dMISS:          0  itACCESS:          0  itHIT:          0  itMISS:          0  dtACCESS:          0  dtHIT:          0  dtMISS:          0
cpu0_ITLB LOAD         ACCESS:   29029232  HIT:   27084768  MISS:    1944464  iACCESS:   29029232  iHIT:   27084768  iMISS:    1944464  dACCESS:          0  dHIT:          0  dMISS:          0  itACCESS:          0  itHIT:          0  itMISS:          0  dtACCESS:          0  dtHIT:          0  dtMISS:          0
cpu0_ITLB RFO          ACCESS:          0  HIT:          0  MISS:          0  iACCESS:          0  iHIT:          0  iMISS:          0  dACCESS:          0  dHIT:          0  dMISS:          0  itACCESS:          0  itHIT:          0  itMISS:          0  dtACCESS:          0  dtHIT:          0  dtMISS:          0
cpu0_ITLB PREFETCH     ACCESS:          0  HIT:          0  MISS:          0  iACCESS:          0  iHIT:          0  iMISS:          0  dACCESS:          0  dHIT:          0  dMISS:          0  itACCESS:          0  itHIT:          0  itMISS:          0  dtACCESS:          0  dtHIT:          0  dtMISS:          0
cpu0_ITLB WRITE        ACCESS:          0  HIT:          0  MISS:          0  iACCESS:          0  iHIT:          0  iMISS:          0  dACCESS:          0  dHIT:          0  dMISS:          0  itACCESS:          0  itHIT:          0  itMISS:          0  dtACCESS:          0  dtHIT:          0  dtMISS:          0
cpu0_ITLB TRANSLATION  ACCESS:          0  HIT:          0  MISS:          0  iACCESS:          0  iHIT:          0  iMISS:          0  dACCESS:          0  dHIT:          0  dMISS:          0  itACCESS:          0  itHIT:          0  itMISS:          0  dtACCESS:          0  dtHIT:          0  dtMISS:          0
cpu0_ITLB PREFETCH  REQUESTED:          0  ISSUED:          0  CROSSED:          0  USEFUL:     318476  USELESS:      65316
cpu0_ITLB AVERAGE iMISS LATENCY: 1.96736 cycles
cpu0_ITLB AVERAGE dMISS LATENCY: 0 cycles
cpu0_ITLB AVERAGE itMISS LATENCY: 0 cycles
cpu0_ITLB AVERAGE dtMISS LATENCY: 0 cycles
cpu0_ITLB PAGE CROSSINGS (TLB HIT):         0 
cpu0_ITLB PAGE CROSSINGS (TLB MISS):         0 
cpu0_ITLB AVERAGE MISS LATENCY: 1.96736 cycles
cpu0_DTLB TOTAL       ACCESS:   27711990  HIT:   25641100  MISS:    2070890  iACCESS:          0  iHIT:          0  iMISS:          0  dACCESS:   27711990  dHIT:   25641100  dMISS:    2070890  itACCESS:          0  itHIT:          0  itMISS:          0  dtACCESS:          0  dtHIT:          0  dtMISS:          0
cpu0_DTLB LOAD         ACCESS:   27711990  HIT:   25641100  MISS:    2070890  iACCESS:          0  iHIT:          0  iMISS:          0  dACCESS:   27711990  dHIT:   25641100  dMISS:    2070890  itACCESS:          0  itHIT:          0  itMISS:          0  dtACCESS:          0  dtHIT:          0  dtMISS:          0
cpu0_DTLB RFO          ACCESS:          0  HIT:          0  MISS:          0  iACCESS:          0  iHIT:          0  iMISS:          0  dACCESS:          0  dHIT:          0  dMISS:          0  itACCESS:          0  itHIT:          0  itMISS:          0  dtACCESS:          0  dtHIT:          0  dtMISS:          0
cpu0_DTLB PREFETCH     ACCESS:          0  HIT:          0  MISS:          0  iACCESS:          0  iHIT:          0  iMISS:          0  dACCESS:          0  dHIT:          0  dMISS:          0  itACCESS:          0  itHIT:          0  itMISS:          0  dtACCESS:          0  dtHIT:          0  dtMISS:          0
cpu0_DTLB WRITE        ACCESS:          0  HIT:          0  MISS:          0  iACCESS:          0  iHIT:          0  iMISS:          0  dACCESS:          0  dHIT:          0  dMISS:          0  itACCESS:          0  itHIT:          0  itMISS:          0  dtACCESS:          0  dtHIT:          0  dtMISS:          0
cpu0_DTLB TRANSLATION  ACCESS:          0  HIT:          0  MISS:          0  iACCESS:          0  iHIT:          0  iMISS:          0  dACCESS:          0  dHIT:          0  dMISS:          0  itACCESS:          0  itHIT:          0  itMISS:          0  dtACCESS:          0  dtHIT:          0  dtMISS:          0
cpu0_DTLB PREFETCH  REQUESTED:          0  ISSUED:          0  CROSSED:          0  USEFUL:          0  USELESS:          0
cpu0_DTLB AVERAGE iMISS LATENCY: 0 cycles
cpu0_DTLB AVERAGE dMISS LATENCY: 11.613 cycles
cpu0_DTLB AVERAGE itMISS LATENCY: 0 cycles
cpu0_DTLB AVERAGE dtMISS LATENCY: 0 cycles
cpu0_DTLB PAGE CROSSINGS (TLB HIT):         0 
cpu0_DTLB PAGE CROSSINGS (TLB MISS):         0 
cpu0_DTLB AVERAGE MISS LATENCY: 11.613 cycles
cpu0_STLB TOTAL       ACCESS:    1609858  HIT:    1461831  MISS:     148027  iACCESS:     383807  iHIT:     375182  iMISS:       8625  dACCESS:    1226051  dHIT:    1086649  dMISS:     139402  itACCESS:          0  itHIT:          0  itMISS:          0  dtACCESS:          0  dtHIT:          0  dtMISS:          0
cpu0_STLB LOAD         ACCESS:    1609858  HIT:    1461831  MISS:     148027  iACCESS:     383807  iHIT:     375182  iMISS:       8625  dACCESS:    1226051  dHIT:    1086649  dMISS:     139402  itACCESS:          0  itHIT:          0  itMISS:          0  dtACCESS:          0  dtHIT:          0  dtMISS:          0
cpu0_STLB RFO          ACCESS:          0  HIT:          0  MISS:          0  iACCESS:          0  iHIT:          0  iMISS:          0  dACCESS:          0  dHIT:          0  dMISS:          0  itACCESS:          0  itHIT:          0  itMISS:          0  dtACCESS:          0  dtHIT:          0  dtMISS:          0
cpu0_STLB PREFETCH     ACCESS:          0  HIT:          0  MISS:          0  iACCESS:          0  iHIT:          0  iMISS:          0  dACCESS:          0  dHIT:          0  dMISS:          0  itACCESS:          0  itHIT:          0  itMISS:          0  dtACCESS:          0  dtHIT:          0  dtMISS:          0
cpu0_STLB WRITE        ACCESS:          0  HIT:          0  MISS:          0  iACCESS:          0  iHIT:          0  iMISS:          0  dACCESS:          0  dHIT:          0  dMISS:          0  itACCESS:          0  itHIT:          0  itMISS:          0  dtACCESS:          0  dtHIT:          0  dtMISS:          0
cpu0_STLB TRANSLATION  ACCESS:          0  HIT:          0  MISS:          0  iACCESS:          0  iHIT:          0  iMISS:          0  dACCESS:          0  dHIT:          0  dMISS:          0  itACCESS:          0  itHIT:          0  itMISS:          0  dtACCESS:          0  dtHIT:          0  dtMISS:          0
cpu0_STLB PREFETCH  REQUESTED:          0  ISSUED:          0  CROSSED:          0  USEFUL:          0  USELESS:          0
cpu0_STLB AVERAGE iMISS LATENCY: 5.73016 cycles
cpu0_STLB AVERAGE dMISS LATENCY: 96.2616 cycles
cpu0_STLB AVERAGE itMISS LATENCY: 0 cycles
cpu0_STLB AVERAGE dtMISS LATENCY: 0 cycles
cpu0_STLB PAGE CROSSINGS (TLB HIT):         0 
cpu0_STLB PAGE CROSSINGS (TLB MISS):         0 
cpu0_STLB AVERAGE MISS LATENCY: 101.992 cycles
cpu0_L1D TOTAL       ACCESS:   41526758  HIT:   38019853  MISS:    3506905  iACCESS:          0  iHIT:          0  iMISS:          0  dACCESS:   41306109  dHIT:   38004892  dMISS:    3301217  itACCESS:      10512  itHIT:       1183  itMISS:       9329  dtACCESS:     210137  dtHIT:      13778  dtMISS:     196359
cpu0_L1D LOAD         ACCESS:   18951623  HIT:   17442328  MISS:    1509295  iACCESS:          0  iHIT:          0  iMISS:          0  dACCESS:   18951623  dHIT:   17442328  dMISS:    1509295  itACCESS:          0  itHIT:          0  itMISS:          0  dtACCESS:          0  dtHIT:          0  dtMISS:          0
cpu0_L1D RFO          ACCESS:          0  HIT:          0  MISS:          0  iACCESS:          0  iHIT:          0  iMISS:          0  dACCESS:          0  dHIT:          0  dMISS:          0  itACCESS:          0  itHIT:          0  itMISS:          0  dtACCESS:          0  dtHIT:          0  dtMISS:          0
cpu0_L1D PREFETCH     ACCESS:   12186988  HIT:   10819907  MISS:    1367081  iACCESS:          0  iHIT:          0  iMISS:          0  dACCESS:   12186988  dHIT:   10819907  dMISS:    1367081  itACCESS:          0  itHIT:          0  itMISS:          0  dtACCESS:          0  dtHIT:          0  dtMISS:          0
cpu0_L1D WRITE        ACCESS:   10167498  HIT:    9742657  MISS:     424841  iACCESS:          0  iHIT:          0  iMISS:          0  dACCESS:   10167498  dHIT:    9742657  dMISS:     424841  itACCESS:          0  itHIT:          0  itMISS:          0  dtACCESS:          0  dtHIT:          0  dtMISS:          0
cpu0_L1D TRANSLATION  ACCESS:     220649  HIT:      14961  MISS:     205688  iACCESS:          0  iHIT:          0  iMISS:          0  dACCESS:          0  dHIT:          0  dMISS:          0  itACCESS:      10512  itHIT:       1183  itMISS:       9329  dtACCESS:     210137  dtHIT:      13778  dtMISS:     196359
cpu0_L1D PREFETCH  REQUESTED:   18951623  ISSUED:   17054033  CROSSED:          0  USEFUL:     304516  USELESS:     692954
cpu0_L1D AVERAGE iMISS LATENCY: 0 cycles
cpu0_L1D AVERAGE dMISS LATENCY: 34.0252 cycles
cpu0_L1D AVERAGE itMISS LATENCY: 0.215787 cycles
cpu0_L1D AVERAGE dtMISS LATENCY: 3.2198 cycles
cpu0_L1D PAGE CROSSINGS (TLB HIT):         0 
cpu0_L1D PAGE CROSSINGS (TLB MISS):         0 
cpu0_L1D AVERAGE MISS LATENCY: 37.4607 cycles
cpu0_L2C TOTAL       ACCESS:    6873076  HIT:    1622970  MISS:    5250106  iACCESS:    3241473  iHIT:     845052  iMISS:    2396421  dACCESS:    3436046  dHIT:     677856  dMISS:    2758190  itACCESS:       9329  itHIT:       4466  itMISS:       4863  dtACCESS:     186228  dtHIT:      95596  dtMISS:      90632
cpu0_L2C LOAD         ACCESS:    1695459  HIT:     290230  MISS:    1405229  iACCESS:     773398  iHIT:     149648  iMISS:     623750  dACCESS:     922061  dHIT:     140582  dMISS:     781479  itACCESS:          0  itHIT:          0  itMISS:          0  dtACCESS:          0  dtHIT:          0  dtMISS:          0
cpu0_L2C RFO          ACCESS:     156234  HIT:      47717  MISS:     108517  iACCESS:          0  iHIT:          0  iMISS:          0  dACCESS:     156234  dHIT:      47717  dMISS:     108517  itACCESS:          0  itHIT:          0  itMISS:          0  dtACCESS:          0  dtHIT:          0  dtMISS:          0
cpu0_L2C PREFETCH     ACCESS:    4543857  HIT:    1054515  MISS:    3489342  iACCESS:    2468075  iHIT:     695404  iMISS:    1772671  dACCESS:    2075782  dHIT:     359111  dMISS:    1716671  itACCESS:          0  itHIT:          0  itMISS:          0  dtACCESS:          0  dtHIT:          0  dtMISS:          0
cpu0_L2C WRITE        ACCESS:     281969  HIT:     130446  MISS:     151523  iACCESS:          0  iHIT:          0  iMISS:          0  dACCESS:     281969  dHIT:     130446  dMISS:     151523  itACCESS:          0  itHIT:          0  itMISS:          0  dtACCESS:          0  dtHIT:          0  dtMISS:          0
cpu0_L2C TRANSLATION  ACCESS:     195557  HIT:     100062  MISS:      95495  iACCESS:          0  iHIT:          0  iMISS:          0  dACCESS:          0  dHIT:          0  dMISS:          0  itACCESS:       9329  itHIT:       4466  itMISS:       4863  dtACCESS:     186228  dtHIT:      95596  dtMISS:      90632
cpu0_L2C PREFETCH  REQUESTED:    1325046  ISSUED:    1325046  CROSSED:          0  USEFUL:     386368  USELESS:     366930
cpu0_L2C AVERAGE iMISS LATENCY: 15.6263 cycles
cpu0_L2C AVERAGE dMISS LATENCY: 26.3006 cycles
cpu0_L2C AVERAGE itMISS LATENCY: 0.127195 cycles
cpu0_L2C AVERAGE dtMISS LATENCY: 1.81231 cycles
cpu0_L2C PAGE CROSSINGS (TLB HIT):         0 
cpu0_L2C PAGE CROSSINGS (TLB MISS):         0 
cpu0_L2C AVERAGE MISS LATENCY: 43.8664 cycles
LLC TOTAL       ACCESS:    5130951  HIT:    4276025  MISS:     854926  iACCESS:    2343285  iHIT:    2091100  iMISS:     252185  dACCESS:    2692171  dHIT:    2136482  dMISS:     555689  itACCESS:       4863  itHIT:       1581  itMISS:       3282  dtACCESS:      90632  dtHIT:      46862  dtMISS:      43770
LLC LOAD         ACCESS:    1403016  HIT:    1208638  MISS:     194378  iACCESS:     622561  iHIT:     569838  iMISS:      52723  dACCESS:     780455  dHIT:     638800  dMISS:     141655  itACCESS:          0  itHIT:          0  itMISS:          0  dtACCESS:          0  dtHIT:          0  dtMISS:          0
LLC RFO          ACCESS:     108515  HIT:      73785  MISS:      34730  iACCESS:          0  iHIT:          0  iMISS:          0  dACCESS:     108515  dHIT:      73785  dMISS:      34730  itACCESS:          0  itHIT:          0  itMISS:          0  dtACCESS:          0  dtHIT:          0  dtMISS:          0
LLC PREFETCH     ACCESS:    3381744  HIT:    2812076  MISS:     569668  iACCESS:    1720724  iHIT:    1521262  iMISS:     199462  dACCESS:    1661020  dHIT:    1290814  dMISS:     370206  itACCESS:          0  itHIT:          0  itMISS:          0  dtACCESS:          0  dtHIT:          0  dtMISS:          0
LLC WRITE        ACCESS:     142181  HIT:     133083  MISS:       9098  iACCESS:          0  iHIT:          0  iMISS:          0  dACCESS:     142181  dHIT:     133083  dMISS:       9098  itACCESS:          0  itHIT:          0  itMISS:          0  dtACCESS:          0  dtHIT:          0  dtMISS:          0
LLC TRANSLATION  ACCESS:      95495  HIT:      48443  MISS:      47052  iACCESS:          0  iHIT:          0  iMISS:          0  dACCESS:          0  dHIT:          0  dMISS:          0  itACCESS:       4863  itHIT:       1581  itMISS:       3282  dtACCESS:      90632  dtHIT:      46862  dtMISS:      43770
LLC PREFETCH  REQUESTED:          0  ISSUED:          0  CROSSED:          0  USEFUL:          0  USELESS:          0
LLC AVERAGE iMISS LATENCY: 43.086 cycles
LLC AVERAGE dMISS LATENCY: 103.993 cycles
LLC AVERAGE itMISS LATENCY: 0.669465 cycles
LLC AVERAGE dtMISS LATENCY: 9.06525 cycles
LLC PAGE CROSSINGS (TLB HIT):         0 
LLC PAGE CROSSINGS (TLB MISS):         0 
LLC AVERAGE MISS LATENCY: 156.814 cycles

PageTableWalker TOTAL       ACCESS:      72338  
PageTableWalker AVERAGE LATENCY: 5.23221 cycles
PageTableWalker TOTAL LATENCY: 378487 cycles

DRAM Statistics
Channel 0
 RQ ROW_BUFFER_HIT:     236775
  ROW_BUFFER_MISS:     608279
 AVG DBUS CONGESTED CYCLE:    3.62364
 WQ ROW_BUFFER_HIT:      17108
  ROW_BUFFER_MISS:      21989  FULL:          0

