last_page:0x200000000000000
VMEM_RES_CAP:0x100000
PAGE_SIZE:4096
LOG2_PAGE_SIZE:12
LOG2_PAGE_TABLE_SIZE:9
page_table_levels:5
WARNING: physical memory size is smaller than virtual memory size
FDiP enabled with aggresivity 16

*** ChampSim Multicore Out-of-Order Simulator ***

Warmup Instructions: 50000000
Simulation Instructions: 100000000
Number of CPUs: 1
Small page size: 4096
Large page size: 2097152

CPU 0 Bimodal branch predictor
Basic BTB sets: 1024 ways: 8 indirect buffer size: 4096 RAS size: 64
Instruction page size distrubution: 0
Loading instruction page size distribution from /home/bsc/bsc018186/scratch/itp_asplos25_AE/dump/srv151_ap.pdst
Data page size distrubution: 0
Loading data page size distribution from /home/bsc/bsc018186/scratch/itp_asplos25_AE/dump/srv151_ap.pdst
cpu0_L2C IP-based stride prefetcher
cpu0_L1D next line prefetcher
CHiRPing...
cpu0_L1I next line prefetcher
Off-chip DRAM Size: 4 GiB Channels: 1 Width: 64-bit Data Rate: 3200 MT/s
Heartbeat CPU 0 instructions: 10000003 cycles: 2500227 heartbeat IPC: 3.99964 cumulative IPC: 3.99964 (Simulation time: 0 hr 0 min 39 sec) 
Heartbeat CPU 0 instructions: 20000003 cycles: 5000228 heartbeat IPC: 4 cumulative IPC: 3.99982 (Simulation time: 0 hr 1 min 20 sec) 
Heartbeat CPU 0 instructions: 30000002 cycles: 7500242 heartbeat IPC: 3.99998 cumulative IPC: 3.99988 (Simulation time: 0 hr 2 min 1 sec) 
Heartbeat CPU 0 instructions: 40000003 cycles: 10000321 heartbeat IPC: 3.99988 cumulative IPC: 3.99988 (Simulation time: 0 hr 2 min 42 sec) 
Heartbeat CPU 0 instructions: 50000002 cycles: 12500372 heartbeat IPC: 3.99992 cumulative IPC: 3.99989 (Simulation time: 0 hr 3 min 24 sec) 
Warmup finished CPU 0 instructions: 50000002 cycles: 12500373 cumulative IPC: 3.99989 (Simulation time: 0 hr 3 min 24 sec) 

Warmup complete CPU 0 instructions: 50000002 cycles: 12500373 (Simulation time: 0 hr 3 min 24 sec) 

Heartbeat CPU 0 instructions: 60000000 cycles: 27275148 heartbeat IPC: 0.67683 cumulative IPC: 0.67683 (Simulation time: 0 hr 4 min 30 sec) 
Heartbeat CPU 0 instructions: 70000002 cycles: 41896326 heartbeat IPC: 0.68394 cumulative IPC: 0.680366 (Simulation time: 0 hr 5 min 35 sec) 
Heartbeat CPU 0 instructions: 80000002 cycles: 55373585 heartbeat IPC: 0.741991 cumulative IPC: 0.699738 (Simulation time: 0 hr 6 min 39 sec) 
Heartbeat CPU 0 instructions: 90000000 cycles: 69217377 heartbeat IPC: 0.722346 cumulative IPC: 0.705256 (Simulation time: 0 hr 7 min 43 sec) 
Heartbeat CPU 0 instructions: 100000000 cycles: 83020234 heartbeat IPC: 0.724488 cumulative IPC: 0.709021 (Simulation time: 0 hr 8 min 47 sec) 
*** Reached end of trace: /gpfs/projects/bsc18/MN4/bsc18/romol/ChampSim/traces/qualcomm_srv/srv151_ap.champsimtrace.xz
Heartbeat CPU 0 instructions: 110000003 cycles: 96975120 heartbeat IPC: 0.716596 cumulative IPC: 0.710272 (Simulation time: 0 hr 9 min 52 sec) 
Heartbeat CPU 0 instructions: 120000002 cycles: 110827785 heartbeat IPC: 0.721883 cumulative IPC: 0.711908 (Simulation time: 0 hr 10 min 56 sec) 
Heartbeat CPU 0 instructions: 130000000 cycles: 125072625 heartbeat IPC: 0.702009 cumulative IPC: 0.710655 (Simulation time: 0 hr 12 min 1 sec) 
Heartbeat CPU 0 instructions: 140000003 cycles: 138978555 heartbeat IPC: 0.719118 cumulative IPC: 0.711586 (Simulation time: 0 hr 13 min 5 sec) 
Heartbeat CPU 0 instructions: 150000002 cycles: 153263208 heartbeat IPC: 0.700052 cumulative IPC: 0.710415 (Simulation time: 0 hr 14 min 11 sec) 
Simulation finished CPU 0 instructions: 100000000 cycles: 140762836 cumulative IPC: 0.710415 (Simulation time: 0 hr 14 min 11 sec) 

Simulation complete CPU 0 instructions: 100000000 cycles: 140762836 (Simulation time: 0 hr 14 min 11 sec) 


ChampSim completed all CPUs

Saving instructions large page distribution to /home/bsc/bsc018186/scratch/itp_asplos25_AE/dump/srv151_ap.pdst...
Saving data large page distribution to /home/bsc/bsc018186/scratch/itp_asplos25_AE/dump/srv151_ap.pdst...
=== Simulation ===
CPU 0 runs /gpfs/projects/bsc18/MN4/bsc18/romol/ChampSim/traces/qualcomm_srv/srv151_ap.champsimtrace.xz

Region of Interest Statistics

CPU 0 cumulative IPC: 0.710415 instructions: 100000000 cycles: 140762836
CPU 0 Branch Prediction Accuracy: 83.2513% MPKI: 30.0025 Average ROB Occupancy at Mispredict: 13.0619
Branch type MPKI
BRANCH_DIRECT_JUMP: 1.01975
BRANCH_INDIRECT: 15.6431
BRANCH_CONDITIONAL: 9.67631
BRANCH_DIRECT_CALL: 1.83278
BRANCH_INDIRECT_CALL: 0.503921
BRANCH_RETURN: 1.32666

Instructions large pages: 0
Instructions small pages: 11188
Large page distribution for instructions: 0%

Data large pages: 0
Data small pages: 10219
Large page distribution for data: 0%

cpu0_L1I TOTAL       ACCESS:   35298860  HIT:   27037760  MISS:    8261100  iACCESS:   35298860  iHIT:   27037760  iMISS:    8261100  dACCESS:          0  dHIT:          0  dMISS:          0  itACCESS:          0  itHIT:          0  itMISS:          0  dtACCESS:          0  dtHIT:          0  dtMISS:          0
cpu0_L1I LOAD         ACCESS:   10382084  HIT:    8067018  MISS:    2315066  iACCESS:   10382084  iHIT:    8067018  iMISS:    2315066  dACCESS:          0  dHIT:          0  dMISS:          0  itACCESS:          0  itHIT:          0  itMISS:          0  dtACCESS:          0  dtHIT:          0  dtMISS:          0
cpu0_L1I RFO          ACCESS:          0  HIT:          0  MISS:          0  iACCESS:          0  iHIT:          0  iMISS:          0  dACCESS:          0  dHIT:          0  dMISS:          0  itACCESS:          0  itHIT:          0  itMISS:          0  dtACCESS:          0  dtHIT:          0  dtMISS:          0
cpu0_L1I PREFETCH     ACCESS:   24916776  HIT:   18970742  MISS:    5946034  iACCESS:   24916776  iHIT:   18970742  iMISS:    5946034  dACCESS:          0  dHIT:          0  dMISS:          0  itACCESS:          0  itHIT:          0  itMISS:          0  dtACCESS:          0  dtHIT:          0  dtMISS:          0
cpu0_L1I WRITE        ACCESS:          0  HIT:          0  MISS:          0  iACCESS:          0  iHIT:          0  iMISS:          0  dACCESS:          0  dHIT:          0  dMISS:          0  itACCESS:          0  itHIT:          0  itMISS:          0  dtACCESS:          0  dtHIT:          0  dtMISS:          0
cpu0_L1I TRANSLATION  ACCESS:          0  HIT:          0  MISS:          0  iACCESS:          0  iHIT:          0  iMISS:          0  dACCESS:          0  dHIT:          0  dMISS:          0  itACCESS:          0  itHIT:          0  itMISS:          0  dtACCESS:          0  dtHIT:          0  dtMISS:          0
cpu0_L1I PREFETCH  REQUESTED:   27306430  ISSUED:   27304534  CROSSED:          0  USEFUL:    1889845  USELESS:     621954
cpu0_L1I AVERAGE iMISS LATENCY: 13.3328 cycles
cpu0_L1I AVERAGE dMISS LATENCY: 0 cycles
cpu0_L1I AVERAGE itMISS LATENCY: 0 cycles
cpu0_L1I AVERAGE dtMISS LATENCY: 0 cycles
cpu0_L1I PAGE CROSSINGS (TLB HIT):         0 
cpu0_L1I PAGE CROSSINGS (TLB MISS):         0 
cpu0_L1I AVERAGE MISS LATENCY: 13.3328 cycles
cpu0_ITLB TOTAL       ACCESS:   29203072  HIT:   27245410  MISS:    1957662  iACCESS:   29203072  iHIT:   27245410  iMISS:    1957662  dACCESS:          0  dHIT:          0  dMISS:          0  itACCESS:          0  itHIT:          0  itMISS:          0  dtACCESS:          0  dtHIT:          0  dtMISS:          0
cpu0_ITLB LOAD         ACCESS:   29203072  HIT:   27245410  MISS:    1957662  iACCESS:   29203072  iHIT:   27245410  iMISS:    1957662  dACCESS:          0  dHIT:          0  dMISS:          0  itACCESS:          0  itHIT:          0  itMISS:          0  dtACCESS:          0  dtHIT:          0  dtMISS:          0
cpu0_ITLB RFO          ACCESS:          0  HIT:          0  MISS:          0  iACCESS:          0  iHIT:          0  iMISS:          0  dACCESS:          0  dHIT:          0  dMISS:          0  itACCESS:          0  itHIT:          0  itMISS:          0  dtACCESS:          0  dtHIT:          0  dtMISS:          0
cpu0_ITLB PREFETCH     ACCESS:          0  HIT:          0  MISS:          0  iACCESS:          0  iHIT:          0  iMISS:          0  dACCESS:          0  dHIT:          0  dMISS:          0  itACCESS:          0  itHIT:          0  itMISS:          0  dtACCESS:          0  dtHIT:          0  dtMISS:          0
cpu0_ITLB WRITE        ACCESS:          0  HIT:          0  MISS:          0  iACCESS:          0  iHIT:          0  iMISS:          0  dACCESS:          0  dHIT:          0  dMISS:          0  itACCESS:          0  itHIT:          0  itMISS:          0  dtACCESS:          0  dtHIT:          0  dtMISS:          0
cpu0_ITLB TRANSLATION  ACCESS:          0  HIT:          0  MISS:          0  iACCESS:          0  iHIT:          0  iMISS:          0  dACCESS:          0  dHIT:          0  dMISS:          0  itACCESS:          0  itHIT:          0  itMISS:          0  dtACCESS:          0  dtHIT:          0  dtMISS:          0
cpu0_ITLB PREFETCH  REQUESTED:          0  ISSUED:          0  CROSSED:          0  USEFUL:     319958  USELESS:      65938
cpu0_ITLB AVERAGE iMISS LATENCY: 3.10338 cycles
cpu0_ITLB AVERAGE dMISS LATENCY: 0 cycles
cpu0_ITLB AVERAGE itMISS LATENCY: 0 cycles
cpu0_ITLB AVERAGE dtMISS LATENCY: 0 cycles
cpu0_ITLB PAGE CROSSINGS (TLB HIT):         0 
cpu0_ITLB PAGE CROSSINGS (TLB MISS):         0 
cpu0_ITLB AVERAGE MISS LATENCY: 3.10338 cycles
cpu0_DTLB TOTAL       ACCESS:   27858511  HIT:   25835216  MISS:    2023295  iACCESS:          0  iHIT:          0  iMISS:          0  dACCESS:   27858511  dHIT:   25835216  dMISS:    2023295  itACCESS:          0  itHIT:          0  itMISS:          0  dtACCESS:          0  dtHIT:          0  dtMISS:          0
cpu0_DTLB LOAD         ACCESS:   27858511  HIT:   25835216  MISS:    2023295  iACCESS:          0  iHIT:          0  iMISS:          0  dACCESS:   27858511  dHIT:   25835216  dMISS:    2023295  itACCESS:          0  itHIT:          0  itMISS:          0  dtACCESS:          0  dtHIT:          0  dtMISS:          0
cpu0_DTLB RFO          ACCESS:          0  HIT:          0  MISS:          0  iACCESS:          0  iHIT:          0  iMISS:          0  dACCESS:          0  dHIT:          0  dMISS:          0  itACCESS:          0  itHIT:          0  itMISS:          0  dtACCESS:          0  dtHIT:          0  dtMISS:          0
cpu0_DTLB PREFETCH     ACCESS:          0  HIT:          0  MISS:          0  iACCESS:          0  iHIT:          0  iMISS:          0  dACCESS:          0  dHIT:          0  dMISS:          0  itACCESS:          0  itHIT:          0  itMISS:          0  dtACCESS:          0  dtHIT:          0  dtMISS:          0
cpu0_DTLB WRITE        ACCESS:          0  HIT:          0  MISS:          0  iACCESS:          0  iHIT:          0  iMISS:          0  dACCESS:          0  dHIT:          0  dMISS:          0  itACCESS:          0  itHIT:          0  itMISS:          0  dtACCESS:          0  dtHIT:          0  dtMISS:          0
cpu0_DTLB TRANSLATION  ACCESS:          0  HIT:          0  MISS:          0  iACCESS:          0  iHIT:          0  iMISS:          0  dACCESS:          0  dHIT:          0  dMISS:          0  itACCESS:          0  itHIT:          0  itMISS:          0  dtACCESS:          0  dtHIT:          0  dtMISS:          0
cpu0_DTLB PREFETCH  REQUESTED:          0  ISSUED:          0  CROSSED:          0  USEFUL:          0  USELESS:          0
cpu0_DTLB AVERAGE iMISS LATENCY: 0 cycles
cpu0_DTLB AVERAGE dMISS LATENCY: 10.2532 cycles
cpu0_DTLB AVERAGE itMISS LATENCY: 0 cycles
cpu0_DTLB AVERAGE dtMISS LATENCY: 0 cycles
cpu0_DTLB PAGE CROSSINGS (TLB HIT):         0 
cpu0_DTLB PAGE CROSSINGS (TLB MISS):         0 
cpu0_DTLB AVERAGE MISS LATENCY: 10.2532 cycles
cpu0_STLB TOTAL       ACCESS:    1619577  HIT:    1446832  MISS:     172745  iACCESS:     385905  iHIT:     323004  iMISS:      62901  dACCESS:    1233672  dHIT:    1123828  dMISS:     109844  itACCESS:          0  itHIT:          0  itMISS:          0  dtACCESS:          0  dtHIT:          0  dtMISS:          0
cpu0_STLB LOAD         ACCESS:    1619577  HIT:    1446832  MISS:     172745  iACCESS:     385905  iHIT:     323004  iMISS:      62901  dACCESS:    1233672  dHIT:    1123828  dMISS:     109844  itACCESS:          0  itHIT:          0  itMISS:          0  dtACCESS:          0  dtHIT:          0  dtMISS:          0
cpu0_STLB RFO          ACCESS:          0  HIT:          0  MISS:          0  iACCESS:          0  iHIT:          0  iMISS:          0  dACCESS:          0  dHIT:          0  dMISS:          0  itACCESS:          0  itHIT:          0  itMISS:          0  dtACCESS:          0  dtHIT:          0  dtMISS:          0
cpu0_STLB PREFETCH     ACCESS:          0  HIT:          0  MISS:          0  iACCESS:          0  iHIT:          0  iMISS:          0  dACCESS:          0  dHIT:          0  dMISS:          0  itACCESS:          0  itHIT:          0  itMISS:          0  dtACCESS:          0  dtHIT:          0  dtMISS:          0
cpu0_STLB WRITE        ACCESS:          0  HIT:          0  MISS:          0  iACCESS:          0  iHIT:          0  iMISS:          0  dACCESS:          0  dHIT:          0  dMISS:          0  itACCESS:          0  itHIT:          0  itMISS:          0  dtACCESS:          0  dtHIT:          0  dtMISS:          0
cpu0_STLB TRANSLATION  ACCESS:          0  HIT:          0  MISS:          0  iACCESS:          0  iHIT:          0  iMISS:          0  dACCESS:          0  dHIT:          0  dMISS:          0  itACCESS:          0  itHIT:          0  itMISS:          0  dtACCESS:          0  dtHIT:          0  dtMISS:          0
cpu0_STLB PREFETCH  REQUESTED:          0  ISSUED:          0  CROSSED:          0  USEFUL:          0  USELESS:          0
cpu0_STLB AVERAGE iMISS LATENCY: 17.4948 cycles
cpu0_STLB AVERAGE dMISS LATENCY: 63.0813 cycles
cpu0_STLB AVERAGE itMISS LATENCY: 0 cycles
cpu0_STLB AVERAGE dtMISS LATENCY: 0 cycles
cpu0_STLB PAGE CROSSINGS (TLB HIT):         0 
cpu0_STLB PAGE CROSSINGS (TLB MISS):         0 
cpu0_STLB AVERAGE MISS LATENCY: 80.5761 cycles
cpu0_L1D TOTAL       ACCESS:   41577725  HIT:   38176937  MISS:    3400788  iACCESS:          0  iHIT:          0  iMISS:          0  dACCESS:   41346335  dHIT:   38155930  dMISS:    3190405  itACCESS:      68400  itHIT:       9729  itMISS:      58671  dtACCESS:     162990  dtHIT:      11278  dtMISS:     151712
cpu0_L1D LOAD         ACCESS:   19022690  HIT:   17565078  MISS:    1457612  iACCESS:          0  iHIT:          0  iMISS:          0  dACCESS:   19022690  dHIT:   17565078  dMISS:    1457612  itACCESS:          0  itHIT:          0  itMISS:          0  dtACCESS:          0  dtHIT:          0  dtMISS:          0
cpu0_L1D RFO          ACCESS:          0  HIT:          0  MISS:          0  iACCESS:          0  iHIT:          0  iMISS:          0  dACCESS:          0  dHIT:          0  dMISS:          0  itACCESS:          0  itHIT:          0  itMISS:          0  dtACCESS:          0  dtHIT:          0  dtMISS:          0
cpu0_L1D PREFETCH     ACCESS:   12156556  HIT:   10840740  MISS:    1315816  iACCESS:          0  iHIT:          0  iMISS:          0  dACCESS:   12156556  dHIT:   10840740  dMISS:    1315816  itACCESS:          0  itHIT:          0  itMISS:          0  dtACCESS:          0  dtHIT:          0  dtMISS:          0
cpu0_L1D WRITE        ACCESS:   10167089  HIT:    9750112  MISS:     416977  iACCESS:          0  iHIT:          0  iMISS:          0  dACCESS:   10167089  dHIT:    9750112  dMISS:     416977  itACCESS:          0  itHIT:          0  itMISS:          0  dtACCESS:          0  dtHIT:          0  dtMISS:          0
cpu0_L1D TRANSLATION  ACCESS:     231390  HIT:      21007  MISS:     210383  iACCESS:          0  iHIT:          0  iMISS:          0  dACCESS:          0  dHIT:          0  dMISS:          0  itACCESS:      68400  itHIT:       9729  itMISS:      58671  dtACCESS:     162990  dtHIT:      11278  dtMISS:     151712
cpu0_L1D PREFETCH  REQUESTED:   19022690  ISSUED:   16996335  CROSSED:          0  USEFUL:     303577  USELESS:     691926
cpu0_L1D AVERAGE iMISS LATENCY: 0 cycles
cpu0_L1D AVERAGE dMISS LATENCY: 34.0947 cycles
cpu0_L1D AVERAGE itMISS LATENCY: 0.729236 cycles
cpu0_L1D AVERAGE dtMISS LATENCY: 2.47614 cycles
cpu0_L1D PAGE CROSSINGS (TLB HIT):         0 
cpu0_L1D PAGE CROSSINGS (TLB MISS):         0 
cpu0_L1D AVERAGE MISS LATENCY: 37.3 cycles
cpu0_L2C TOTAL       ACCESS:    6888303  HIT:    1681780  MISS:    5206523  iACCESS:    3257128  iHIT:     860897  iMISS:    2396231  dACCESS:    3427313  dHIT:     701641  dMISS:    2725672  itACCESS:      58671  itHIT:      42954  itMISS:      15717  dtACCESS:     145191  dtHIT:      76288  dtMISS:      68903
cpu0_L2C LOAD         ACCESS:    1698528  HIT:     305164  MISS:    1393364  iACCESS:     779354  iHIT:     154956  iMISS:     624398  dACCESS:     919174  dHIT:     150208  dMISS:     768966  itACCESS:          0  itHIT:          0  itMISS:          0  dtACCESS:          0  dtHIT:          0  dtMISS:          0
cpu0_L2C RFO          ACCESS:     156145  HIT:      52143  MISS:     104002  iACCESS:          0  iHIT:          0  iMISS:          0  dACCESS:     156145  dHIT:      52143  dMISS:     104002  itACCESS:          0  itHIT:          0  itMISS:          0  dtACCESS:          0  dtHIT:          0  dtMISS:          0
cpu0_L2C PREFETCH     ACCESS:    4547814  HIT:    1066342  MISS:    3481472  iACCESS:    2477774  iHIT:     705941  iMISS:    1771833  dACCESS:    2070040  dHIT:     360401  dMISS:    1709639  itACCESS:          0  itHIT:          0  itMISS:          0  dtACCESS:          0  dtHIT:          0  dtMISS:          0
cpu0_L2C WRITE        ACCESS:     281954  HIT:     138889  MISS:     143065  iACCESS:          0  iHIT:          0  iMISS:          0  dACCESS:     281954  dHIT:     138889  dMISS:     143065  itACCESS:          0  itHIT:          0  itMISS:          0  dtACCESS:          0  dtHIT:          0  dtMISS:          0
cpu0_L2C TRANSLATION  ACCESS:     203862  HIT:     119242  MISS:      84620  iACCESS:          0  iHIT:          0  iMISS:          0  dACCESS:          0  dHIT:          0  dMISS:          0  itACCESS:      58671  itHIT:      42954  itMISS:      15717  dtACCESS:     145191  dtHIT:      76288  dtMISS:      68903
cpu0_L2C PREFETCH  REQUESTED:    1323624  ISSUED:    1323624  CROSSED:          0  USEFUL:     387162  USELESS:     363228
cpu0_L2C AVERAGE iMISS LATENCY: 15.485 cycles
cpu0_L2C AVERAGE dMISS LATENCY: 25.7354 cycles
cpu0_L2C AVERAGE itMISS LATENCY: 0.371601 cycles
cpu0_L2C AVERAGE dtMISS LATENCY: 1.35157 cycles
cpu0_L2C PAGE CROSSINGS (TLB HIT):         0 
cpu0_L2C PAGE CROSSINGS (TLB MISS):         0 
cpu0_L2C AVERAGE MISS LATENCY: 42.9435 cycles
LLC TOTAL       ACCESS:    5092198  HIT:    4279508  MISS:     812690  iACCESS:    2344907  iHIT:    2103916  iMISS:     240991  dACCESS:    2662671  dHIT:    2132789  dMISS:     529882  itACCESS:      15717  itHIT:       6293  itMISS:       9424  dtACCESS:      68903  dtHIT:      36510  dtMISS:      32393
LLC LOAD         ACCESS:    1391288  HIT:    1207071  MISS:     184217  iACCESS:     622820  iHIT:     571353  iMISS:      51467  dACCESS:     768468  dHIT:     635718  dMISS:     132750  itACCESS:          0  itHIT:          0  itMISS:          0  dtACCESS:          0  dtHIT:          0  dtMISS:          0
LLC RFO          ACCESS:     104001  HIT:      71531  MISS:      32470  iACCESS:          0  iHIT:          0  iMISS:          0  dACCESS:     104001  dHIT:      71531  dMISS:      32470  itACCESS:          0  itHIT:          0  itMISS:          0  dtACCESS:          0  dtHIT:          0  dtMISS:          0
LLC PREFETCH     ACCESS:    3377190  HIT:    2831833  MISS:     545357  iACCESS:    1722087  iHIT:    1532563  iMISS:     189524  dACCESS:    1655103  dHIT:    1299270  dMISS:     355833  itACCESS:          0  itHIT:          0  itMISS:          0  dtACCESS:          0  dtHIT:          0  dtMISS:          0
LLC WRITE        ACCESS:     135099  HIT:     126270  MISS:       8829  iACCESS:          0  iHIT:          0  iMISS:          0  dACCESS:     135099  dHIT:     126270  dMISS:       8829  itACCESS:          0  itHIT:          0  itMISS:          0  dtACCESS:          0  dtHIT:          0  dtMISS:          0
LLC TRANSLATION  ACCESS:      84620  HIT:      42803  MISS:      41817  iACCESS:          0  iHIT:          0  iMISS:          0  dACCESS:          0  dHIT:          0  dMISS:          0  itACCESS:      15717  itHIT:       6293  itMISS:       9424  dtACCESS:      68903  dtHIT:      36510  dtMISS:      32393
LLC PREFETCH  REQUESTED:          0  ISSUED:          0  CROSSED:          0  USEFUL:          0  USELESS:          0
LLC AVERAGE iMISS LATENCY: 43.5504 cycles
LLC AVERAGE dMISS LATENCY: 104.898 cycles
LLC AVERAGE itMISS LATENCY: 2.0022 cycles
LLC AVERAGE dtMISS LATENCY: 7.00918 cycles
LLC PAGE CROSSINGS (TLB HIT):         0 
LLC PAGE CROSSINGS (TLB MISS):         0 
LLC AVERAGE MISS LATENCY: 157.46 cycles

PageTableWalker TOTAL       ACCESS:      88367  
PageTableWalker AVERAGE LATENCY: 4.57702 cycles
PageTableWalker TOTAL LATENCY: 404457 cycles

DRAM Statistics
Channel 0
 RQ ROW_BUFFER_HIT:     222884
  ROW_BUFFER_MISS:     580939
 AVG DBUS CONGESTED CYCLE:    3.62556
 WQ ROW_BUFFER_HIT:      15732
  ROW_BUFFER_MISS:      20753  FULL:          0

