last_page:0x200000000000000
VMEM_RES_CAP:0x100000
PAGE_SIZE:4096
LOG2_PAGE_SIZE:12
LOG2_PAGE_TABLE_SIZE:9
page_table_levels:5
WARNING: physical memory size is smaller than virtual memory size
FDiP enabled with aggresivity 16

*** ChampSim Multicore Out-of-Order Simulator ***

Warmup Instructions: 50000000
Simulation Instructions: 100000000
Number of CPUs: 1
Small page size: 4096
Large page size: 2097152

CPU 0 Bimodal branch predictor
Basic BTB sets: 1024 ways: 8 indirect buffer size: 4096 RAS size: 64
Instruction page size distrubution: 0
Loading instruction page size distribution from /home/bsc/bsc018186/scratch/itp_asplos25_AE/dump/srv105_ap.pdst
Data page size distrubution: 0
Loading data page size distribution from /home/bsc/bsc018186/scratch/itp_asplos25_AE/dump/srv105_ap.pdst
cpu0_L2C IP-based stride prefetcher
cpu0_L1D next line prefetcher
cpu0_L1I next line prefetcher
Off-chip DRAM Size: 4 GiB Channels: 1 Width: 64-bit Data Rate: 3200 MT/s
Heartbeat CPU 0 instructions: 10000001 cycles: 2500329 heartbeat IPC: 3.99948 cumulative IPC: 3.99948 (Simulation time: 0 hr 0 min 34 sec) 
Heartbeat CPU 0 instructions: 20000003 cycles: 5000437 heartbeat IPC: 3.99983 cumulative IPC: 3.99966 (Simulation time: 0 hr 1 min 11 sec) 
Heartbeat CPU 0 instructions: 30000001 cycles: 7500548 heartbeat IPC: 3.99983 cumulative IPC: 3.99971 (Simulation time: 0 hr 1 min 48 sec) 
Heartbeat CPU 0 instructions: 40000001 cycles: 10000622 heartbeat IPC: 3.99989 cumulative IPC: 3.99976 (Simulation time: 0 hr 2 min 25 sec) 
Heartbeat CPU 0 instructions: 50000003 cycles: 12502474 heartbeat IPC: 3.99704 cumulative IPC: 3.99921 (Simulation time: 0 hr 3 min 2 sec) 
Warmup finished CPU 0 instructions: 50000003 cycles: 12502475 cumulative IPC: 3.99921 (Simulation time: 0 hr 3 min 2 sec) 

Warmup complete CPU 0 instructions: 50000003 cycles: 12502475 (Simulation time: 0 hr 3 min 2 sec) 

Heartbeat CPU 0 instructions: 60000004 cycles: 27200564 heartbeat IPC: 0.680361 cumulative IPC: 0.680361 (Simulation time: 0 hr 4 min 1 sec) 
Heartbeat CPU 0 instructions: 70000003 cycles: 42389423 heartbeat IPC: 0.658378 cumulative IPC: 0.669189 (Simulation time: 0 hr 5 min 1 sec) 
Heartbeat CPU 0 instructions: 80000001 cycles: 56802552 heartbeat IPC: 0.693812 cumulative IPC: 0.6772 (Simulation time: 0 hr 6 min 0 sec) 
Heartbeat CPU 0 instructions: 90000001 cycles: 71199953 heartbeat IPC: 0.69457 cumulative IPC: 0.681461 (Simulation time: 0 hr 6 min 59 sec) 
Heartbeat CPU 0 instructions: 100000001 cycles: 86795136 heartbeat IPC: 0.641224 cumulative IPC: 0.673014 (Simulation time: 0 hr 8 min 0 sec) 
*** Reached end of trace: /gpfs/projects/bsc18/MN4/bsc18/romol/ChampSim/traces/qualcomm_srv/srv105_ap.champsimtrace.xz
Heartbeat CPU 0 instructions: 110000000 cycles: 101590636 heartbeat IPC: 0.675882 cumulative IPC: 0.673491 (Simulation time: 0 hr 8 min 59 sec) 
Heartbeat CPU 0 instructions: 120000002 cycles: 116351060 heartbeat IPC: 0.677488 cumulative IPC: 0.674059 (Simulation time: 0 hr 9 min 59 sec) 
Heartbeat CPU 0 instructions: 130000004 cycles: 131681049 heartbeat IPC: 0.652317 cumulative IPC: 0.671262 (Simulation time: 0 hr 11 min 0 sec) 
Heartbeat CPU 0 instructions: 140000001 cycles: 146466771 heartbeat IPC: 0.676328 cumulative IPC: 0.671821 (Simulation time: 0 hr 11 min 59 sec) 
Heartbeat CPU 0 instructions: 150000002 cycles: 162255480 heartbeat IPC: 0.633365 cumulative IPC: 0.667767 (Simulation time: 0 hr 13 min 1 sec) 
Simulation finished CPU 0 instructions: 100000000 cycles: 149753007 cumulative IPC: 0.667767 (Simulation time: 0 hr 13 min 1 sec) 

Simulation complete CPU 0 instructions: 100000000 cycles: 149753007 (Simulation time: 0 hr 13 min 1 sec) 


ChampSim completed all CPUs

Saving instructions large page distribution to /home/bsc/bsc018186/scratch/itp_asplos25_AE/dump/srv105_ap.pdst...
Saving data large page distribution to /home/bsc/bsc018186/scratch/itp_asplos25_AE/dump/srv105_ap.pdst...
=== Simulation ===
CPU 0 runs /gpfs/projects/bsc18/MN4/bsc18/romol/ChampSim/traces/qualcomm_srv/srv105_ap.champsimtrace.xz

Region of Interest Statistics

CPU 0 cumulative IPC: 0.667767 instructions: 100000000 cycles: 149753007
CPU 0 Branch Prediction Accuracy: 83.4325% MPKI: 29.7637 Average ROB Occupancy at Mispredict: 12.7732
Branch type MPKI
BRANCH_DIRECT_JUMP: 0.951121
BRANCH_INDIRECT: 15.4543
BRANCH_CONDITIONAL: 9.71815
BRANCH_DIRECT_CALL: 1.80962
BRANCH_INDIRECT_CALL: 0.504511
BRANCH_RETURN: 1.32607

Instructions large pages: 0
Instructions small pages: 988
Large page distribution for instructions: 0%

Data large pages: 0
Data small pages: 9284
Large page distribution for data: 0%

cpu0_L1I TOTAL       ACCESS:   34567175  HIT:   26659422  MISS:    7907753  iACCESS:   34567175  iHIT:   26659422  iMISS:    7907753  dACCESS:          0  dHIT:          0  dMISS:          0  itACCESS:          0  itHIT:          0  itMISS:          0  dtACCESS:          0  dtHIT:          0  dtMISS:          0
cpu0_L1I LOAD         ACCESS:   10077778  HIT:    7852334  MISS:    2225444  iACCESS:   10077778  iHIT:    7852334  iMISS:    2225444  dACCESS:          0  dHIT:          0  dMISS:          0  itACCESS:          0  itHIT:          0  itMISS:          0  dtACCESS:          0  dtHIT:          0  dtMISS:          0
cpu0_L1I RFO          ACCESS:          0  HIT:          0  MISS:          0  iACCESS:          0  iHIT:          0  iMISS:          0  dACCESS:          0  dHIT:          0  dMISS:          0  itACCESS:          0  itHIT:          0  itMISS:          0  dtACCESS:          0  dtHIT:          0  dtMISS:          0
cpu0_L1I PREFETCH     ACCESS:   24489397  HIT:   18807088  MISS:    5682309  iACCESS:   24489397  iHIT:   18807088  iMISS:    5682309  dACCESS:          0  dHIT:          0  dMISS:          0  itACCESS:          0  itHIT:          0  itMISS:          0  dtACCESS:          0  dtHIT:          0  dtMISS:          0
cpu0_L1I WRITE        ACCESS:          0  HIT:          0  MISS:          0  iACCESS:          0  iHIT:          0  iMISS:          0  dACCESS:          0  dHIT:          0  dMISS:          0  itACCESS:          0  itHIT:          0  itMISS:          0  dtACCESS:          0  dtHIT:          0  dtMISS:          0
cpu0_L1I TRANSLATION  ACCESS:          0  HIT:          0  MISS:          0  iACCESS:          0  iHIT:          0  iMISS:          0  dACCESS:          0  dHIT:          0  dMISS:          0  itACCESS:          0  itHIT:          0  itMISS:          0  dtACCESS:          0  dtHIT:          0  dtMISS:          0
cpu0_L1I PREFETCH  REQUESTED:   26985932  ISSUED:   26985917  CROSSED:          0  USEFUL:    1923551  USELESS:     637400
cpu0_L1I AVERAGE iMISS LATENCY: 12.3597 cycles
cpu0_L1I AVERAGE dMISS LATENCY: 0 cycles
cpu0_L1I AVERAGE itMISS LATENCY: 0 cycles
cpu0_L1I AVERAGE dtMISS LATENCY: 0 cycles
cpu0_L1I PAGE CROSSINGS (TLB HIT):         0 
cpu0_L1I PAGE CROSSINGS (TLB MISS):         0 
cpu0_L1I AVERAGE MISS LATENCY: 12.3597 cycles
cpu0_ITLB TOTAL       ACCESS:   28898126  HIT:   26884948  MISS:    2013178  iACCESS:   28898126  iHIT:   26884948  iMISS:    2013178  dACCESS:          0  dHIT:          0  dMISS:          0  itACCESS:          0  itHIT:          0  itMISS:          0  dtACCESS:          0  dtHIT:          0  dtMISS:          0
cpu0_ITLB LOAD         ACCESS:   28898126  HIT:   26884948  MISS:    2013178  iACCESS:   28898126  iHIT:   26884948  iMISS:    2013178  dACCESS:          0  dHIT:          0  dMISS:          0  itACCESS:          0  itHIT:          0  itMISS:          0  dtACCESS:          0  dtHIT:          0  dtMISS:          0
cpu0_ITLB RFO          ACCESS:          0  HIT:          0  MISS:          0  iACCESS:          0  iHIT:          0  iMISS:          0  dACCESS:          0  dHIT:          0  dMISS:          0  itACCESS:          0  itHIT:          0  itMISS:          0  dtACCESS:          0  dtHIT:          0  dtMISS:          0
cpu0_ITLB PREFETCH     ACCESS:          0  HIT:          0  MISS:          0  iACCESS:          0  iHIT:          0  iMISS:          0  dACCESS:          0  dHIT:          0  dMISS:          0  itACCESS:          0  itHIT:          0  itMISS:          0  dtACCESS:          0  dtHIT:          0  dtMISS:          0
cpu0_ITLB WRITE        ACCESS:          0  HIT:          0  MISS:          0  iACCESS:          0  iHIT:          0  iMISS:          0  dACCESS:          0  dHIT:          0  dMISS:          0  itACCESS:          0  itHIT:          0  itMISS:          0  dtACCESS:          0  dtHIT:          0  dtMISS:          0
cpu0_ITLB TRANSLATION  ACCESS:          0  HIT:          0  MISS:          0  iACCESS:          0  iHIT:          0  iMISS:          0  dACCESS:          0  dHIT:          0  dMISS:          0  itACCESS:          0  itHIT:          0  itMISS:          0  dtACCESS:          0  dtHIT:          0  dtMISS:          0
cpu0_ITLB PREFETCH  REQUESTED:          0  ISSUED:          0  CROSSED:          0  USEFUL:     325228  USELESS:      63244
cpu0_ITLB AVERAGE iMISS LATENCY: 4.83148 cycles
cpu0_ITLB AVERAGE dMISS LATENCY: 0 cycles
cpu0_ITLB AVERAGE itMISS LATENCY: 0 cycles
cpu0_ITLB AVERAGE dtMISS LATENCY: 0 cycles
cpu0_ITLB PAGE CROSSINGS (TLB HIT):         0 
cpu0_ITLB PAGE CROSSINGS (TLB MISS):         0 
cpu0_ITLB AVERAGE MISS LATENCY: 4.83148 cycles
cpu0_DTLB TOTAL       ACCESS:   27724367  HIT:   25604855  MISS:    2119512  iACCESS:          0  iHIT:          0  iMISS:          0  dACCESS:   27724367  dHIT:   25604855  dMISS:    2119512  itACCESS:          0  itHIT:          0  itMISS:          0  dtACCESS:          0  dtHIT:          0  dtMISS:          0
cpu0_DTLB LOAD         ACCESS:   27724367  HIT:   25604855  MISS:    2119512  iACCESS:          0  iHIT:          0  iMISS:          0  dACCESS:   27724367  dHIT:   25604855  dMISS:    2119512  itACCESS:          0  itHIT:          0  itMISS:          0  dtACCESS:          0  dtHIT:          0  dtMISS:          0
cpu0_DTLB RFO          ACCESS:          0  HIT:          0  MISS:          0  iACCESS:          0  iHIT:          0  iMISS:          0  dACCESS:          0  dHIT:          0  dMISS:          0  itACCESS:          0  itHIT:          0  itMISS:          0  dtACCESS:          0  dtHIT:          0  dtMISS:          0
cpu0_DTLB PREFETCH     ACCESS:          0  HIT:          0  MISS:          0  iACCESS:          0  iHIT:          0  iMISS:          0  dACCESS:          0  dHIT:          0  dMISS:          0  itACCESS:          0  itHIT:          0  itMISS:          0  dtACCESS:          0  dtHIT:          0  dtMISS:          0
cpu0_DTLB WRITE        ACCESS:          0  HIT:          0  MISS:          0  iACCESS:          0  iHIT:          0  iMISS:          0  dACCESS:          0  dHIT:          0  dMISS:          0  itACCESS:          0  itHIT:          0  itMISS:          0  dtACCESS:          0  dtHIT:          0  dtMISS:          0
cpu0_DTLB TRANSLATION  ACCESS:          0  HIT:          0  MISS:          0  iACCESS:          0  iHIT:          0  iMISS:          0  dACCESS:          0  dHIT:          0  dMISS:          0  itACCESS:          0  itHIT:          0  itMISS:          0  dtACCESS:          0  dtHIT:          0  dtMISS:          0
cpu0_DTLB PREFETCH  REQUESTED:          0  ISSUED:          0  CROSSED:          0  USEFUL:          0  USELESS:          0
cpu0_DTLB AVERAGE iMISS LATENCY: 0 cycles
cpu0_DTLB AVERAGE dMISS LATENCY: 13.904 cycles
cpu0_DTLB AVERAGE itMISS LATENCY: 0 cycles
cpu0_DTLB AVERAGE dtMISS LATENCY: 0 cycles
cpu0_DTLB PAGE CROSSINGS (TLB HIT):         0 
cpu0_DTLB PAGE CROSSINGS (TLB MISS):         0 
cpu0_DTLB AVERAGE MISS LATENCY: 13.904 cycles
cpu0_STLB TOTAL       ACCESS:    1642078  HIT:    1478668  MISS:     163410  iACCESS:     388472  iHIT:     331253  iMISS:      57219  dACCESS:    1253606  dHIT:    1147415  dMISS:     106191  itACCESS:          0  itHIT:          0  itMISS:          0  dtACCESS:          0  dtHIT:          0  dtMISS:          0
cpu0_STLB LOAD         ACCESS:    1642078  HIT:    1478668  MISS:     163410  iACCESS:     388472  iHIT:     331253  iMISS:      57219  dACCESS:    1253606  dHIT:    1147415  dMISS:     106191  itACCESS:          0  itHIT:          0  itMISS:          0  dtACCESS:          0  dtHIT:          0  dtMISS:          0
cpu0_STLB RFO          ACCESS:          0  HIT:          0  MISS:          0  iACCESS:          0  iHIT:          0  iMISS:          0  dACCESS:          0  dHIT:          0  dMISS:          0  itACCESS:          0  itHIT:          0  itMISS:          0  dtACCESS:          0  dtHIT:          0  dtMISS:          0
cpu0_STLB PREFETCH     ACCESS:          0  HIT:          0  MISS:          0  iACCESS:          0  iHIT:          0  iMISS:          0  dACCESS:          0  dHIT:          0  dMISS:          0  itACCESS:          0  itHIT:          0  itMISS:          0  dtACCESS:          0  dtHIT:          0  dtMISS:          0
cpu0_STLB WRITE        ACCESS:          0  HIT:          0  MISS:          0  iACCESS:          0  iHIT:          0  iMISS:          0  dACCESS:          0  dHIT:          0  dMISS:          0  itACCESS:          0  itHIT:          0  itMISS:          0  dtACCESS:          0  dtHIT:          0  dtMISS:          0
cpu0_STLB TRANSLATION  ACCESS:          0  HIT:          0  MISS:          0  iACCESS:          0  iHIT:          0  iMISS:          0  dACCESS:          0  dHIT:          0  dMISS:          0  itACCESS:          0  itHIT:          0  itMISS:          0  dtACCESS:          0  dtHIT:          0  dtMISS:          0
cpu0_STLB PREFETCH  REQUESTED:          0  ISSUED:          0  CROSSED:          0  USEFUL:          0  USELESS:          0
cpu0_STLB AVERAGE iMISS LATENCY: 40.7397 cycles
cpu0_STLB AVERAGE dMISS LATENCY: 119.196 cycles
cpu0_STLB AVERAGE itMISS LATENCY: 0 cycles
cpu0_STLB AVERAGE dtMISS LATENCY: 0 cycles
cpu0_STLB PAGE CROSSINGS (TLB HIT):         0 
cpu0_STLB PAGE CROSSINGS (TLB MISS):         0 
cpu0_STLB AVERAGE MISS LATENCY: 159.936 cycles
cpu0_L1D TOTAL       ACCESS:   41578815  HIT:   37979057  MISS:    3599758  iACCESS:          0  iHIT:          0  iMISS:          0  dACCESS:   41353044  dHIT:   37959541  dMISS:    3393503  itACCESS:      62438  itHIT:       9045  itMISS:      53393  dtACCESS:     163333  dtHIT:      10471  dtMISS:     152862
cpu0_L1D LOAD         ACCESS:   18962744  HIT:   17408996  MISS:    1553748  iACCESS:          0  iHIT:          0  iMISS:          0  dACCESS:   18962744  dHIT:   17408996  dMISS:    1553748  itACCESS:          0  itHIT:          0  itMISS:          0  dtACCESS:          0  dtHIT:          0  dtMISS:          0
cpu0_L1D RFO          ACCESS:          0  HIT:          0  MISS:          0  iACCESS:          0  iHIT:          0  iMISS:          0  dACCESS:          0  dHIT:          0  dMISS:          0  itACCESS:          0  itHIT:          0  itMISS:          0  dtACCESS:          0  dtHIT:          0  dtMISS:          0
cpu0_L1D PREFETCH     ACCESS:   12221894  HIT:   10828929  MISS:    1392965  iACCESS:          0  iHIT:          0  iMISS:          0  dACCESS:   12221894  dHIT:   10828929  dMISS:    1392965  itACCESS:          0  itHIT:          0  itMISS:          0  dtACCESS:          0  dtHIT:          0  dtMISS:          0
cpu0_L1D WRITE        ACCESS:   10168406  HIT:    9721616  MISS:     446790  iACCESS:          0  iHIT:          0  iMISS:          0  dACCESS:   10168406  dHIT:    9721616  dMISS:     446790  itACCESS:          0  itHIT:          0  itMISS:          0  dtACCESS:          0  dtHIT:          0  dtMISS:          0
cpu0_L1D TRANSLATION  ACCESS:     225771  HIT:      19516  MISS:     206255  iACCESS:          0  iHIT:          0  iMISS:          0  dACCESS:          0  dHIT:          0  dMISS:          0  itACCESS:      62438  itHIT:       9045  itMISS:      53393  dtACCESS:     163333  dtHIT:      10471  dtMISS:     152862
cpu0_L1D PREFETCH  REQUESTED:   18962744  ISSUED:   17039775  CROSSED:          0  USEFUL:     307301  USELESS:     705666
cpu0_L1D AVERAGE iMISS LATENCY: 0 cycles
cpu0_L1D AVERAGE dMISS LATENCY: 31.2262 cycles
cpu0_L1D AVERAGE itMISS LATENCY: 1.70997 cycles
cpu0_L1D AVERAGE dtMISS LATENCY: 4.76609 cycles
cpu0_L1D PAGE CROSSINGS (TLB HIT):         0 
cpu0_L1D PAGE CROSSINGS (TLB MISS):         0 
cpu0_L1D AVERAGE MISS LATENCY: 37.7022 cycles
cpu0_L2C TOTAL       ACCESS:    7010221  HIT:    4128966  MISS:    2881255  iACCESS:    3322617  iHIT:    2246373  iMISS:    1076244  dACCESS:    3494437  dHIT:    1854920  dMISS:    1639517  itACCESS:      53151  itHIT:       9314  itMISS:      43837  dtACCESS:     140016  dtHIT:      18359  dtMISS:     121657
cpu0_L2C LOAD         ACCESS:    1744401  HIT:    1066772  MISS:     677629  iACCESS:     802733  iHIT:     572049  iMISS:     230684  dACCESS:     941668  dHIT:     494723  dMISS:     446945  itACCESS:          0  itHIT:          0  itMISS:          0  dtACCESS:          0  dtHIT:          0  dtMISS:          0
cpu0_L2C RFO          ACCESS:     156592  HIT:      75120  MISS:      81472  iACCESS:          0  iHIT:          0  iMISS:          0  dACCESS:     156592  dHIT:      75120  dMISS:      81472  itACCESS:          0  itHIT:          0  itMISS:          0  dtACCESS:          0  dtHIT:          0  dtMISS:          0
cpu0_L2C PREFETCH     ACCESS:    4629269  HIT:    2673523  MISS:    1955746  iACCESS:    2519884  iHIT:    1674324  iMISS:     845560  dACCESS:    2109385  dHIT:     999199  dMISS:    1110186  itACCESS:          0  itHIT:          0  itMISS:          0  dtACCESS:          0  dtHIT:          0  dtMISS:          0
cpu0_L2C WRITE        ACCESS:     286792  HIT:     285878  MISS:        914  iACCESS:          0  iHIT:          0  iMISS:          0  dACCESS:     286792  dHIT:     285878  dMISS:        914  itACCESS:          0  itHIT:          0  itMISS:          0  dtACCESS:          0  dtHIT:          0  dtMISS:          0
cpu0_L2C TRANSLATION  ACCESS:     193167  HIT:      27673  MISS:     165494  iACCESS:          0  iHIT:          0  iMISS:          0  dACCESS:          0  dHIT:          0  dMISS:          0  itACCESS:      53151  itHIT:       9314  itMISS:      43837  dtACCESS:     140016  dtHIT:      18359  dtMISS:     121657
cpu0_L2C PREFETCH  REQUESTED:    1377600  ISSUED:    1377513  CROSSED:          0  USEFUL:     310305  USELESS:     226846
cpu0_L2C AVERAGE iMISS LATENCY: 23.3943 cycles
cpu0_L2C AVERAGE dMISS LATENCY: 45.2564 cycles
cpu0_L2C AVERAGE itMISS LATENCY: 1.95473 cycles
cpu0_L2C AVERAGE dtMISS LATENCY: 5.47115 cycles
cpu0_L2C PAGE CROSSINGS (TLB HIT):         0 
cpu0_L2C PAGE CROSSINGS (TLB MISS):         0 
cpu0_L2C AVERAGE MISS LATENCY: 76.0766 cycles
LLC TOTAL       ACCESS:    2907924  HIT:    1871876  MISS:    1036048  iACCESS:    1021336  iHIT:     700484  iMISS:     320852  dACCESS:    1721094  dHIT:    1108568  dMISS:     612526  itACCESS:      43837  itHIT:      15772  itMISS:      28065  dtACCESS:     121657  dtHIT:      47052  dtMISS:      74605
LLC LOAD         ACCESS:     675710  HIT:     447832  MISS:     227878  iACCESS:     229561  iHIT:     158411  iMISS:      71150  dACCESS:     446149  dHIT:     289421  dMISS:     156728  itACCESS:          0  itHIT:          0  itMISS:          0  dtACCESS:          0  dtHIT:          0  dtMISS:          0
LLC RFO          ACCESS:      81470  HIT:      44116  MISS:      37354  iACCESS:          0  iHIT:          0  iMISS:          0  dACCESS:      81470  dHIT:      44116  dMISS:      37354  itACCESS:          0  itHIT:          0  itMISS:          0  dtACCESS:          0  dtHIT:          0  dtMISS:          0
LLC PREFETCH     ACCESS:    1851850  HIT:    1190169  MISS:     661681  iACCESS:     791775  iHIT:     542073  iMISS:     249702  dACCESS:    1060075  dHIT:     648096  dMISS:     411979  itACCESS:          0  itHIT:          0  itMISS:          0  dtACCESS:          0  dtHIT:          0  dtMISS:          0
LLC WRITE        ACCESS:     133400  HIT:     126935  MISS:       6465  iACCESS:          0  iHIT:          0  iMISS:          0  dACCESS:     133400  dHIT:     126935  dMISS:       6465  itACCESS:          0  itHIT:          0  itMISS:          0  dtACCESS:          0  dtHIT:          0  dtMISS:          0
LLC TRANSLATION  ACCESS:     165494  HIT:      62824  MISS:     102670  iACCESS:          0  iHIT:          0  iMISS:          0  dACCESS:          0  dHIT:          0  dMISS:          0  itACCESS:      43837  itHIT:      15772  itMISS:      28065  dtACCESS:     121657  dtHIT:      47052  dtMISS:      74605
LLC PREFETCH  REQUESTED:          0  ISSUED:          0  CROSSED:          0  USEFUL:          0  USELESS:          0
LLC AVERAGE iMISS LATENCY: 45.916 cycles
LLC AVERAGE dMISS LATENCY: 96.3263 cycles
LLC AVERAGE itMISS LATENCY: 4.60715 cycles
LLC AVERAGE dtMISS LATENCY: 12.9192 cycles
LLC PAGE CROSSINGS (TLB HIT):         0 
LLC PAGE CROSSINGS (TLB MISS):         0 
LLC AVERAGE MISS LATENCY: 159.769 cycles

PageTableWalker TOTAL       ACCESS:      83682  
PageTableWalker AVERAGE LATENCY: 5.23556 cycles
PageTableWalker TOTAL LATENCY: 438122 cycles

DRAM Statistics
Channel 0
 RQ ROW_BUFFER_HIT:     259794
  ROW_BUFFER_MISS:     769241
 AVG DBUS CONGESTED CYCLE:    3.61628
 WQ ROW_BUFFER_HIT:      21773
  ROW_BUFFER_MISS:      21753  FULL:          0

