last_page:0x200000000000000
VMEM_RES_CAP:0x100000
PAGE_SIZE:4096
LOG2_PAGE_SIZE:12
LOG2_PAGE_TABLE_SIZE:9
page_table_levels:5
WARNING: physical memory size is smaller than virtual memory size
FDiP enabled with aggresivity 16

*** ChampSim Multicore Out-of-Order Simulator ***

Warmup Instructions: 50000000
Simulation Instructions: 100000000
Number of CPUs: 1
Small page size: 4096
Large page size: 2097152

CPU 0 Bimodal branch predictor
Basic BTB sets: 1024 ways: 8 indirect buffer size: 4096 RAS size: 64
Instruction page size distrubution: 0
Loading instruction page size distribution from /home/bsc/bsc018186/scratch/itp_asplos25_AE/dump/srv128_ap.pdst
Data page size distrubution: 0
Loading data page size distribution from /home/bsc/bsc018186/scratch/itp_asplos25_AE/dump/srv128_ap.pdst
cpu0_L2C IP-based stride prefetcher
cpu0_L1D next line prefetcher
CHiRPing...
cpu0_L1I next line prefetcher
Off-chip DRAM Size: 4 GiB Channels: 1 Width: 64-bit Data Rate: 3200 MT/s
Heartbeat CPU 0 instructions: 10000003 cycles: 2644140 heartbeat IPC: 3.78195 cumulative IPC: 3.78195 (Simulation time: 0 hr 0 min 38 sec) 
Heartbeat CPU 0 instructions: 20000003 cycles: 5610488 heartbeat IPC: 3.37115 cumulative IPC: 3.56476 (Simulation time: 0 hr 1 min 19 sec) 
Heartbeat CPU 0 instructions: 30000001 cycles: 8110534 heartbeat IPC: 3.99993 cumulative IPC: 3.6989 (Simulation time: 0 hr 2 min 0 sec) 
Heartbeat CPU 0 instructions: 40000000 cycles: 10610584 heartbeat IPC: 3.99992 cumulative IPC: 3.76983 (Simulation time: 0 hr 2 min 42 sec) 
Heartbeat CPU 0 instructions: 50000002 cycles: 13110614 heartbeat IPC: 3.99996 cumulative IPC: 3.81371 (Simulation time: 0 hr 3 min 23 sec) 
Warmup finished CPU 0 instructions: 50000002 cycles: 13110615 cumulative IPC: 3.81371 (Simulation time: 0 hr 3 min 23 sec) 

Warmup complete CPU 0 instructions: 50000002 cycles: 13110615 (Simulation time: 0 hr 3 min 23 sec) 

Heartbeat CPU 0 instructions: 60000000 cycles: 33839375 heartbeat IPC: 0.482422 cumulative IPC: 0.482422 (Simulation time: 0 hr 4 min 37 sec) 
Heartbeat CPU 0 instructions: 70000004 cycles: 53852267 heartbeat IPC: 0.499679 cumulative IPC: 0.490899 (Simulation time: 0 hr 5 min 48 sec) 
Heartbeat CPU 0 instructions: 80000000 cycles: 74753409 heartbeat IPC: 0.478443 cumulative IPC: 0.486675 (Simulation time: 0 hr 7 min 2 sec) 
Heartbeat CPU 0 instructions: 90000002 cycles: 95469344 heartbeat IPC: 0.482721 cumulative IPC: 0.485681 (Simulation time: 0 hr 8 min 15 sec) 
Heartbeat CPU 0 instructions: 100000004 cycles: 116309621 heartbeat IPC: 0.479841 cumulative IPC: 0.484501 (Simulation time: 0 hr 9 min 31 sec) 
*** Reached end of trace: /gpfs/projects/bsc18/MN4/bsc18/romol/ChampSim/traces/qualcomm_srv/srv128_ap.champsimtrace.xz
Heartbeat CPU 0 instructions: 110000000 cycles: 136897497 heartbeat IPC: 0.485723 cumulative IPC: 0.484705 (Simulation time: 0 hr 10 min 46 sec) 
Heartbeat CPU 0 instructions: 120000001 cycles: 144637710 heartbeat IPC: 1.29196 cumulative IPC: 0.53221 (Simulation time: 0 hr 11 min 44 sec) 
Heartbeat CPU 0 instructions: 130000000 cycles: 162379617 heartbeat IPC: 0.563638 cumulative IPC: 0.535946 (Simulation time: 0 hr 12 min 55 sec) 
Heartbeat CPU 0 instructions: 140000003 cycles: 183099556 heartbeat IPC: 0.482628 cumulative IPC: 0.529447 (Simulation time: 0 hr 14 min 11 sec) 
Heartbeat CPU 0 instructions: 150000001 cycles: 203495853 heartbeat IPC: 0.490285 cumulative IPC: 0.525251 (Simulation time: 0 hr 15 min 26 sec) 
Simulation finished CPU 0 instructions: 100000004 cycles: 190385240 cumulative IPC: 0.525251 (Simulation time: 0 hr 15 min 26 sec) 

Simulation complete CPU 0 instructions: 100000004 cycles: 190385240 (Simulation time: 0 hr 15 min 26 sec) 


ChampSim completed all CPUs

Saving instructions large page distribution to /home/bsc/bsc018186/scratch/itp_asplos25_AE/dump/srv128_ap.pdst...
Saving data large page distribution to /home/bsc/bsc018186/scratch/itp_asplos25_AE/dump/srv128_ap.pdst...
=== Simulation ===
CPU 0 runs /gpfs/projects/bsc18/MN4/bsc18/romol/ChampSim/traces/qualcomm_srv/srv128_ap.champsimtrace.xz

Region of Interest Statistics

CPU 0 cumulative IPC: 0.525251 instructions: 100000004 cycles: 190385240
CPU 0 Branch Prediction Accuracy: 83.2173% MPKI: 32.425 Average ROB Occupancy at Mispredict: 11.9585
Branch type MPKI
BRANCH_DIRECT_JUMP: 1.15776
BRANCH_INDIRECT: 16.4527
BRANCH_CONDITIONAL: 10.4164
BRANCH_DIRECT_CALL: 2.17399
BRANCH_INDIRECT_CALL: 0.6959
BRANCH_RETURN: 1.52822

Instructions large pages: 0
Instructions small pages: 1315
Large page distribution for instructions: 0%

Data large pages: 0
Data small pages: 4897
Large page distribution for data: 0%

cpu0_L1I TOTAL       ACCESS:   34539238  HIT:   27534640  MISS:    7004598  iACCESS:   34539238  iHIT:   27534640  iMISS:    7004598  dACCESS:          0  dHIT:          0  dMISS:          0  itACCESS:          0  itHIT:          0  itMISS:          0  dtACCESS:          0  dtHIT:          0  dtMISS:          0
cpu0_L1I LOAD         ACCESS:    9188740  HIT:    7261953  MISS:    1926787  iACCESS:    9188740  iHIT:    7261953  iMISS:    1926787  dACCESS:          0  dHIT:          0  dMISS:          0  itACCESS:          0  itHIT:          0  itMISS:          0  dtACCESS:          0  dtHIT:          0  dtMISS:          0
cpu0_L1I RFO          ACCESS:          0  HIT:          0  MISS:          0  iACCESS:          0  iHIT:          0  iMISS:          0  dACCESS:          0  dHIT:          0  dMISS:          0  itACCESS:          0  itHIT:          0  itMISS:          0  dtACCESS:          0  dtHIT:          0  dtMISS:          0
cpu0_L1I PREFETCH     ACCESS:   25350498  HIT:   20272687  MISS:    5077811  iACCESS:   25350498  iHIT:   20272687  iMISS:    5077811  dACCESS:          0  dHIT:          0  dMISS:          0  itACCESS:          0  itHIT:          0  itMISS:          0  dtACCESS:          0  dtHIT:          0  dtMISS:          0
cpu0_L1I WRITE        ACCESS:          0  HIT:          0  MISS:          0  iACCESS:          0  iHIT:          0  iMISS:          0  dACCESS:          0  dHIT:          0  dMISS:          0  itACCESS:          0  itHIT:          0  itMISS:          0  dtACCESS:          0  dtHIT:          0  dtMISS:          0
cpu0_L1I TRANSLATION  ACCESS:          0  HIT:          0  MISS:          0  iACCESS:          0  iHIT:          0  iMISS:          0  dACCESS:          0  dHIT:          0  dMISS:          0  itACCESS:          0  itHIT:          0  itMISS:          0  dtACCESS:          0  dtHIT:          0  dtMISS:          0
cpu0_L1I PREFETCH  REQUESTED:   27485224  ISSUED:   27485224  CROSSED:          0  USEFUL:    1750460  USELESS:     583618
cpu0_L1I AVERAGE iMISS LATENCY: 19.7666 cycles
cpu0_L1I AVERAGE dMISS LATENCY: 0 cycles
cpu0_L1I AVERAGE itMISS LATENCY: 0 cycles
cpu0_L1I AVERAGE dtMISS LATENCY: 0 cycles
cpu0_L1I PAGE CROSSINGS (TLB HIT):         0 
cpu0_L1I PAGE CROSSINGS (TLB MISS):         0 
cpu0_L1I AVERAGE MISS LATENCY: 19.7666 cycles
cpu0_ITLB TOTAL       ACCESS:   29189566  HIT:   27449723  MISS:    1739843  iACCESS:   29189566  iHIT:   27449723  iMISS:    1739843  dACCESS:          0  dHIT:          0  dMISS:          0  itACCESS:          0  itHIT:          0  itMISS:          0  dtACCESS:          0  dtHIT:          0  dtMISS:          0
cpu0_ITLB LOAD         ACCESS:   29189566  HIT:   27449723  MISS:    1739843  iACCESS:   29189566  iHIT:   27449723  iMISS:    1739843  dACCESS:          0  dHIT:          0  dMISS:          0  itACCESS:          0  itHIT:          0  itMISS:          0  dtACCESS:          0  dtHIT:          0  dtMISS:          0
cpu0_ITLB RFO          ACCESS:          0  HIT:          0  MISS:          0  iACCESS:          0  iHIT:          0  iMISS:          0  dACCESS:          0  dHIT:          0  dMISS:          0  itACCESS:          0  itHIT:          0  itMISS:          0  dtACCESS:          0  dtHIT:          0  dtMISS:          0
cpu0_ITLB PREFETCH     ACCESS:          0  HIT:          0  MISS:          0  iACCESS:          0  iHIT:          0  iMISS:          0  dACCESS:          0  dHIT:          0  dMISS:          0  itACCESS:          0  itHIT:          0  itMISS:          0  dtACCESS:          0  dtHIT:          0  dtMISS:          0
cpu0_ITLB WRITE        ACCESS:          0  HIT:          0  MISS:          0  iACCESS:          0  iHIT:          0  iMISS:          0  dACCESS:          0  dHIT:          0  dMISS:          0  itACCESS:          0  itHIT:          0  itMISS:          0  dtACCESS:          0  dtHIT:          0  dtMISS:          0
cpu0_ITLB TRANSLATION  ACCESS:          0  HIT:          0  MISS:          0  iACCESS:          0  iHIT:          0  iMISS:          0  dACCESS:          0  dHIT:          0  dMISS:          0  itACCESS:          0  itHIT:          0  itMISS:          0  dtACCESS:          0  dtHIT:          0  dtMISS:          0
cpu0_ITLB PREFETCH  REQUESTED:          0  ISSUED:          0  CROSSED:          0  USEFUL:     293259  USELESS:      55637
cpu0_ITLB AVERAGE iMISS LATENCY: 7.77838 cycles
cpu0_ITLB AVERAGE dMISS LATENCY: 0 cycles
cpu0_ITLB AVERAGE itMISS LATENCY: 0 cycles
cpu0_ITLB AVERAGE dtMISS LATENCY: 0 cycles
cpu0_ITLB PAGE CROSSINGS (TLB HIT):         0 
cpu0_ITLB PAGE CROSSINGS (TLB MISS):         0 
cpu0_ITLB AVERAGE MISS LATENCY: 7.77838 cycles
cpu0_DTLB TOTAL       ACCESS:   29716064  HIT:   25485930  MISS:    4230134  iACCESS:          0  iHIT:          0  iMISS:          0  dACCESS:   29716064  dHIT:   25485930  dMISS:    4230134  itACCESS:          0  itHIT:          0  itMISS:          0  dtACCESS:          0  dtHIT:          0  dtMISS:          0
cpu0_DTLB LOAD         ACCESS:   29716064  HIT:   25485930  MISS:    4230134  iACCESS:          0  iHIT:          0  iMISS:          0  dACCESS:   29716064  dHIT:   25485930  dMISS:    4230134  itACCESS:          0  itHIT:          0  itMISS:          0  dtACCESS:          0  dtHIT:          0  dtMISS:          0
cpu0_DTLB RFO          ACCESS:          0  HIT:          0  MISS:          0  iACCESS:          0  iHIT:          0  iMISS:          0  dACCESS:          0  dHIT:          0  dMISS:          0  itACCESS:          0  itHIT:          0  itMISS:          0  dtACCESS:          0  dtHIT:          0  dtMISS:          0
cpu0_DTLB PREFETCH     ACCESS:          0  HIT:          0  MISS:          0  iACCESS:          0  iHIT:          0  iMISS:          0  dACCESS:          0  dHIT:          0  dMISS:          0  itACCESS:          0  itHIT:          0  itMISS:          0  dtACCESS:          0  dtHIT:          0  dtMISS:          0
cpu0_DTLB WRITE        ACCESS:          0  HIT:          0  MISS:          0  iACCESS:          0  iHIT:          0  iMISS:          0  dACCESS:          0  dHIT:          0  dMISS:          0  itACCESS:          0  itHIT:          0  itMISS:          0  dtACCESS:          0  dtHIT:          0  dtMISS:          0
cpu0_DTLB TRANSLATION  ACCESS:          0  HIT:          0  MISS:          0  iACCESS:          0  iHIT:          0  iMISS:          0  dACCESS:          0  dHIT:          0  dMISS:          0  itACCESS:          0  itHIT:          0  itMISS:          0  dtACCESS:          0  dtHIT:          0  dtMISS:          0
cpu0_DTLB PREFETCH  REQUESTED:          0  ISSUED:          0  CROSSED:          0  USEFUL:          0  USELESS:          0
cpu0_DTLB AVERAGE iMISS LATENCY: 0 cycles
cpu0_DTLB AVERAGE dMISS LATENCY: 10.6595 cycles
cpu0_DTLB AVERAGE itMISS LATENCY: 0 cycles
cpu0_DTLB AVERAGE dtMISS LATENCY: 0 cycles
cpu0_DTLB PAGE CROSSINGS (TLB HIT):         0 
cpu0_DTLB PAGE CROSSINGS (TLB MISS):         0 
cpu0_DTLB AVERAGE MISS LATENCY: 10.6595 cycles
cpu0_STLB TOTAL       ACCESS:    2589656  HIT:    2383593  MISS:     206063  iACCESS:     348893  iHIT:     271056  iMISS:      77837  dACCESS:    2240763  dHIT:    2112537  dMISS:     128226  itACCESS:          0  itHIT:          0  itMISS:          0  dtACCESS:          0  dtHIT:          0  dtMISS:          0
cpu0_STLB LOAD         ACCESS:    2589656  HIT:    2383593  MISS:     206063  iACCESS:     348893  iHIT:     271056  iMISS:      77837  dACCESS:    2240763  dHIT:    2112537  dMISS:     128226  itACCESS:          0  itHIT:          0  itMISS:          0  dtACCESS:          0  dtHIT:          0  dtMISS:          0
cpu0_STLB RFO          ACCESS:          0  HIT:          0  MISS:          0  iACCESS:          0  iHIT:          0  iMISS:          0  dACCESS:          0  dHIT:          0  dMISS:          0  itACCESS:          0  itHIT:          0  itMISS:          0  dtACCESS:          0  dtHIT:          0  dtMISS:          0
cpu0_STLB PREFETCH     ACCESS:          0  HIT:          0  MISS:          0  iACCESS:          0  iHIT:          0  iMISS:          0  dACCESS:          0  dHIT:          0  dMISS:          0  itACCESS:          0  itHIT:          0  itMISS:          0  dtACCESS:          0  dtHIT:          0  dtMISS:          0
cpu0_STLB WRITE        ACCESS:          0  HIT:          0  MISS:          0  iACCESS:          0  iHIT:          0  iMISS:          0  dACCESS:          0  dHIT:          0  dMISS:          0  itACCESS:          0  itHIT:          0  itMISS:          0  dtACCESS:          0  dtHIT:          0  dtMISS:          0
cpu0_STLB TRANSLATION  ACCESS:          0  HIT:          0  MISS:          0  iACCESS:          0  iHIT:          0  iMISS:          0  dACCESS:          0  dHIT:          0  dMISS:          0  itACCESS:          0  itHIT:          0  itMISS:          0  dtACCESS:          0  dtHIT:          0  dtMISS:          0
cpu0_STLB PREFETCH  REQUESTED:          0  ISSUED:          0  CROSSED:          0  USEFUL:          0  USELESS:          0
cpu0_STLB AVERAGE iMISS LATENCY: 52.1543 cycles
cpu0_STLB AVERAGE dMISS LATENCY: 130.873 cycles
cpu0_STLB AVERAGE itMISS LATENCY: 0 cycles
cpu0_STLB AVERAGE dtMISS LATENCY: 0 cycles
cpu0_STLB PAGE CROSSINGS (TLB HIT):         0 
cpu0_STLB PAGE CROSSINGS (TLB MISS):         0 
cpu0_STLB AVERAGE MISS LATENCY: 183.028 cycles
cpu0_L1D TOTAL       ACCESS:   44976224  HIT:   38725013  MISS:    6251211  iACCESS:          0  iHIT:          0  iMISS:          0  dACCESS:   44711531  dHIT:   38701055  dMISS:    6010476  itACCESS:      83465  itHIT:      13328  itMISS:      70137  dtACCESS:     181228  dtHIT:      10630  dtMISS:     170598
cpu0_L1D LOAD         ACCESS:   21615246  HIT:   18026852  MISS:    3588394  iACCESS:          0  iHIT:          0  iMISS:          0  dACCESS:   21615246  dHIT:   18026852  dMISS:    3588394  itACCESS:          0  itHIT:          0  itMISS:          0  dtACCESS:          0  dtHIT:          0  dtMISS:          0
cpu0_L1D RFO          ACCESS:          0  HIT:          0  MISS:          0  iACCESS:          0  iHIT:          0  iMISS:          0  dACCESS:          0  dHIT:          0  dMISS:          0  itACCESS:          0  itHIT:          0  itMISS:          0  dtACCESS:          0  dtHIT:          0  dtMISS:          0
cpu0_L1D PREFETCH     ACCESS:   13280023  HIT:   11324292  MISS:    1955731  iACCESS:          0  iHIT:          0  iMISS:          0  dACCESS:   13280023  dHIT:   11324292  dMISS:    1955731  itACCESS:          0  itHIT:          0  itMISS:          0  dtACCESS:          0  dtHIT:          0  dtMISS:          0
cpu0_L1D WRITE        ACCESS:    9816262  HIT:    9349911  MISS:     466351  iACCESS:          0  iHIT:          0  iMISS:          0  dACCESS:    9816262  dHIT:    9349911  dMISS:     466351  itACCESS:          0  itHIT:          0  itMISS:          0  dtACCESS:          0  dtHIT:          0  dtMISS:          0
cpu0_L1D TRANSLATION  ACCESS:     264693  HIT:      23958  MISS:     240735  iACCESS:          0  iHIT:          0  iMISS:          0  dACCESS:          0  dHIT:          0  dMISS:          0  itACCESS:      83465  itHIT:      13328  itMISS:      70137  dtACCESS:     181228  dtHIT:      10630  dtMISS:     170598
cpu0_L1D PREFETCH  REQUESTED:   21615246  ISSUED:   17502704  CROSSED:          0  USEFUL:     276486  USELESS:     834052
cpu0_L1D AVERAGE iMISS LATENCY: 0 cycles
cpu0_L1D AVERAGE dMISS LATENCY: 27.8988 cycles
cpu0_L1D AVERAGE itMISS LATENCY: 1.60887 cycles
cpu0_L1D AVERAGE dtMISS LATENCY: 4.00835 cycles
cpu0_L1D PAGE CROSSINGS (TLB HIT):         0 
cpu0_L1D PAGE CROSSINGS (TLB MISS):         0 
cpu0_L1D AVERAGE MISS LATENCY: 33.516 cycles
cpu0_L2C TOTAL       ACCESS:    8416473  HIT:    5275276  MISS:    3141197  iACCESS:    2988559  iHIT:    1809868  iMISS:    1178691  dACCESS:    5197543  dHIT:    3433662  dMISS:    1763881  itACCESS:      70137  itHIT:      12201  itMISS:      57936  dtACCESS:     160234  dtHIT:      19545  dtMISS:     140689
cpu0_L2C LOAD         ACCESS:    3250335  HIT:    2537565  MISS:     712770  iACCESS:     688007  iHIT:     441776  iMISS:     246231  dACCESS:    2562328  dHIT:    2095789  dMISS:     466539  itACCESS:          0  itHIT:          0  itMISS:          0  dtACCESS:          0  dtHIT:          0  dtMISS:          0
cpu0_L2C RFO          ACCESS:     169543  HIT:      77572  MISS:      91971  iACCESS:          0  iHIT:          0  iMISS:          0  dACCESS:     169543  dHIT:      77572  dMISS:      91971  itACCESS:          0  itHIT:          0  itMISS:          0  dtACCESS:          0  dtHIT:          0  dtMISS:          0
cpu0_L2C PREFETCH     ACCESS:    4518759  HIT:    2381957  MISS:    2136802  iACCESS:    2300552  iHIT:    1368092  iMISS:     932460  dACCESS:    2218207  dHIT:    1013865  dMISS:    1204342  itACCESS:          0  itHIT:          0  itMISS:          0  dtACCESS:          0  dtHIT:          0  dtMISS:          0
cpu0_L2C WRITE        ACCESS:     247465  HIT:     246436  MISS:       1029  iACCESS:          0  iHIT:          0  iMISS:          0  dACCESS:     247465  dHIT:     246436  dMISS:       1029  itACCESS:          0  itHIT:          0  itMISS:          0  dtACCESS:          0  dtHIT:          0  dtMISS:          0
cpu0_L2C TRANSLATION  ACCESS:     230371  HIT:      31746  MISS:     198625  iACCESS:          0  iHIT:          0  iMISS:          0  dACCESS:          0  dHIT:          0  dMISS:          0  itACCESS:      70137  itHIT:      12201  itMISS:      57936  dtACCESS:     160234  dtHIT:      19545  dtMISS:     140689
cpu0_L2C PREFETCH  REQUESTED:    1336358  ISSUED:    1336011  CROSSED:          0  USEFUL:     310128  USELESS:     264894
cpu0_L2C AVERAGE iMISS LATENCY: 35.7169 cycles
cpu0_L2C AVERAGE dMISS LATENCY: 61.4419 cycles
cpu0_L2C AVERAGE itMISS LATENCY: 2.98163 cycles
cpu0_L2C AVERAGE dtMISS LATENCY: 7.47004 cycles
cpu0_L2C PAGE CROSSINGS (TLB HIT):         0 
cpu0_L2C PAGE CROSSINGS (TLB MISS):         0 
cpu0_L2C AVERAGE MISS LATENCY: 107.611 cycles
LLC TOTAL       ACCESS:    3107968  HIT:    1360876  MISS:    1747092  iACCESS:    1108101  iHIT:     497830  iMISS:     610271  dACCESS:    1801242  dHIT:     822353  dMISS:     978889  itACCESS:      57936  itHIT:      10505  itMISS:      47431  dtACCESS:     140689  dtHIT:      30188  dtMISS:     110501
LLC LOAD         ACCESS:     707411  HIT:     330406  MISS:     377005  iACCESS:     245104  iHIT:     115322  iMISS:     129782  dACCESS:     462307  dHIT:     215084  dMISS:     247223  itACCESS:          0  itHIT:          0  itMISS:          0  dtACCESS:          0  dtHIT:          0  dtMISS:          0
LLC RFO          ACCESS:      91966  HIT:      34664  MISS:      57302  iACCESS:          0  iHIT:          0  iMISS:          0  dACCESS:      91966  dHIT:      34664  dMISS:      57302  itACCESS:          0  itHIT:          0  itMISS:          0  dtACCESS:          0  dtHIT:          0  dtMISS:          0
LLC PREFETCH     ACCESS:    1978366  HIT:     831097  MISS:    1147269  iACCESS:     862997  iHIT:     382508  iMISS:     480489  dACCESS:    1115369  dHIT:     448589  dMISS:     666780  itACCESS:          0  itHIT:          0  itMISS:          0  dtACCESS:          0  dtHIT:          0  dtMISS:          0
LLC WRITE        ACCESS:     131600  HIT:     124016  MISS:       7584  iACCESS:          0  iHIT:          0  iMISS:          0  dACCESS:     131600  dHIT:     124016  dMISS:       7584  itACCESS:          0  itHIT:          0  itMISS:          0  dtACCESS:          0  dtHIT:          0  dtMISS:          0
LLC TRANSLATION  ACCESS:     198625  HIT:      40693  MISS:     157932  iACCESS:          0  iHIT:          0  iMISS:          0  dACCESS:          0  dHIT:          0  dMISS:          0  itACCESS:      57936  itHIT:      10505  itMISS:      47431  dtACCESS:     140689  dtHIT:      30188  dtMISS:     110501
LLC PREFETCH  REQUESTED:          0  ISSUED:          0  CROSSED:          0  USEFUL:          0  USELESS:          0
LLC AVERAGE iMISS LATENCY: 51.7961 cycles
LLC AVERAGE dMISS LATENCY: 92.5685 cycles
LLC AVERAGE itMISS LATENCY: 4.70596 cycles
LLC AVERAGE dtMISS LATENCY: 11.8452 cycles
LLC PAGE CROSSINGS (TLB HIT):         0 
LLC PAGE CROSSINGS (TLB MISS):         0 
LLC AVERAGE MISS LATENCY: 160.916 cycles

PageTableWalker TOTAL       ACCESS:      91981  
PageTableWalker AVERAGE LATENCY: 5.06461 cycles
PageTableWalker TOTAL LATENCY: 465847 cycles

DRAM Statistics
Channel 0
 RQ ROW_BUFFER_HIT:     471827
  ROW_BUFFER_MISS:    1257043
 AVG DBUS CONGESTED CYCLE:    3.63878
 WQ ROW_BUFFER_HIT:      35189
  ROW_BUFFER_MISS:      23712  FULL:          0

