last_page:0x200000000000000
VMEM_RES_CAP:0x100000
PAGE_SIZE:4096
LOG2_PAGE_SIZE:12
LOG2_PAGE_TABLE_SIZE:9
page_table_levels:5
WARNING: physical memory size is smaller than virtual memory size
FDiP enabled with aggresivity 16

*** ChampSim Multicore Out-of-Order Simulator ***

Warmup Instructions: 50000000
Simulation Instructions: 100000000
Number of CPUs: 1
Small page size: 4096
Large page size: 2097152

CPU 0 Bimodal branch predictor
Basic BTB sets: 1024 ways: 8 indirect buffer size: 4096 RAS size: 64
Instruction page size distrubution: 0
Loading instruction page size distribution from /home/bsc/bsc018186/scratch/itp_asplos25_AE/dump/srv180_ap.pdst
Data page size distrubution: 0
Loading data page size distribution from /home/bsc/bsc018186/scratch/itp_asplos25_AE/dump/srv180_ap.pdst
cpu0_L2C IP-based stride prefetcher
cpu0_L2C is using xPTP/LRU
	TLB_LOWER_STRESS_THRESHOLD:1
	TLB_UPPER_STRESS_THRESHOLD:9
	MIN_EVICTION_POSITION:4
cpu0_L1D next line prefetcher
cpu0_STLB using iTP with max lru@8
cpu0_STLB using iTP with instr@0 and data@2
Init sat counter with 3 bits (max:50).
cpu0_L1I next line prefetcher
Off-chip DRAM Size: 4 GiB Channels: 1 Width: 64-bit Data Rate: 3200 MT/s
Heartbeat CPU 0 instructions: 10000002 cycles: 2500229 heartbeat IPC: 3.99964 cumulative IPC: 3.99964 (Simulation time: 0 hr 0 min 42 sec) 
Heartbeat CPU 0 instructions: 20000000 cycles: 5000300 heartbeat IPC: 3.99989 cumulative IPC: 3.99977 (Simulation time: 0 hr 1 min 25 sec) 
Heartbeat CPU 0 instructions: 30000000 cycles: 7500303 heartbeat IPC: 4 cumulative IPC: 3.99984 (Simulation time: 0 hr 2 min 9 sec) 
Heartbeat CPU 0 instructions: 40000003 cycles: 10000304 heartbeat IPC: 4 cumulative IPC: 3.99988 (Simulation time: 0 hr 2 min 53 sec) 
Heartbeat CPU 0 instructions: 50000002 cycles: 12500318 heartbeat IPC: 3.99998 cumulative IPC: 3.9999 (Simulation time: 0 hr 3 min 35 sec) 
Warmup finished CPU 0 instructions: 50000002 cycles: 12500319 cumulative IPC: 3.9999 (Simulation time: 0 hr 3 min 35 sec) 

Warmup complete CPU 0 instructions: 50000002 cycles: 12500319 (Simulation time: 0 hr 3 min 35 sec) 

Heartbeat CPU 0 instructions: 60000002 cycles: 25444211 heartbeat IPC: 0.772566 cumulative IPC: 0.772566 (Simulation time: 0 hr 4 min 38 sec) 
Heartbeat CPU 0 instructions: 70000002 cycles: 37961301 heartbeat IPC: 0.798908 cumulative IPC: 0.785516 (Simulation time: 0 hr 5 min 42 sec) 
Heartbeat CPU 0 instructions: 80000002 cycles: 50322088 heartbeat IPC: 0.80901 cumulative IPC: 0.793194 (Simulation time: 0 hr 6 min 53 sec) 
Heartbeat CPU 0 instructions: 90000001 cycles: 63321369 heartbeat IPC: 0.769274 cumulative IPC: 0.787076 (Simulation time: 0 hr 8 min 4 sec) 
Heartbeat CPU 0 instructions: 100000000 cycles: 75444491 heartbeat IPC: 0.82487 cumulative IPC: 0.794355 (Simulation time: 0 hr 9 min 14 sec) 
*** Reached end of trace: /gpfs/projects/bsc18/MN4/bsc18/romol/ChampSim/traces/qualcomm_srv/srv180_ap.champsimtrace.xz
Heartbeat CPU 0 instructions: 110000002 cycles: 88613494 heartbeat IPC: 0.75936 cumulative IPC: 0.7883 (Simulation time: 0 hr 10 min 26 sec) 
Heartbeat CPU 0 instructions: 120000001 cycles: 100874071 heartbeat IPC: 0.815623 cumulative IPC: 0.792091 (Simulation time: 0 hr 11 min 37 sec) 
Heartbeat CPU 0 instructions: 130000000 cycles: 113780817 heartbeat IPC: 0.774789 cumulative IPC: 0.789886 (Simulation time: 0 hr 12 min 48 sec) 
Heartbeat CPU 0 instructions: 140000001 cycles: 126324698 heartbeat IPC: 0.797202 cumulative IPC: 0.790692 (Simulation time: 0 hr 13 min 53 sec) 
Heartbeat CPU 0 instructions: 150000000 cycles: 138771887 heartbeat IPC: 0.803395 cumulative IPC: 0.791944 (Simulation time: 0 hr 15 min 2 sec) 
Simulation finished CPU 0 instructions: 100000000 cycles: 126271570 cumulative IPC: 0.791944 (Simulation time: 0 hr 15 min 2 sec) 

Simulation complete CPU 0 instructions: 100000000 cycles: 126271570 (Simulation time: 0 hr 15 min 2 sec) 


ChampSim completed all CPUs

Saving instructions large page distribution to /home/bsc/bsc018186/scratch/itp_asplos25_AE/dump/srv180_ap.pdst...
Saving data large page distribution to /home/bsc/bsc018186/scratch/itp_asplos25_AE/dump/srv180_ap.pdst...
=== Simulation ===
CPU 0 runs /gpfs/projects/bsc18/MN4/bsc18/romol/ChampSim/traces/qualcomm_srv/srv180_ap.champsimtrace.xz

Region of Interest Statistics

CPU 0 cumulative IPC: 0.791944 instructions: 100000000 cycles: 126271570
CPU 0 Branch Prediction Accuracy: 83.4184% MPKI: 29.7702 Average ROB Occupancy at Mispredict: 12.341
Branch type MPKI
BRANCH_DIRECT_JUMP: 0.945161
BRANCH_INDIRECT: 15.4666
BRANCH_CONDITIONAL: 9.74066
BRANCH_DIRECT_CALL: 1.80651
BRANCH_INDIRECT_CALL: 0.494821
BRANCH_RETURN: 1.31646

Instructions large pages: 0
Instructions small pages: 1015
Large page distribution for instructions: 0%

Data large pages: 0
Data small pages: 9026
Large page distribution for data: 0%

cpu0_L1I TOTAL       ACCESS:   34778143  HIT:   26581851  MISS:    8196292  iACCESS:   34778143  iHIT:   26581851  iMISS:    8196292  dACCESS:          0  dHIT:          0  dMISS:          0  itACCESS:          0  itHIT:          0  itMISS:          0  dtACCESS:          0  dtHIT:          0  dtMISS:          0
cpu0_L1I LOAD         ACCESS:   10135026  HIT:    7830045  MISS:    2304981  iACCESS:   10135026  iHIT:    7830045  iMISS:    2304981  dACCESS:          0  dHIT:          0  dMISS:          0  itACCESS:          0  itHIT:          0  itMISS:          0  dtACCESS:          0  dtHIT:          0  dtMISS:          0
cpu0_L1I RFO          ACCESS:          0  HIT:          0  MISS:          0  iACCESS:          0  iHIT:          0  iMISS:          0  dACCESS:          0  dHIT:          0  dMISS:          0  itACCESS:          0  itHIT:          0  itMISS:          0  dtACCESS:          0  dtHIT:          0  dtMISS:          0
cpu0_L1I PREFETCH     ACCESS:   24643117  HIT:   18751806  MISS:    5891311  iACCESS:   24643117  iHIT:   18751806  iMISS:    5891311  dACCESS:          0  dHIT:          0  dMISS:          0  itACCESS:          0  itHIT:          0  itMISS:          0  dtACCESS:          0  dtHIT:          0  dtMISS:          0
cpu0_L1I WRITE        ACCESS:          0  HIT:          0  MISS:          0  iACCESS:          0  iHIT:          0  iMISS:          0  dACCESS:          0  dHIT:          0  dMISS:          0  itACCESS:          0  itHIT:          0  itMISS:          0  dtACCESS:          0  dtHIT:          0  dtMISS:          0
cpu0_L1I TRANSLATION  ACCESS:          0  HIT:          0  MISS:          0  iACCESS:          0  iHIT:          0  iMISS:          0  dACCESS:          0  dHIT:          0  dMISS:          0  itACCESS:          0  itHIT:          0  itMISS:          0  dtACCESS:          0  dtHIT:          0  dtMISS:          0
cpu0_L1I PREFETCH  REQUESTED:   27027635  ISSUED:   27027339  CROSSED:          0  USEFUL:    1943534  USELESS:     641336
cpu0_L1I AVERAGE iMISS LATENCY: 10.6232 cycles
cpu0_L1I AVERAGE dMISS LATENCY: 0 cycles
cpu0_L1I AVERAGE itMISS LATENCY: 0 cycles
cpu0_L1I AVERAGE dtMISS LATENCY: 0 cycles
cpu0_L1I PAGE CROSSINGS (TLB HIT):         0 
cpu0_L1I PAGE CROSSINGS (TLB MISS):         0 
cpu0_L1I AVERAGE MISS LATENCY: 10.6232 cycles
cpu0_ITLB TOTAL       ACCESS:   28983122  HIT:   26974608  MISS:    2008514  iACCESS:   28983122  iHIT:   26974608  iMISS:    2008514  dACCESS:          0  dHIT:          0  dMISS:          0  itACCESS:          0  itHIT:          0  itMISS:          0  dtACCESS:          0  dtHIT:          0  dtMISS:          0
cpu0_ITLB LOAD         ACCESS:   28983122  HIT:   26974608  MISS:    2008514  iACCESS:   28983122  iHIT:   26974608  iMISS:    2008514  dACCESS:          0  dHIT:          0  dMISS:          0  itACCESS:          0  itHIT:          0  itMISS:          0  dtACCESS:          0  dtHIT:          0  dtMISS:          0
cpu0_ITLB RFO          ACCESS:          0  HIT:          0  MISS:          0  iACCESS:          0  iHIT:          0  iMISS:          0  dACCESS:          0  dHIT:          0  dMISS:          0  itACCESS:          0  itHIT:          0  itMISS:          0  dtACCESS:          0  dtHIT:          0  dtMISS:          0
cpu0_ITLB PREFETCH     ACCESS:          0  HIT:          0  MISS:          0  iACCESS:          0  iHIT:          0  iMISS:          0  dACCESS:          0  dHIT:          0  dMISS:          0  itACCESS:          0  itHIT:          0  itMISS:          0  dtACCESS:          0  dtHIT:          0  dtMISS:          0
cpu0_ITLB WRITE        ACCESS:          0  HIT:          0  MISS:          0  iACCESS:          0  iHIT:          0  iMISS:          0  dACCESS:          0  dHIT:          0  dMISS:          0  itACCESS:          0  itHIT:          0  itMISS:          0  dtACCESS:          0  dtHIT:          0  dtMISS:          0
cpu0_ITLB TRANSLATION  ACCESS:          0  HIT:          0  MISS:          0  iACCESS:          0  iHIT:          0  iMISS:          0  dACCESS:          0  dHIT:          0  dMISS:          0  itACCESS:          0  itHIT:          0  itMISS:          0  dtACCESS:          0  dtHIT:          0  dtMISS:          0
cpu0_ITLB PREFETCH  REQUESTED:          0  ISSUED:          0  CROSSED:          0  USEFUL:     326876  USELESS:      64231
cpu0_ITLB AVERAGE iMISS LATENCY: 1.77888 cycles
cpu0_ITLB AVERAGE dMISS LATENCY: 0 cycles
cpu0_ITLB AVERAGE itMISS LATENCY: 0 cycles
cpu0_ITLB AVERAGE dtMISS LATENCY: 0 cycles
cpu0_ITLB PAGE CROSSINGS (TLB HIT):         0 
cpu0_ITLB PAGE CROSSINGS (TLB MISS):         0 
cpu0_ITLB AVERAGE MISS LATENCY: 1.77888 cycles
cpu0_DTLB TOTAL       ACCESS:   27710415  HIT:   25863391  MISS:    1847024  iACCESS:          0  iHIT:          0  iMISS:          0  dACCESS:   27710415  dHIT:   25863391  dMISS:    1847024  itACCESS:          0  itHIT:          0  itMISS:          0  dtACCESS:          0  dtHIT:          0  dtMISS:          0
cpu0_DTLB LOAD         ACCESS:   27710415  HIT:   25863391  MISS:    1847024  iACCESS:          0  iHIT:          0  iMISS:          0  dACCESS:   27710415  dHIT:   25863391  dMISS:    1847024  itACCESS:          0  itHIT:          0  itMISS:          0  dtACCESS:          0  dtHIT:          0  dtMISS:          0
cpu0_DTLB RFO          ACCESS:          0  HIT:          0  MISS:          0  iACCESS:          0  iHIT:          0  iMISS:          0  dACCESS:          0  dHIT:          0  dMISS:          0  itACCESS:          0  itHIT:          0  itMISS:          0  dtACCESS:          0  dtHIT:          0  dtMISS:          0
cpu0_DTLB PREFETCH     ACCESS:          0  HIT:          0  MISS:          0  iACCESS:          0  iHIT:          0  iMISS:          0  dACCESS:          0  dHIT:          0  dMISS:          0  itACCESS:          0  itHIT:          0  itMISS:          0  dtACCESS:          0  dtHIT:          0  dtMISS:          0
cpu0_DTLB WRITE        ACCESS:          0  HIT:          0  MISS:          0  iACCESS:          0  iHIT:          0  iMISS:          0  dACCESS:          0  dHIT:          0  dMISS:          0  itACCESS:          0  itHIT:          0  itMISS:          0  dtACCESS:          0  dtHIT:          0  dtMISS:          0
cpu0_DTLB TRANSLATION  ACCESS:          0  HIT:          0  MISS:          0  iACCESS:          0  iHIT:          0  iMISS:          0  dACCESS:          0  dHIT:          0  dMISS:          0  itACCESS:          0  itHIT:          0  itMISS:          0  dtACCESS:          0  dtHIT:          0  dtMISS:          0
cpu0_DTLB PREFETCH  REQUESTED:          0  ISSUED:          0  CROSSED:          0  USEFUL:          0  USELESS:          0
cpu0_DTLB AVERAGE iMISS LATENCY: 0 cycles
cpu0_DTLB AVERAGE dMISS LATENCY: 10.736 cycles
cpu0_DTLB AVERAGE itMISS LATENCY: 0 cycles
cpu0_DTLB AVERAGE dtMISS LATENCY: 0 cycles
cpu0_DTLB PAGE CROSSINGS (TLB HIT):         0 
cpu0_DTLB PAGE CROSSINGS (TLB MISS):         0 
cpu0_DTLB AVERAGE MISS LATENCY: 10.736 cycles
cpu0_STLB TOTAL       ACCESS:    1521073  HIT:    1387628  MISS:     133445  iACCESS:     391117  iHIT:     385955  iMISS:       5162  dACCESS:    1129956  dHIT:    1001673  dMISS:     128283  itACCESS:          0  itHIT:          0  itMISS:          0  dtACCESS:          0  dtHIT:          0  dtMISS:          0
cpu0_STLB LOAD         ACCESS:    1521073  HIT:    1387628  MISS:     133445  iACCESS:     391117  iHIT:     385955  iMISS:       5162  dACCESS:    1129956  dHIT:    1001673  dMISS:     128283  itACCESS:          0  itHIT:          0  itMISS:          0  dtACCESS:          0  dtHIT:          0  dtMISS:          0
cpu0_STLB RFO          ACCESS:          0  HIT:          0  MISS:          0  iACCESS:          0  iHIT:          0  iMISS:          0  dACCESS:          0  dHIT:          0  dMISS:          0  itACCESS:          0  itHIT:          0  itMISS:          0  dtACCESS:          0  dtHIT:          0  dtMISS:          0
cpu0_STLB PREFETCH     ACCESS:          0  HIT:          0  MISS:          0  iACCESS:          0  iHIT:          0  iMISS:          0  dACCESS:          0  dHIT:          0  dMISS:          0  itACCESS:          0  itHIT:          0  itMISS:          0  dtACCESS:          0  dtHIT:          0  dtMISS:          0
cpu0_STLB WRITE        ACCESS:          0  HIT:          0  MISS:          0  iACCESS:          0  iHIT:          0  iMISS:          0  dACCESS:          0  dHIT:          0  dMISS:          0  itACCESS:          0  itHIT:          0  itMISS:          0  dtACCESS:          0  dtHIT:          0  dtMISS:          0
cpu0_STLB TRANSLATION  ACCESS:          0  HIT:          0  MISS:          0  iACCESS:          0  iHIT:          0  iMISS:          0  dACCESS:          0  dHIT:          0  dMISS:          0  itACCESS:          0  itHIT:          0  itMISS:          0  dtACCESS:          0  dtHIT:          0  dtMISS:          0
cpu0_STLB PREFETCH  REQUESTED:          0  ISSUED:          0  CROSSED:          0  USEFUL:          0  USELESS:          0
cpu0_STLB AVERAGE iMISS LATENCY: 4.06659 cycles
cpu0_STLB AVERAGE dMISS LATENCY: 80.8823 cycles
cpu0_STLB AVERAGE itMISS LATENCY: 0 cycles
cpu0_STLB AVERAGE dtMISS LATENCY: 0 cycles
cpu0_STLB PAGE CROSSINGS (TLB HIT):         0 
cpu0_STLB PAGE CROSSINGS (TLB MISS):         0 
cpu0_STLB AVERAGE MISS LATENCY: 84.9489 cycles
cpu0_L1D TOTAL       ACCESS:   41504617  HIT:   37948029  MISS:    3556588  iACCESS:          0  iHIT:          0  iMISS:          0  dACCESS:   41301736  dHIT:   37935681  dMISS:    3366055  itACCESS:       6329  itHIT:        657  itMISS:       5672  dtACCESS:     196552  dtHIT:      11691  dtMISS:     184861
cpu0_L1D LOAD         ACCESS:   18982463  HIT:   17442027  MISS:    1540436  iACCESS:          0  iHIT:          0  iMISS:          0  dACCESS:   18982463  dHIT:   17442027  dMISS:    1540436  itACCESS:          0  itHIT:          0  itMISS:          0  dtACCESS:          0  dtHIT:          0  dtMISS:          0
cpu0_L1D RFO          ACCESS:          0  HIT:          0  MISS:          0  iACCESS:          0  iHIT:          0  iMISS:          0  dACCESS:          0  dHIT:          0  dMISS:          0  itACCESS:          0  itHIT:          0  itMISS:          0  dtACCESS:          0  dtHIT:          0  dtMISS:          0
cpu0_L1D PREFETCH     ACCESS:   12167049  HIT:   10777359  MISS:    1389690  iACCESS:          0  iHIT:          0  iMISS:          0  dACCESS:   12167049  dHIT:   10777359  dMISS:    1389690  itACCESS:          0  itHIT:          0  itMISS:          0  dtACCESS:          0  dtHIT:          0  dtMISS:          0
cpu0_L1D WRITE        ACCESS:   10152224  HIT:    9716295  MISS:     435929  iACCESS:          0  iHIT:          0  iMISS:          0  dACCESS:   10152224  dHIT:    9716295  dMISS:     435929  itACCESS:          0  itHIT:          0  itMISS:          0  dtACCESS:          0  dtHIT:          0  dtMISS:          0
cpu0_L1D TRANSLATION  ACCESS:     202881  HIT:      12348  MISS:     190533  iACCESS:          0  iHIT:          0  iMISS:          0  dACCESS:          0  dHIT:          0  dMISS:          0  itACCESS:       6329  itHIT:        657  itMISS:       5672  dtACCESS:     196552  dtHIT:      11691  dtMISS:     184861
cpu0_L1D PREFETCH  REQUESTED:   18982463  ISSUED:   16958294  CROSSED:          0  USEFUL:     311067  USELESS:     706837
cpu0_L1D AVERAGE iMISS LATENCY: 0 cycles
cpu0_L1D AVERAGE dMISS LATENCY: 27.7121 cycles
cpu0_L1D AVERAGE itMISS LATENCY: 0.136187 cycles
cpu0_L1D AVERAGE dtMISS LATENCY: 2.34118 cycles
cpu0_L1D PAGE CROSSINGS (TLB HIT):         0 
cpu0_L1D PAGE CROSSINGS (TLB MISS):         0 
cpu0_L1D AVERAGE MISS LATENCY: 30.1895 cycles
cpu0_L2C TOTAL       ACCESS:    7022931  HIT:    2693711  MISS:    4329220  iACCESS:    3346838  iHIT:    1507423  iMISS:    1839415  dACCESS:    3499749  dHIT:    1061531  dMISS:    2438218  itACCESS:       5517  itHIT:       2256  itMISS:       3261  dtACCESS:     170827  dtHIT:     122501  dtMISS:      48326
cpu0_L2C LOAD         ACCESS:    1744700  HIT:     590812  MISS:    1153888  iACCESS:     803316  iHIT:     328752  iMISS:     474564  dACCESS:     941384  dHIT:     262060  dMISS:     679324  itACCESS:          0  itHIT:          0  itMISS:          0  dtACCESS:          0  dtHIT:          0  dtMISS:          0
cpu0_L2C RFO          ACCESS:     155476  HIT:      34470  MISS:     121006  iACCESS:          0  iHIT:          0  iMISS:          0  dACCESS:     155476  dHIT:      34470  dMISS:     121006  itACCESS:          0  itHIT:          0  itMISS:          0  dtACCESS:          0  dtHIT:          0  dtMISS:          0
cpu0_L2C PREFETCH     ACCESS:    4660818  HIT:    1813412  MISS:    2847406  iACCESS:    2543522  iHIT:    1178671  iMISS:    1364851  dACCESS:    2117296  dHIT:     634741  dMISS:    1482555  itACCESS:          0  itHIT:          0  itMISS:          0  dtACCESS:          0  dtHIT:          0  dtMISS:          0
cpu0_L2C WRITE        ACCESS:     285593  HIT:     130260  MISS:     155333  iACCESS:          0  iHIT:          0  iMISS:          0  dACCESS:     285593  dHIT:     130260  dMISS:     155333  itACCESS:          0  itHIT:          0  itMISS:          0  dtACCESS:          0  dtHIT:          0  dtMISS:          0
cpu0_L2C TRANSLATION  ACCESS:     176344  HIT:     124757  MISS:      51587  iACCESS:          0  iHIT:          0  iMISS:          0  dACCESS:          0  dHIT:          0  dMISS:          0  itACCESS:       5517  itHIT:       2256  itMISS:       3261  dtACCESS:     170827  dtHIT:     122501  dtMISS:      48326
cpu0_L2C PREFETCH  REQUESTED:    1386281  ISSUED:    1386281  CROSSED:          0  USEFUL:     352615  USELESS:     325460
cpu0_L2C AVERAGE iMISS LATENCY: 12.9785 cycles
cpu0_L2C AVERAGE dMISS LATENCY: 24.5446 cycles
cpu0_L2C AVERAGE itMISS LATENCY: 0.0996351 cycles
cpu0_L2C AVERAGE dtMISS LATENCY: 1.55477 cycles
cpu0_L2C PAGE CROSSINGS (TLB HIT):         0 
cpu0_L2C PAGE CROSSINGS (TLB MISS):         0 
cpu0_L2C AVERAGE MISS LATENCY: 39.1775 cycles
LLC TOTAL       ACCESS:    4288904  HIT:    3723107  MISS:     565797  iACCESS:    1795381  iHIT:    1651937  iMISS:     143444  dACCESS:    2441936  dHIT:    2054797  dMISS:     387139  itACCESS:       3261  itHIT:       1150  itMISS:       2111  dtACCESS:      48326  dtHIT:      15223  dtMISS:      33103
LLC LOAD         ACCESS:    1152160  HIT:    1021814  MISS:     130346  iACCESS:     473100  iHIT:     440380  iMISS:      32720  dACCESS:     679060  dHIT:     581434  dMISS:      97626  itACCESS:          0  itHIT:          0  itMISS:          0  dtACCESS:          0  dtHIT:          0  dtMISS:          0
LLC RFO          ACCESS:     121004  HIT:      89143  MISS:      31861  iACCESS:          0  iHIT:          0  iMISS:          0  dACCESS:     121004  dHIT:      89143  dMISS:      31861  itACCESS:          0  itHIT:          0  itMISS:          0  dtACCESS:          0  dtHIT:          0  dtMISS:          0
LLC PREFETCH     ACCESS:    2765259  HIT:    2398796  MISS:     366463  iACCESS:    1322281  iHIT:    1211557  iMISS:     110724  dACCESS:    1442978  dHIT:    1187239  dMISS:     255739  itACCESS:          0  itHIT:          0  itMISS:          0  dtACCESS:          0  dtHIT:          0  dtMISS:          0
LLC WRITE        ACCESS:     198894  HIT:     196981  MISS:       1913  iACCESS:          0  iHIT:          0  iMISS:          0  dACCESS:     198894  dHIT:     196981  dMISS:       1913  itACCESS:          0  itHIT:          0  itMISS:          0  dtACCESS:          0  dtHIT:          0  dtMISS:          0
LLC TRANSLATION  ACCESS:      51587  HIT:      16373  MISS:      35214  iACCESS:          0  iHIT:          0  iMISS:          0  dACCESS:          0  dHIT:          0  dMISS:          0  itACCESS:       3261  itHIT:       1150  itMISS:       2111  dtACCESS:      48326  dtHIT:      15223  dtMISS:      33103
LLC PREFETCH  REQUESTED:          0  ISSUED:          0  CROSSED:          0  USEFUL:          0  USELESS:          0
LLC AVERAGE iMISS LATENCY: 38.1616 cycles
LLC AVERAGE dMISS LATENCY: 111.273 cycles
LLC AVERAGE itMISS LATENCY: 0.649355 cycles
LLC AVERAGE dtMISS LATENCY: 10.2186 cycles
LLC PAGE CROSSINGS (TLB HIT):         0 
LLC PAGE CROSSINGS (TLB MISS):         0 
LLC AVERAGE MISS LATENCY: 160.303 cycles

PageTableWalker TOTAL       ACCESS:      66834  
PageTableWalker AVERAGE LATENCY: 4.76542 cycles
PageTableWalker TOTAL LATENCY: 318492 cycles

DRAM Statistics
Channel 0
 RQ ROW_BUFFER_HIT:     147574
  ROW_BUFFER_MISS:     416255
 AVG DBUS CONGESTED CYCLE:    3.64607
 WQ ROW_BUFFER_HIT:      14311
  ROW_BUFFER_MISS:      27043  FULL:          0

