last_page:0x200000000000000
VMEM_RES_CAP:0x100000
PAGE_SIZE:4096
LOG2_PAGE_SIZE:12
LOG2_PAGE_TABLE_SIZE:9
page_table_levels:5
WARNING: physical memory size is smaller than virtual memory size
FDiP enabled with aggresivity 16

*** ChampSim Multicore Out-of-Order Simulator ***

Warmup Instructions: 50000000
Simulation Instructions: 100000000
Number of CPUs: 1
Small page size: 4096
Large page size: 2097152

CPU 0 Bimodal branch predictor
Basic BTB sets: 1024 ways: 8 indirect buffer size: 4096 RAS size: 64
Instruction page size distrubution: 0
Loading instruction page size distribution from /home/bsc/bsc018186/scratch/itp_asplos25_AE/dump/srv16_ap.pdst
Data page size distrubution: 0
Loading data page size distribution from /home/bsc/bsc018186/scratch/itp_asplos25_AE/dump/srv16_ap.pdst
cpu0_L2C IP-based stride prefetcher
cpu0_L2C is using xPTP/LRU
	TLB_LOWER_STRESS_THRESHOLD:1
	TLB_UPPER_STRESS_THRESHOLD:9
	MIN_EVICTION_POSITION:4
cpu0_L1D next line prefetcher
cpu0_STLB using iTP with max lru@8
cpu0_STLB using iTP with instr@0 and data@2
Init sat counter with 3 bits (max:50).
cpu0_L1I next line prefetcher
Off-chip DRAM Size: 4 GiB Channels: 1 Width: 64-bit Data Rate: 3200 MT/s
Heartbeat CPU 0 instructions: 10000003 cycles: 2500234 heartbeat IPC: 3.99963 cumulative IPC: 3.99963 (Simulation time: 0 hr 0 min 40 sec) 
Heartbeat CPU 0 instructions: 20000003 cycles: 5000276 heartbeat IPC: 3.99994 cumulative IPC: 3.99978 (Simulation time: 0 hr 1 min 24 sec) 
Heartbeat CPU 0 instructions: 30000002 cycles: 7500326 heartbeat IPC: 3.99992 cumulative IPC: 3.99983 (Simulation time: 0 hr 2 min 9 sec) 
Heartbeat CPU 0 instructions: 40000002 cycles: 10000327 heartbeat IPC: 4 cumulative IPC: 3.99987 (Simulation time: 0 hr 2 min 54 sec) 
Heartbeat CPU 0 instructions: 50000001 cycles: 12500364 heartbeat IPC: 3.99995 cumulative IPC: 3.99989 (Simulation time: 0 hr 3 min 40 sec) 
Warmup finished CPU 0 instructions: 50000001 cycles: 12500365 cumulative IPC: 3.99989 (Simulation time: 0 hr 3 min 40 sec) 

Warmup complete CPU 0 instructions: 50000001 cycles: 12500365 (Simulation time: 0 hr 3 min 40 sec) 

Heartbeat CPU 0 instructions: 60000001 cycles: 25191645 heartbeat IPC: 0.787943 cumulative IPC: 0.787943 (Simulation time: 0 hr 4 min 44 sec) 
Heartbeat CPU 0 instructions: 70000004 cycles: 37897140 heartbeat IPC: 0.787062 cumulative IPC: 0.787502 (Simulation time: 0 hr 5 min 53 sec) 
Heartbeat CPU 0 instructions: 80000003 cycles: 50802885 heartbeat IPC: 0.774849 cumulative IPC: 0.783239 (Simulation time: 0 hr 7 min 3 sec) 
Heartbeat CPU 0 instructions: 90000000 cycles: 63513043 heartbeat IPC: 0.786773 cumulative IPC: 0.784119 (Simulation time: 0 hr 8 min 11 sec) 
Heartbeat CPU 0 instructions: 100000001 cycles: 76423251 heartbeat IPC: 0.774581 cumulative IPC: 0.782193 (Simulation time: 0 hr 9 min 17 sec) 
*** Reached end of trace: /gpfs/projects/bsc18/MN4/bsc18/romol/ChampSim/traces/qualcomm_srv/srv16_ap.champsimtrace.xz
Heartbeat CPU 0 instructions: 110000002 cycles: 89655797 heartbeat IPC: 0.755713 cumulative IPC: 0.777652 (Simulation time: 0 hr 10 min 27 sec) 
Heartbeat CPU 0 instructions: 120000002 cycles: 102113955 heartbeat IPC: 0.802687 cumulative IPC: 0.781132 (Simulation time: 0 hr 11 min 35 sec) 
Heartbeat CPU 0 instructions: 130000002 cycles: 115069658 heartbeat IPC: 0.771861 cumulative IPC: 0.779961 (Simulation time: 0 hr 12 min 41 sec) 
Heartbeat CPU 0 instructions: 140000000 cycles: 127312517 heartbeat IPC: 0.816803 cumulative IPC: 0.78389 (Simulation time: 0 hr 13 min 49 sec) 
Heartbeat CPU 0 instructions: 150000001 cycles: 140359423 heartbeat IPC: 0.766466 cumulative IPC: 0.782112 (Simulation time: 0 hr 14 min 58 sec) 
Simulation finished CPU 0 instructions: 100000000 cycles: 127859059 cumulative IPC: 0.782112 (Simulation time: 0 hr 14 min 58 sec) 

Simulation complete CPU 0 instructions: 100000000 cycles: 127859059 (Simulation time: 0 hr 14 min 58 sec) 


ChampSim completed all CPUs

Saving instructions large page distribution to /home/bsc/bsc018186/scratch/itp_asplos25_AE/dump/srv16_ap.pdst...
Saving data large page distribution to /home/bsc/bsc018186/scratch/itp_asplos25_AE/dump/srv16_ap.pdst...
=== Simulation ===
CPU 0 runs /gpfs/projects/bsc18/MN4/bsc18/romol/ChampSim/traces/qualcomm_srv/srv16_ap.champsimtrace.xz

Region of Interest Statistics

CPU 0 cumulative IPC: 0.782112 instructions: 100000000 cycles: 127859059
CPU 0 Branch Prediction Accuracy: 83.3333% MPKI: 29.9146 Average ROB Occupancy at Mispredict: 12.3897
Branch type MPKI
BRANCH_DIRECT_JUMP: 0.965031
BRANCH_INDIRECT: 15.5278
BRANCH_CONDITIONAL: 9.75805
BRANCH_DIRECT_CALL: 1.83743
BRANCH_INDIRECT_CALL: 0.492221
BRANCH_RETURN: 1.33412

Instructions large pages: 0
Instructions small pages: 9894
Large page distribution for instructions: 0%

Data large pages: 0
Data small pages: 9057
Large page distribution for data: 0%

cpu0_L1I TOTAL       ACCESS:   34821256  HIT:   26625096  MISS:    8196160  iACCESS:   34821256  iHIT:   26625096  iMISS:    8196160  dACCESS:          0  dHIT:          0  dMISS:          0  itACCESS:          0  itHIT:          0  itMISS:          0  dtACCESS:          0  dtHIT:          0  dtMISS:          0
cpu0_L1I LOAD         ACCESS:   10158137  HIT:    7854509  MISS:    2303628  iACCESS:   10158137  iHIT:    7854509  iMISS:    2303628  dACCESS:          0  dHIT:          0  dMISS:          0  itACCESS:          0  itHIT:          0  itMISS:          0  dtACCESS:          0  dtHIT:          0  dtMISS:          0
cpu0_L1I RFO          ACCESS:          0  HIT:          0  MISS:          0  iACCESS:          0  iHIT:          0  iMISS:          0  dACCESS:          0  dHIT:          0  dMISS:          0  itACCESS:          0  itHIT:          0  itMISS:          0  dtACCESS:          0  dtHIT:          0  dtMISS:          0
cpu0_L1I PREFETCH     ACCESS:   24663119  HIT:   18770587  MISS:    5892532  iACCESS:   24663119  iHIT:   18770587  iMISS:    5892532  dACCESS:          0  dHIT:          0  dMISS:          0  itACCESS:          0  itHIT:          0  itMISS:          0  dtACCESS:          0  dtHIT:          0  dtMISS:          0
cpu0_L1I WRITE        ACCESS:          0  HIT:          0  MISS:          0  iACCESS:          0  iHIT:          0  iMISS:          0  dACCESS:          0  dHIT:          0  dMISS:          0  itACCESS:          0  itHIT:          0  itMISS:          0  dtACCESS:          0  dtHIT:          0  dtMISS:          0
cpu0_L1I TRANSLATION  ACCESS:          0  HIT:          0  MISS:          0  iACCESS:          0  iHIT:          0  iMISS:          0  dACCESS:          0  dHIT:          0  dMISS:          0  itACCESS:          0  itHIT:          0  itMISS:          0  dtACCESS:          0  dtHIT:          0  dtMISS:          0
cpu0_L1I PREFETCH  REQUESTED:   27055140  ISSUED:   27054975  CROSSED:          0  USEFUL:    1942576  USELESS:     637291
cpu0_L1I AVERAGE iMISS LATENCY: 10.9073 cycles
cpu0_L1I AVERAGE dMISS LATENCY: 0 cycles
cpu0_L1I AVERAGE itMISS LATENCY: 0 cycles
cpu0_L1I AVERAGE dtMISS LATENCY: 0 cycles
cpu0_L1I PAGE CROSSINGS (TLB HIT):         0 
cpu0_L1I PAGE CROSSINGS (TLB MISS):         0 
cpu0_L1I AVERAGE MISS LATENCY: 10.9073 cycles
cpu0_ITLB TOTAL       ACCESS:   28991747  HIT:   27009408  MISS:    1982339  iACCESS:   28991747  iHIT:   27009408  iMISS:    1982339  dACCESS:          0  dHIT:          0  dMISS:          0  itACCESS:          0  itHIT:          0  itMISS:          0  dtACCESS:          0  dtHIT:          0  dtMISS:          0
cpu0_ITLB LOAD         ACCESS:   28991747  HIT:   27009408  MISS:    1982339  iACCESS:   28991747  iHIT:   27009408  iMISS:    1982339  dACCESS:          0  dHIT:          0  dMISS:          0  itACCESS:          0  itHIT:          0  itMISS:          0  dtACCESS:          0  dtHIT:          0  dtMISS:          0
cpu0_ITLB RFO          ACCESS:          0  HIT:          0  MISS:          0  iACCESS:          0  iHIT:          0  iMISS:          0  dACCESS:          0  dHIT:          0  dMISS:          0  itACCESS:          0  itHIT:          0  itMISS:          0  dtACCESS:          0  dtHIT:          0  dtMISS:          0
cpu0_ITLB PREFETCH     ACCESS:          0  HIT:          0  MISS:          0  iACCESS:          0  iHIT:          0  iMISS:          0  dACCESS:          0  dHIT:          0  dMISS:          0  itACCESS:          0  itHIT:          0  itMISS:          0  dtACCESS:          0  dtHIT:          0  dtMISS:          0
cpu0_ITLB WRITE        ACCESS:          0  HIT:          0  MISS:          0  iACCESS:          0  iHIT:          0  iMISS:          0  dACCESS:          0  dHIT:          0  dMISS:          0  itACCESS:          0  itHIT:          0  itMISS:          0  dtACCESS:          0  dtHIT:          0  dtMISS:          0
cpu0_ITLB TRANSLATION  ACCESS:          0  HIT:          0  MISS:          0  iACCESS:          0  iHIT:          0  iMISS:          0  dACCESS:          0  dHIT:          0  dMISS:          0  itACCESS:          0  itHIT:          0  itMISS:          0  dtACCESS:          0  dtHIT:          0  dtMISS:          0
cpu0_ITLB PREFETCH  REQUESTED:          0  ISSUED:          0  CROSSED:          0  USEFUL:     326858  USELESS:      62077
cpu0_ITLB AVERAGE iMISS LATENCY: 1.79412 cycles
cpu0_ITLB AVERAGE dMISS LATENCY: 0 cycles
cpu0_ITLB AVERAGE itMISS LATENCY: 0 cycles
cpu0_ITLB AVERAGE dtMISS LATENCY: 0 cycles
cpu0_ITLB PAGE CROSSINGS (TLB HIT):         0 
cpu0_ITLB PAGE CROSSINGS (TLB MISS):         0 
cpu0_ITLB AVERAGE MISS LATENCY: 1.79412 cycles
cpu0_DTLB TOTAL       ACCESS:   27738108  HIT:   25622820  MISS:    2115288  iACCESS:          0  iHIT:          0  iMISS:          0  dACCESS:   27738108  dHIT:   25622820  dMISS:    2115288  itACCESS:          0  itHIT:          0  itMISS:          0  dtACCESS:          0  dtHIT:          0  dtMISS:          0
cpu0_DTLB LOAD         ACCESS:   27738108  HIT:   25622820  MISS:    2115288  iACCESS:          0  iHIT:          0  iMISS:          0  dACCESS:   27738108  dHIT:   25622820  dMISS:    2115288  itACCESS:          0  itHIT:          0  itMISS:          0  dtACCESS:          0  dtHIT:          0  dtMISS:          0
cpu0_DTLB RFO          ACCESS:          0  HIT:          0  MISS:          0  iACCESS:          0  iHIT:          0  iMISS:          0  dACCESS:          0  dHIT:          0  dMISS:          0  itACCESS:          0  itHIT:          0  itMISS:          0  dtACCESS:          0  dtHIT:          0  dtMISS:          0
cpu0_DTLB PREFETCH     ACCESS:          0  HIT:          0  MISS:          0  iACCESS:          0  iHIT:          0  iMISS:          0  dACCESS:          0  dHIT:          0  dMISS:          0  itACCESS:          0  itHIT:          0  itMISS:          0  dtACCESS:          0  dtHIT:          0  dtMISS:          0
cpu0_DTLB WRITE        ACCESS:          0  HIT:          0  MISS:          0  iACCESS:          0  iHIT:          0  iMISS:          0  dACCESS:          0  dHIT:          0  dMISS:          0  itACCESS:          0  itHIT:          0  itMISS:          0  dtACCESS:          0  dtHIT:          0  dtMISS:          0
cpu0_DTLB TRANSLATION  ACCESS:          0  HIT:          0  MISS:          0  iACCESS:          0  iHIT:          0  iMISS:          0  dACCESS:          0  dHIT:          0  dMISS:          0  itACCESS:          0  itHIT:          0  itMISS:          0  dtACCESS:          0  dtHIT:          0  dtMISS:          0
cpu0_DTLB PREFETCH  REQUESTED:          0  ISSUED:          0  CROSSED:          0  USEFUL:          0  USELESS:          0
cpu0_DTLB AVERAGE iMISS LATENCY: 0 cycles
cpu0_DTLB AVERAGE dMISS LATENCY: 9.73169 cycles
cpu0_DTLB AVERAGE itMISS LATENCY: 0 cycles
cpu0_DTLB AVERAGE dtMISS LATENCY: 0 cycles
cpu0_DTLB PAGE CROSSINGS (TLB HIT):         0 
cpu0_DTLB PAGE CROSSINGS (TLB MISS):         0 
cpu0_DTLB AVERAGE MISS LATENCY: 9.73169 cycles
cpu0_STLB TOTAL       ACCESS:    1645668  HIT:    1513299  MISS:     132369  iACCESS:     388956  iHIT:     383971  iMISS:       4985  dACCESS:    1256712  dHIT:    1129328  dMISS:     127384  itACCESS:          0  itHIT:          0  itMISS:          0  dtACCESS:          0  dtHIT:          0  dtMISS:          0
cpu0_STLB LOAD         ACCESS:    1645668  HIT:    1513299  MISS:     132369  iACCESS:     388956  iHIT:     383971  iMISS:       4985  dACCESS:    1256712  dHIT:    1129328  dMISS:     127384  itACCESS:          0  itHIT:          0  itMISS:          0  dtACCESS:          0  dtHIT:          0  dtMISS:          0
cpu0_STLB RFO          ACCESS:          0  HIT:          0  MISS:          0  iACCESS:          0  iHIT:          0  iMISS:          0  dACCESS:          0  dHIT:          0  dMISS:          0  itACCESS:          0  itHIT:          0  itMISS:          0  dtACCESS:          0  dtHIT:          0  dtMISS:          0
cpu0_STLB PREFETCH     ACCESS:          0  HIT:          0  MISS:          0  iACCESS:          0  iHIT:          0  iMISS:          0  dACCESS:          0  dHIT:          0  dMISS:          0  itACCESS:          0  itHIT:          0  itMISS:          0  dtACCESS:          0  dtHIT:          0  dtMISS:          0
cpu0_STLB WRITE        ACCESS:          0  HIT:          0  MISS:          0  iACCESS:          0  iHIT:          0  iMISS:          0  dACCESS:          0  dHIT:          0  dMISS:          0  itACCESS:          0  itHIT:          0  itMISS:          0  dtACCESS:          0  dtHIT:          0  dtMISS:          0
cpu0_STLB TRANSLATION  ACCESS:          0  HIT:          0  MISS:          0  iACCESS:          0  iHIT:          0  iMISS:          0  dACCESS:          0  dHIT:          0  dMISS:          0  itACCESS:          0  itHIT:          0  itMISS:          0  dtACCESS:          0  dtHIT:          0  dtMISS:          0
cpu0_STLB PREFETCH  REQUESTED:          0  ISSUED:          0  CROSSED:          0  USEFUL:          0  USELESS:          0
cpu0_STLB AVERAGE iMISS LATENCY: 4.1056 cycles
cpu0_STLB AVERAGE dMISS LATENCY: 79.7689 cycles
cpu0_STLB AVERAGE itMISS LATENCY: 0 cycles
cpu0_STLB AVERAGE dtMISS LATENCY: 0 cycles
cpu0_STLB PAGE CROSSINGS (TLB HIT):         0 
cpu0_STLB PAGE CROSSINGS (TLB MISS):         0 
cpu0_STLB AVERAGE MISS LATENCY: 83.8745 cycles
cpu0_L1D TOTAL       ACCESS:   41498274  HIT:   38011994  MISS:    3486280  iACCESS:          0  iHIT:          0  iMISS:          0  dACCESS:   41299425  dHIT:   37999986  dMISS:    3299439  itACCESS:       6077  itHIT:        530  itMISS:       5547  dtACCESS:     192772  dtHIT:      11478  dtMISS:     181294
cpu0_L1D LOAD         ACCESS:   18951809  HIT:   17435808  MISS:    1516001  iACCESS:          0  iHIT:          0  iMISS:          0  dACCESS:   18951809  dHIT:   17435808  dMISS:    1516001  itACCESS:          0  itHIT:          0  itMISS:          0  dtACCESS:          0  dtHIT:          0  dtMISS:          0
cpu0_L1D RFO          ACCESS:          0  HIT:          0  MISS:          0  iACCESS:          0  iHIT:          0  iMISS:          0  dACCESS:          0  dHIT:          0  dMISS:          0  itACCESS:          0  itHIT:          0  itMISS:          0  dtACCESS:          0  dtHIT:          0  dtMISS:          0
cpu0_L1D PREFETCH     ACCESS:   12205950  HIT:   10855084  MISS:    1350866  iACCESS:          0  iHIT:          0  iMISS:          0  dACCESS:   12205950  dHIT:   10855084  dMISS:    1350866  itACCESS:          0  itHIT:          0  itMISS:          0  dtACCESS:          0  dtHIT:          0  dtMISS:          0
cpu0_L1D WRITE        ACCESS:   10141666  HIT:    9709094  MISS:     432572  iACCESS:          0  iHIT:          0  iMISS:          0  dACCESS:   10141666  dHIT:    9709094  dMISS:     432572  itACCESS:          0  itHIT:          0  itMISS:          0  dtACCESS:          0  dtHIT:          0  dtMISS:          0
cpu0_L1D TRANSLATION  ACCESS:     198849  HIT:      12008  MISS:     186841  iACCESS:          0  iHIT:          0  iMISS:          0  dACCESS:          0  dHIT:          0  dMISS:          0  itACCESS:       6077  itHIT:        530  itMISS:       5547  dtACCESS:     192772  dtHIT:      11478  dtMISS:     181294
cpu0_L1D PREFETCH  REQUESTED:   18951809  ISSUED:   17068570  CROSSED:          0  USEFUL:     309240  USELESS:     706675
cpu0_L1D AVERAGE iMISS LATENCY: 0 cycles
cpu0_L1D AVERAGE dMISS LATENCY: 28.2844 cycles
cpu0_L1D AVERAGE itMISS LATENCY: 0.139084 cycles
cpu0_L1D AVERAGE dtMISS LATENCY: 2.30563 cycles
cpu0_L1D PAGE CROSSINGS (TLB HIT):         0 
cpu0_L1D PAGE CROSSINGS (TLB MISS):         0 
cpu0_L1D AVERAGE MISS LATENCY: 30.7291 cycles
cpu0_L2C TOTAL       ACCESS:    7011980  HIT:    2642539  MISS:    4369441  iACCESS:    3330632  iHIT:    1449678  iMISS:    1880954  dACCESS:    3505436  dHIT:    1068311  dMISS:    2437125  itACCESS:       5547  itHIT:       2098  itMISS:       3449  dtACCESS:     170365  dtHIT:     122452  dtMISS:      47913
cpu0_L2C LOAD         ACCESS:    1731494  HIT:     576208  MISS:    1155286  iACCESS:     792123  iHIT:     316610  iMISS:     475513  dACCESS:     939371  dHIT:     259598  dMISS:     679773  itACCESS:          0  itHIT:          0  itMISS:          0  dtACCESS:          0  dtHIT:          0  dtMISS:          0
cpu0_L2C RFO          ACCESS:     155799  HIT:      36352  MISS:     119447  iACCESS:          0  iHIT:          0  iMISS:          0  dACCESS:     155799  dHIT:      36352  dMISS:     119447  itACCESS:          0  itHIT:          0  itMISS:          0  dtACCESS:          0  dtHIT:          0  dtMISS:          0
cpu0_L2C PREFETCH     ACCESS:    4663052  HIT:    1771756  MISS:    2891296  iACCESS:    2538509  iHIT:    1133068  iMISS:    1405441  dACCESS:    2124543  dHIT:     638688  dMISS:    1485855  itACCESS:          0  itHIT:          0  itMISS:          0  dtACCESS:          0  dtHIT:          0  dtMISS:          0
cpu0_L2C WRITE        ACCESS:     285723  HIT:     133673  MISS:     152050  iACCESS:          0  iHIT:          0  iMISS:          0  dACCESS:     285723  dHIT:     133673  dMISS:     152050  itACCESS:          0  itHIT:          0  itMISS:          0  dtACCESS:          0  dtHIT:          0  dtMISS:          0
cpu0_L2C TRANSLATION  ACCESS:     175912  HIT:     124550  MISS:      51362  iACCESS:          0  iHIT:          0  iMISS:          0  dACCESS:          0  dHIT:          0  dMISS:          0  itACCESS:       5547  itHIT:       2098  itMISS:       3449  dtACCESS:     170365  dtHIT:     122452  dtMISS:      47913
cpu0_L2C PREFETCH  REQUESTED:    1394148  ISSUED:    1394148  CROSSED:          0  USEFUL:     347701  USELESS:     328547
cpu0_L2C AVERAGE iMISS LATENCY: 13.4767 cycles
cpu0_L2C AVERAGE dMISS LATENCY: 24.6831 cycles
cpu0_L2C AVERAGE itMISS LATENCY: 0.0987266 cycles
cpu0_L2C AVERAGE dtMISS LATENCY: 1.4756 cycles
cpu0_L2C PAGE CROSSINGS (TLB HIT):         0 
cpu0_L2C PAGE CROSSINGS (TLB MISS):         0 
cpu0_L2C AVERAGE MISS LATENCY: 39.7341 cycles
LLC TOTAL       ACCESS:    4328249  HIT:    3742021  MISS:     586228  iACCESS:    1835296  iHIT:    1679565  iMISS:     155731  dACCESS:    2441591  dHIT:    2044898  dMISS:     396693  itACCESS:       3449  itHIT:       1435  itMISS:       2014  dtACCESS:      47913  dtHIT:      16123  dtMISS:      31790
LLC LOAD         ACCESS:    1153507  HIT:    1022536  MISS:     130971  iACCESS:     473975  iHIT:     441672  iMISS:      32303  dACCESS:     679532  dHIT:     580864  dMISS:      98668  itACCESS:          0  itHIT:          0  itMISS:          0  dtACCESS:          0  dtHIT:          0  dtMISS:          0
LLC RFO          ACCESS:     119439  HIT:      88004  MISS:      31435  iACCESS:          0  iHIT:          0  iMISS:          0  dACCESS:     119439  dHIT:      88004  dMISS:      31435  itACCESS:          0  itHIT:          0  itMISS:          0  dtACCESS:          0  dtHIT:          0  dtMISS:          0
LLC PREFETCH     ACCESS:    2808340  HIT:    2420134  MISS:     388206  iACCESS:    1361321  iHIT:    1237893  iMISS:     123428  dACCESS:    1447019  dHIT:    1182241  dMISS:     264778  itACCESS:          0  itHIT:          0  itMISS:          0  dtACCESS:          0  dtHIT:          0  dtMISS:          0
LLC WRITE        ACCESS:     195601  HIT:     193789  MISS:       1812  iACCESS:          0  iHIT:          0  iMISS:          0  dACCESS:     195601  dHIT:     193789  dMISS:       1812  itACCESS:          0  itHIT:          0  itMISS:          0  dtACCESS:          0  dtHIT:          0  dtMISS:          0
LLC TRANSLATION  ACCESS:      51362  HIT:      17558  MISS:      33804  iACCESS:          0  iHIT:          0  iMISS:          0  dACCESS:          0  dHIT:          0  dMISS:          0  itACCESS:       3449  itHIT:       1435  itMISS:       2014  dtACCESS:      47913  dtHIT:      16123  dtMISS:      31790
LLC PREFETCH  REQUESTED:          0  ISSUED:          0  CROSSED:          0  USEFUL:          0  USELESS:          0
LLC AVERAGE iMISS LATENCY: 40.0689 cycles
LLC AVERAGE dMISS LATENCY: 109.982 cycles
LLC AVERAGE itMISS LATENCY: 0.620924 cycles
LLC AVERAGE dtMISS LATENCY: 9.39466 cycles
LLC PAGE CROSSINGS (TLB HIT):         0 
LLC PAGE CROSSINGS (TLB MISS):         0 
LLC AVERAGE MISS LATENCY: 160.066 cycles

PageTableWalker TOTAL       ACCESS:      66314  
PageTableWalker AVERAGE LATENCY: 4.67921 cycles
PageTableWalker TOTAL LATENCY: 310297 cycles

DRAM Statistics
Channel 0
 RQ ROW_BUFFER_HIT:     143821
  ROW_BUFFER_MISS:     440582
 AVG DBUS CONGESTED CYCLE:    3.62647
 WQ ROW_BUFFER_HIT:      14391
  ROW_BUFFER_MISS:      26491  FULL:          0

