last_page:0x200000000000000
VMEM_RES_CAP:0x100000
PAGE_SIZE:4096
LOG2_PAGE_SIZE:12
LOG2_PAGE_TABLE_SIZE:9
page_table_levels:5
WARNING: physical memory size is smaller than virtual memory size
FDiP enabled with aggresivity 16

*** ChampSim Multicore Out-of-Order Simulator ***

Warmup Instructions: 50000000
Simulation Instructions: 100000000
Number of CPUs: 1
Small page size: 4096
Large page size: 2097152

CPU 0 Bimodal branch predictor
Basic BTB sets: 1024 ways: 8 indirect buffer size: 4096 RAS size: 64
Instruction page size distrubution: 0
Loading instruction page size distribution from /home/bsc/bsc018186/scratch/itp_asplos25_AE/dump/srv147_ap.pdst
Data page size distrubution: 0
Loading data page size distribution from /home/bsc/bsc018186/scratch/itp_asplos25_AE/dump/srv147_ap.pdst
cpu0_L2C IP-based stride prefetcher
cpu0_L2C is using PTP replacement policy:
	TLB_STRESS_THRESHOLD:0
	PTE_EVICTION_RATIO:0
cpu0_L1D next line prefetcher
cpu0_L1I next line prefetcher
Off-chip DRAM Size: 4 GiB Channels: 1 Width: 64-bit Data Rate: 3200 MT/s
Heartbeat CPU 0 instructions: 10000000 cycles: 2500187 heartbeat IPC: 3.99971 cumulative IPC: 3.99971 (Simulation time: 0 hr 0 min 37 sec) 
Heartbeat CPU 0 instructions: 20000001 cycles: 5000211 heartbeat IPC: 3.99997 cumulative IPC: 3.99984 (Simulation time: 0 hr 1 min 16 sec) 
Heartbeat CPU 0 instructions: 30000001 cycles: 7500213 heartbeat IPC: 4 cumulative IPC: 3.99989 (Simulation time: 0 hr 1 min 56 sec) 
Heartbeat CPU 0 instructions: 40000000 cycles: 10000247 heartbeat IPC: 3.99995 cumulative IPC: 3.99991 (Simulation time: 0 hr 2 min 37 sec) 
Heartbeat CPU 0 instructions: 50000001 cycles: 12844554 heartbeat IPC: 3.5158 cumulative IPC: 3.89271 (Simulation time: 0 hr 3 min 19 sec) 
Warmup finished CPU 0 instructions: 50000001 cycles: 12844555 cumulative IPC: 3.89271 (Simulation time: 0 hr 3 min 19 sec) 

Warmup complete CPU 0 instructions: 50000001 cycles: 12844555 (Simulation time: 0 hr 3 min 19 sec) 

Heartbeat CPU 0 instructions: 60000001 cycles: 23805919 heartbeat IPC: 0.912296 cumulative IPC: 0.912296 (Simulation time: 0 hr 4 min 20 sec) 
Heartbeat CPU 0 instructions: 70000002 cycles: 37961460 heartbeat IPC: 0.706438 cumulative IPC: 0.796277 (Simulation time: 0 hr 5 min 25 sec) 
Heartbeat CPU 0 instructions: 80000002 cycles: 52772634 heartbeat IPC: 0.675166 cumulative IPC: 0.751351 (Simulation time: 0 hr 6 min 31 sec) 
Heartbeat CPU 0 instructions: 90000003 cycles: 67652164 heartbeat IPC: 0.672065 cumulative IPC: 0.729826 (Simulation time: 0 hr 7 min 38 sec) 
Heartbeat CPU 0 instructions: 100000000 cycles: 82343866 heartbeat IPC: 0.680657 cumulative IPC: 0.719432 (Simulation time: 0 hr 8 min 44 sec) 
*** Reached end of trace: /gpfs/projects/bsc18/MN4/bsc18/romol/ChampSim/traces/qualcomm_srv/srv147_ap.champsimtrace.xz
Heartbeat CPU 0 instructions: 110000000 cycles: 96392843 heartbeat IPC: 0.711796 cumulative IPC: 0.718148 (Simulation time: 0 hr 9 min 49 sec) 
Heartbeat CPU 0 instructions: 120000003 cycles: 110385982 heartbeat IPC: 0.714637 cumulative IPC: 0.717644 (Simulation time: 0 hr 10 min 54 sec) 
Heartbeat CPU 0 instructions: 130000001 cycles: 123862794 heartbeat IPC: 0.742016 cumulative IPC: 0.720603 (Simulation time: 0 hr 11 min 58 sec) 
Heartbeat CPU 0 instructions: 140000002 cycles: 137889323 heartbeat IPC: 0.712935 cumulative IPC: 0.719743 (Simulation time: 0 hr 13 min 3 sec) 
Heartbeat CPU 0 instructions: 150000003 cycles: 149433256 heartbeat IPC: 0.866256 cumulative IPC: 0.732125 (Simulation time: 0 hr 14 min 6 sec) 
Simulation finished CPU 0 instructions: 100000002 cycles: 136588702 cumulative IPC: 0.732125 (Simulation time: 0 hr 14 min 6 sec) 

Simulation complete CPU 0 instructions: 100000002 cycles: 136588702 (Simulation time: 0 hr 14 min 6 sec) 


ChampSim completed all CPUs

Saving instructions large page distribution to /home/bsc/bsc018186/scratch/itp_asplos25_AE/dump/srv147_ap.pdst...
Saving data large page distribution to /home/bsc/bsc018186/scratch/itp_asplos25_AE/dump/srv147_ap.pdst...
=== Simulation ===
CPU 0 runs /gpfs/projects/bsc18/MN4/bsc18/romol/ChampSim/traces/qualcomm_srv/srv147_ap.champsimtrace.xz

Region of Interest Statistics

CPU 0 cumulative IPC: 0.732125 instructions: 100000002 cycles: 136588702
CPU 0 Branch Prediction Accuracy: 84.8416% MPKI: 28.5957 Average ROB Occupancy at Mispredict: 13.2895
Branch type MPKI
BRANCH_DIRECT_JUMP: 0.94834
BRANCH_INDIRECT: 14.7217
BRANCH_CONDITIONAL: 9.43381
BRANCH_DIRECT_CALL: 1.71992
BRANCH_INDIRECT_CALL: 0.53337
BRANCH_RETURN: 1.23848

Instructions large pages: 0
Instructions small pages: 10728
Large page distribution for instructions: 0%

Data large pages: 0
Data small pages: 9646
Large page distribution for data: 0%

cpu0_L1I TOTAL       ACCESS:   35003462  HIT:   27212105  MISS:    7791357  iACCESS:   35003462  iHIT:   27212105  iMISS:    7791357  dACCESS:          0  dHIT:          0  dMISS:          0  itACCESS:          0  itHIT:          0  itMISS:          0  dtACCESS:          0  dtHIT:          0  dtMISS:          0
cpu0_L1I LOAD         ACCESS:    9668332  HIT:    7491994  MISS:    2176338  iACCESS:    9668332  iHIT:    7491994  iMISS:    2176338  dACCESS:          0  dHIT:          0  dMISS:          0  itACCESS:          0  itHIT:          0  itMISS:          0  dtACCESS:          0  dtHIT:          0  dtMISS:          0
cpu0_L1I RFO          ACCESS:          0  HIT:          0  MISS:          0  iACCESS:          0  iHIT:          0  iMISS:          0  dACCESS:          0  dHIT:          0  dMISS:          0  itACCESS:          0  itHIT:          0  itMISS:          0  dtACCESS:          0  dtHIT:          0  dtMISS:          0
cpu0_L1I PREFETCH     ACCESS:   25335130  HIT:   19720111  MISS:    5615019  iACCESS:   25335130  iHIT:   19720111  iMISS:    5615019  dACCESS:          0  dHIT:          0  dMISS:          0  itACCESS:          0  itHIT:          0  itMISS:          0  dtACCESS:          0  dtHIT:          0  dtMISS:          0
cpu0_L1I WRITE        ACCESS:          0  HIT:          0  MISS:          0  iACCESS:          0  iHIT:          0  iMISS:          0  dACCESS:          0  dHIT:          0  dMISS:          0  itACCESS:          0  itHIT:          0  itMISS:          0  dtACCESS:          0  dtHIT:          0  dtMISS:          0
cpu0_L1I TRANSLATION  ACCESS:          0  HIT:          0  MISS:          0  iACCESS:          0  iHIT:          0  iMISS:          0  dACCESS:          0  dHIT:          0  dMISS:          0  itACCESS:          0  itHIT:          0  itMISS:          0  dtACCESS:          0  dtHIT:          0  dtMISS:          0
cpu0_L1I PREFETCH  REQUESTED:   27424584  ISSUED:   27423262  CROSSED:          0  USEFUL:    1779070  USELESS:     576352
cpu0_L1I AVERAGE iMISS LATENCY: 13.8251 cycles
cpu0_L1I AVERAGE dMISS LATENCY: 0 cycles
cpu0_L1I AVERAGE itMISS LATENCY: 0 cycles
cpu0_L1I AVERAGE dtMISS LATENCY: 0 cycles
cpu0_L1I PAGE CROSSINGS (TLB HIT):         0 
cpu0_L1I PAGE CROSSINGS (TLB MISS):         0 
cpu0_L1I AVERAGE MISS LATENCY: 13.8251 cycles
cpu0_ITLB TOTAL       ACCESS:   28983136  HIT:   27209161  MISS:    1773975  iACCESS:   28983136  iHIT:   27209161  iMISS:    1773975  dACCESS:          0  dHIT:          0  dMISS:          0  itACCESS:          0  itHIT:          0  itMISS:          0  dtACCESS:          0  dtHIT:          0  dtMISS:          0
cpu0_ITLB LOAD         ACCESS:   28983136  HIT:   27209161  MISS:    1773975  iACCESS:   28983136  iHIT:   27209161  iMISS:    1773975  dACCESS:          0  dHIT:          0  dMISS:          0  itACCESS:          0  itHIT:          0  itMISS:          0  dtACCESS:          0  dtHIT:          0  dtMISS:          0
cpu0_ITLB RFO          ACCESS:          0  HIT:          0  MISS:          0  iACCESS:          0  iHIT:          0  iMISS:          0  dACCESS:          0  dHIT:          0  dMISS:          0  itACCESS:          0  itHIT:          0  itMISS:          0  dtACCESS:          0  dtHIT:          0  dtMISS:          0
cpu0_ITLB PREFETCH     ACCESS:          0  HIT:          0  MISS:          0  iACCESS:          0  iHIT:          0  iMISS:          0  dACCESS:          0  dHIT:          0  dMISS:          0  itACCESS:          0  itHIT:          0  itMISS:          0  dtACCESS:          0  dtHIT:          0  dtMISS:          0
cpu0_ITLB WRITE        ACCESS:          0  HIT:          0  MISS:          0  iACCESS:          0  iHIT:          0  iMISS:          0  dACCESS:          0  dHIT:          0  dMISS:          0  itACCESS:          0  itHIT:          0  itMISS:          0  dtACCESS:          0  dtHIT:          0  dtMISS:          0
cpu0_ITLB TRANSLATION  ACCESS:          0  HIT:          0  MISS:          0  iACCESS:          0  iHIT:          0  iMISS:          0  dACCESS:          0  dHIT:          0  dMISS:          0  itACCESS:          0  itHIT:          0  itMISS:          0  dtACCESS:          0  dtHIT:          0  dtMISS:          0
cpu0_ITLB PREFETCH  REQUESTED:          0  ISSUED:          0  CROSSED:          0  USEFUL:     290321  USELESS:      58731
cpu0_ITLB AVERAGE iMISS LATENCY: 2.88276 cycles
cpu0_ITLB AVERAGE dMISS LATENCY: 0 cycles
cpu0_ITLB AVERAGE itMISS LATENCY: 0 cycles
cpu0_ITLB AVERAGE dtMISS LATENCY: 0 cycles
cpu0_ITLB PAGE CROSSINGS (TLB HIT):         0 
cpu0_ITLB PAGE CROSSINGS (TLB MISS):         0 
cpu0_ITLB AVERAGE MISS LATENCY: 2.88276 cycles
cpu0_DTLB TOTAL       ACCESS:   29059568  HIT:   25478905  MISS:    3580663  iACCESS:          0  iHIT:          0  iMISS:          0  dACCESS:   29059568  dHIT:   25478905  dMISS:    3580663  itACCESS:          0  itHIT:          0  itMISS:          0  dtACCESS:          0  dtHIT:          0  dtMISS:          0
cpu0_DTLB LOAD         ACCESS:   29059568  HIT:   25478905  MISS:    3580663  iACCESS:          0  iHIT:          0  iMISS:          0  dACCESS:   29059568  dHIT:   25478905  dMISS:    3580663  itACCESS:          0  itHIT:          0  itMISS:          0  dtACCESS:          0  dtHIT:          0  dtMISS:          0
cpu0_DTLB RFO          ACCESS:          0  HIT:          0  MISS:          0  iACCESS:          0  iHIT:          0  iMISS:          0  dACCESS:          0  dHIT:          0  dMISS:          0  itACCESS:          0  itHIT:          0  itMISS:          0  dtACCESS:          0  dtHIT:          0  dtMISS:          0
cpu0_DTLB PREFETCH     ACCESS:          0  HIT:          0  MISS:          0  iACCESS:          0  iHIT:          0  iMISS:          0  dACCESS:          0  dHIT:          0  dMISS:          0  itACCESS:          0  itHIT:          0  itMISS:          0  dtACCESS:          0  dtHIT:          0  dtMISS:          0
cpu0_DTLB WRITE        ACCESS:          0  HIT:          0  MISS:          0  iACCESS:          0  iHIT:          0  iMISS:          0  dACCESS:          0  dHIT:          0  dMISS:          0  itACCESS:          0  itHIT:          0  itMISS:          0  dtACCESS:          0  dtHIT:          0  dtMISS:          0
cpu0_DTLB TRANSLATION  ACCESS:          0  HIT:          0  MISS:          0  iACCESS:          0  iHIT:          0  iMISS:          0  dACCESS:          0  dHIT:          0  dMISS:          0  itACCESS:          0  itHIT:          0  itMISS:          0  dtACCESS:          0  dtHIT:          0  dtMISS:          0
cpu0_DTLB PREFETCH  REQUESTED:          0  ISSUED:          0  CROSSED:          0  USEFUL:          0  USELESS:          0
cpu0_DTLB AVERAGE iMISS LATENCY: 0 cycles
cpu0_DTLB AVERAGE dMISS LATENCY: 6.63748 cycles
cpu0_DTLB AVERAGE itMISS LATENCY: 0 cycles
cpu0_DTLB AVERAGE dtMISS LATENCY: 0 cycles
cpu0_DTLB PAGE CROSSINGS (TLB HIT):         0 
cpu0_DTLB PAGE CROSSINGS (TLB MISS):         0 
cpu0_DTLB AVERAGE MISS LATENCY: 6.63748 cycles
cpu0_STLB TOTAL       ACCESS:    2277823  HIT:    2124438  MISS:     153385  iACCESS:     349055  iHIT:     296225  iMISS:      52830  dACCESS:    1928768  dHIT:    1828213  dMISS:     100555  itACCESS:          0  itHIT:          0  itMISS:          0  dtACCESS:          0  dtHIT:          0  dtMISS:          0
cpu0_STLB LOAD         ACCESS:    2277823  HIT:    2124438  MISS:     153385  iACCESS:     349055  iHIT:     296225  iMISS:      52830  dACCESS:    1928768  dHIT:    1828213  dMISS:     100555  itACCESS:          0  itHIT:          0  itMISS:          0  dtACCESS:          0  dtHIT:          0  dtMISS:          0
cpu0_STLB RFO          ACCESS:          0  HIT:          0  MISS:          0  iACCESS:          0  iHIT:          0  iMISS:          0  dACCESS:          0  dHIT:          0  dMISS:          0  itACCESS:          0  itHIT:          0  itMISS:          0  dtACCESS:          0  dtHIT:          0  dtMISS:          0
cpu0_STLB PREFETCH     ACCESS:          0  HIT:          0  MISS:          0  iACCESS:          0  iHIT:          0  iMISS:          0  dACCESS:          0  dHIT:          0  dMISS:          0  itACCESS:          0  itHIT:          0  itMISS:          0  dtACCESS:          0  dtHIT:          0  dtMISS:          0
cpu0_STLB WRITE        ACCESS:          0  HIT:          0  MISS:          0  iACCESS:          0  iHIT:          0  iMISS:          0  dACCESS:          0  dHIT:          0  dMISS:          0  itACCESS:          0  itHIT:          0  itMISS:          0  dtACCESS:          0  dtHIT:          0  dtMISS:          0
cpu0_STLB TRANSLATION  ACCESS:          0  HIT:          0  MISS:          0  iACCESS:          0  iHIT:          0  iMISS:          0  dACCESS:          0  dHIT:          0  dMISS:          0  itACCESS:          0  itHIT:          0  itMISS:          0  dtACCESS:          0  dtHIT:          0  dtMISS:          0
cpu0_STLB PREFETCH  REQUESTED:          0  ISSUED:          0  CROSSED:          0  USEFUL:          0  USELESS:          0
cpu0_STLB AVERAGE iMISS LATENCY: 15.3928 cycles
cpu0_STLB AVERAGE dMISS LATENCY: 53.6681 cycles
cpu0_STLB AVERAGE itMISS LATENCY: 0 cycles
cpu0_STLB AVERAGE dtMISS LATENCY: 0 cycles
cpu0_STLB PAGE CROSSINGS (TLB HIT):         0 
cpu0_STLB PAGE CROSSINGS (TLB MISS):         0 
cpu0_STLB AVERAGE MISS LATENCY: 69.0608 cycles
cpu0_L1D TOTAL       ACCESS:   44221799  HIT:   38410890  MISS:    5810909  iACCESS:          0  iHIT:          0  iMISS:          0  dACCESS:   44010823  dHIT:   38392876  dMISS:    5617947  itACCESS:      57270  itHIT:       8150  itMISS:      49120  dtACCESS:     153706  dtHIT:       9864  dtMISS:     143842
cpu0_L1D LOAD         ACCESS:   21196499  HIT:   18014048  MISS:    3182451  iACCESS:          0  iHIT:          0  iMISS:          0  dACCESS:   21196499  dHIT:   18014048  dMISS:    3182451  itACCESS:          0  itHIT:          0  itMISS:          0  dtACCESS:          0  dtHIT:          0  dtMISS:          0
cpu0_L1D RFO          ACCESS:          0  HIT:          0  MISS:          0  iACCESS:          0  iHIT:          0  iMISS:          0  dACCESS:          0  dHIT:          0  dMISS:          0  itACCESS:          0  itHIT:          0  itMISS:          0  dtACCESS:          0  dtHIT:          0  dtMISS:          0
cpu0_L1D PREFETCH     ACCESS:   12911466  HIT:   10909675  MISS:    2001791  iACCESS:          0  iHIT:          0  iMISS:          0  dACCESS:   12911466  dHIT:   10909675  dMISS:    2001791  itACCESS:          0  itHIT:          0  itMISS:          0  dtACCESS:          0  dtHIT:          0  dtMISS:          0
cpu0_L1D WRITE        ACCESS:    9902858  HIT:    9469153  MISS:     433705  iACCESS:          0  iHIT:          0  iMISS:          0  dACCESS:    9902858  dHIT:    9469153  dMISS:     433705  itACCESS:          0  itHIT:          0  itMISS:          0  dtACCESS:          0  dtHIT:          0  dtMISS:          0
cpu0_L1D TRANSLATION  ACCESS:     210976  HIT:      18014  MISS:     192962  iACCESS:          0  iHIT:          0  iMISS:          0  dACCESS:          0  dHIT:          0  dMISS:          0  itACCESS:      57270  itHIT:       8150  itMISS:      49120  dtACCESS:     153706  dtHIT:       9864  dtMISS:     143842
cpu0_L1D PREFETCH  REQUESTED:   21196499  ISSUED:   17058846  CROSSED:          0  USEFUL:     280775  USELESS:     695465
cpu0_L1D AVERAGE iMISS LATENCY: 0 cycles
cpu0_L1D AVERAGE dMISS LATENCY: 24.6622 cycles
cpu0_L1D AVERAGE itMISS LATENCY: 0.324076 cycles
cpu0_L1D AVERAGE dtMISS LATENCY: 1.0144 cycles
cpu0_L1D PAGE CROSSINGS (TLB HIT):         0 
cpu0_L1D PAGE CROSSINGS (TLB MISS):         0 
cpu0_L1D AVERAGE MISS LATENCY: 26.0006 cycles
cpu0_L2C TOTAL       ACCESS:    7586023  HIT:    1541209  MISS:    6044814  iACCESS:    3032044  iHIT:     641260  iMISS:    2390784  dACCESS:    4372613  dHIT:     758406  dMISS:    3614207  itACCESS:      49120  itHIT:      38343  itMISS:      10777  dtACCESS:     132246  dtHIT:     103200  dtMISS:      29046
cpu0_L2C LOAD         ACCESS:    2644505  HIT:     494039  MISS:    2150466  iACCESS:     711294  iHIT:      90689  iMISS:     620605  dACCESS:    1933211  dHIT:     403350  dMISS:    1529861  itACCESS:          0  itHIT:          0  itMISS:          0  dtACCESS:          0  dtHIT:          0  dtMISS:          0
cpu0_L2C RFO          ACCESS:     162701  HIT:      14062  MISS:     148639  iACCESS:          0  iHIT:          0  iMISS:          0  dACCESS:     162701  dHIT:      14062  dMISS:     148639  itACCESS:          0  itHIT:          0  itMISS:          0  dtACCESS:          0  dtHIT:          0  dtMISS:          0
cpu0_L2C PREFETCH     ACCESS:    4338864  HIT:     842921  MISS:    3495943  iACCESS:    2320750  iHIT:     550571  iMISS:    1770179  dACCESS:    2018114  dHIT:     292350  dMISS:    1725764  itACCESS:          0  itHIT:          0  itMISS:          0  dtACCESS:          0  dtHIT:          0  dtMISS:          0
cpu0_L2C WRITE        ACCESS:     258587  HIT:      48644  MISS:     209943  iACCESS:          0  iHIT:          0  iMISS:          0  dACCESS:     258587  dHIT:      48644  dMISS:     209943  itACCESS:          0  itHIT:          0  itMISS:          0  dtACCESS:          0  dtHIT:          0  dtMISS:          0
cpu0_L2C TRANSLATION  ACCESS:     181366  HIT:     141543  MISS:      39823  iACCESS:          0  iHIT:          0  iMISS:          0  dACCESS:          0  dHIT:          0  dMISS:          0  itACCESS:      49120  itHIT:      38343  itMISS:      10777  dtACCESS:     132246  dtHIT:     103200  dtMISS:      29046
cpu0_L2C PREFETCH  REQUESTED:    1281769  ISSUED:    1281769  CROSSED:          0  USEFUL:     394935  USELESS:     352778
cpu0_L2C AVERAGE iMISS LATENCY: 13.1476 cycles
cpu0_L2C AVERAGE dMISS LATENCY: 24.8794 cycles
cpu0_L2C AVERAGE itMISS LATENCY: 0.236416 cycles
cpu0_L2C AVERAGE dtMISS LATENCY: 0.772241 cycles
cpu0_L2C PAGE CROSSINGS (TLB HIT):         0 
cpu0_L2C PAGE CROSSINGS (TLB MISS):         0 
cpu0_L2C AVERAGE MISS LATENCY: 39.0356 cycles
LLC TOTAL       ACCESS:    5958675  HIT:    5177340  MISS:     781335  iACCESS:    2340731  iHIT:    2109594  iMISS:     231137  dACCESS:    3578121  dHIT:    3058024  dMISS:     520097  itACCESS:      10777  itHIT:       3792  itMISS:       6985  dtACCESS:      29046  dtHIT:       5930  dtMISS:      23116
LLC LOAD         ACCESS:    2147977  HIT:    1962287  MISS:     185690  iACCESS:     619183  iHIT:     568792  iMISS:      50391  dACCESS:    1528794  dHIT:    1393495  dMISS:     135299  itACCESS:          0  itHIT:          0  itMISS:          0  dtACCESS:          0  dtHIT:          0  dtMISS:          0
LLC RFO          ACCESS:     148630  HIT:     111416  MISS:      37214  iACCESS:          0  iHIT:          0  iMISS:          0  dACCESS:     148630  dHIT:     111416  dMISS:      37214  itACCESS:          0  itHIT:          0  itMISS:          0  dtACCESS:          0  dtHIT:          0  dtMISS:          0
LLC PREFETCH     ACCESS:    3386850  HIT:    2858520  MISS:     528330  iACCESS:    1721548  iHIT:    1540802  iMISS:     180746  dACCESS:    1665302  dHIT:    1317718  dMISS:     347584  itACCESS:          0  itHIT:          0  itMISS:          0  dtACCESS:          0  dtHIT:          0  dtMISS:          0
LLC WRITE        ACCESS:     235395  HIT:     235395  MISS:          0  iACCESS:          0  iHIT:          0  iMISS:          0  dACCESS:     235395  dHIT:     235395  dMISS:          0  itACCESS:          0  itHIT:          0  itMISS:          0  dtACCESS:          0  dtHIT:          0  dtMISS:          0
LLC TRANSLATION  ACCESS:      39823  HIT:       9722  MISS:      30101  iACCESS:          0  iHIT:          0  iMISS:          0  dACCESS:          0  dHIT:          0  dMISS:          0  itACCESS:      10777  itHIT:       3792  itMISS:       6985  dtACCESS:      29046  dtHIT:       5930  dtMISS:      23116
LLC PREFETCH  REQUESTED:          0  ISSUED:          0  CROSSED:          0  USEFUL:          0  USELESS:          0
LLC AVERAGE iMISS LATENCY: 43.9111 cycles
LLC AVERAGE dMISS LATENCY: 109.815 cycles
LLC AVERAGE itMISS LATENCY: 1.55863 cycles
LLC AVERAGE dtMISS LATENCY: 5.24204 cycles
LLC PAGE CROSSINGS (TLB HIT):         0 
LLC PAGE CROSSINGS (TLB MISS):         0 
LLC AVERAGE MISS LATENCY: 160.527 cycles

PageTableWalker TOTAL       ACCESS:      72968  
PageTableWalker AVERAGE LATENCY: 4.19102 cycles
PageTableWalker TOTAL LATENCY: 305810 cycles

DRAM Statistics
Channel 0
 RQ ROW_BUFFER_HIT:     216457
  ROW_BUFFER_MISS:     563987
 AVG DBUS CONGESTED CYCLE:    3.64336
 WQ ROW_BUFFER_HIT:      19186
  ROW_BUFFER_MISS:      27458  FULL:          0

