last_page:0x200000000000000
VMEM_RES_CAP:0x100000
PAGE_SIZE:4096
LOG2_PAGE_SIZE:12
LOG2_PAGE_TABLE_SIZE:9
page_table_levels:5
WARNING: physical memory size is smaller than virtual memory size
FDiP enabled with aggresivity 16

*** ChampSim Multicore Out-of-Order Simulator ***

Warmup Instructions: 50000000
Simulation Instructions: 100000000
Number of CPUs: 1
Small page size: 4096
Large page size: 2097152

CPU 0 Bimodal branch predictor
Basic BTB sets: 1024 ways: 8 indirect buffer size: 4096 RAS size: 64
Instruction page size distrubution: 0
Loading instruction page size distribution from /home/bsc/bsc018186/scratch/itp_asplos25_AE/dump/srv162_ap.pdst
Data page size distrubution: 0
Loading data page size distribution from /home/bsc/bsc018186/scratch/itp_asplos25_AE/dump/srv162_ap.pdst
cpu0_L2C IP-based stride prefetcher
cpu0_L2C is using xPTP/LRU
	TLB_LOWER_STRESS_THRESHOLD:1
	TLB_UPPER_STRESS_THRESHOLD:9
	MIN_EVICTION_POSITION:4
cpu0_L1D next line prefetcher
cpu0_STLB using iTP with max lru@8
cpu0_STLB using iTP with instr@0 and data@2
Init sat counter with 3 bits (max:50).
cpu0_L1I next line prefetcher
Off-chip DRAM Size: 4 GiB Channels: 1 Width: 64-bit Data Rate: 3200 MT/s
Heartbeat CPU 0 instructions: 10000001 cycles: 2500137 heartbeat IPC: 3.99979 cumulative IPC: 3.99979 (Simulation time: 0 hr 0 min 42 sec) 
Heartbeat CPU 0 instructions: 20000001 cycles: 5001780 heartbeat IPC: 3.99738 cumulative IPC: 3.99858 (Simulation time: 0 hr 1 min 24 sec) 
Heartbeat CPU 0 instructions: 30000001 cycles: 7501805 heartbeat IPC: 3.99997 cumulative IPC: 3.99904 (Simulation time: 0 hr 2 min 5 sec) 
Heartbeat CPU 0 instructions: 40000001 cycles: 10001805 heartbeat IPC: 4 cumulative IPC: 3.99928 (Simulation time: 0 hr 2 min 46 sec) 
Heartbeat CPU 0 instructions: 50000000 cycles: 12501879 heartbeat IPC: 3.99989 cumulative IPC: 3.9994 (Simulation time: 0 hr 3 min 27 sec) 
Warmup finished CPU 0 instructions: 50000000 cycles: 12501880 cumulative IPC: 3.9994 (Simulation time: 0 hr 3 min 27 sec) 

Warmup complete CPU 0 instructions: 50000000 cycles: 12501880 (Simulation time: 0 hr 3 min 27 sec) 

Heartbeat CPU 0 instructions: 60000001 cycles: 25395300 heartbeat IPC: 0.77559 cumulative IPC: 0.77559 (Simulation time: 0 hr 4 min 30 sec) 
Heartbeat CPU 0 instructions: 70000004 cycles: 38423402 heartbeat IPC: 0.767572 cumulative IPC: 0.77156 (Simulation time: 0 hr 5 min 32 sec) 
Heartbeat CPU 0 instructions: 80000003 cycles: 51625369 heartbeat IPC: 0.757463 cumulative IPC: 0.766803 (Simulation time: 0 hr 6 min 35 sec) 
Heartbeat CPU 0 instructions: 90000000 cycles: 64457018 heartbeat IPC: 0.779323 cumulative IPC: 0.769895 (Simulation time: 0 hr 7 min 39 sec) 
Heartbeat CPU 0 instructions: 100000000 cycles: 77336464 heartbeat IPC: 0.776431 cumulative IPC: 0.771194 (Simulation time: 0 hr 8 min 42 sec) 
*** Reached end of trace: /gpfs/projects/bsc18/MN4/bsc18/romol/ChampSim/traces/qualcomm_srv/srv162_ap.champsimtrace.xz
Heartbeat CPU 0 instructions: 110000003 cycles: 89562981 heartbeat IPC: 0.817895 cumulative IPC: 0.778603 (Simulation time: 0 hr 9 min 45 sec) 
Heartbeat CPU 0 instructions: 120000000 cycles: 102877589 heartbeat IPC: 0.751055 cumulative IPC: 0.774545 (Simulation time: 0 hr 10 min 51 sec) 
Heartbeat CPU 0 instructions: 130000001 cycles: 115592443 heartbeat IPC: 0.786482 cumulative IPC: 0.776017 (Simulation time: 0 hr 12 min 0 sec) 
Heartbeat CPU 0 instructions: 140000004 cycles: 127827323 heartbeat IPC: 0.817336 cumulative IPC: 0.780401 (Simulation time: 0 hr 13 min 7 sec) 
Heartbeat CPU 0 instructions: 150000001 cycles: 140899412 heartbeat IPC: 0.764989 cumulative IPC: 0.778832 (Simulation time: 0 hr 14 min 14 sec) 
Simulation finished CPU 0 instructions: 100000001 cycles: 128397533 cumulative IPC: 0.778832 (Simulation time: 0 hr 14 min 14 sec) 

Simulation complete CPU 0 instructions: 100000001 cycles: 128397533 (Simulation time: 0 hr 14 min 14 sec) 


ChampSim completed all CPUs

Saving instructions large page distribution to /home/bsc/bsc018186/scratch/itp_asplos25_AE/dump/srv162_ap.pdst...
Saving data large page distribution to /home/bsc/bsc018186/scratch/itp_asplos25_AE/dump/srv162_ap.pdst...
=== Simulation ===
CPU 0 runs /gpfs/projects/bsc18/MN4/bsc18/romol/ChampSim/traces/qualcomm_srv/srv162_ap.champsimtrace.xz

Region of Interest Statistics

CPU 0 cumulative IPC: 0.778832 instructions: 100000001 cycles: 128397533
CPU 0 Branch Prediction Accuracy: 83.3515% MPKI: 29.89 Average ROB Occupancy at Mispredict: 12.3317
Branch type MPKI
BRANCH_DIRECT_JUMP: 0.9585
BRANCH_INDIRECT: 15.4862
BRANCH_CONDITIONAL: 9.78295
BRANCH_DIRECT_CALL: 1.83329
BRANCH_INDIRECT_CALL: 0.49845
BRANCH_RETURN: 1.33067

Instructions large pages: 0
Instructions small pages: 10372
Large page distribution for instructions: 0%

Data large pages: 0
Data small pages: 9441
Large page distribution for data: 0%

cpu0_L1I TOTAL       ACCESS:   34741272  HIT:   26587485  MISS:    8153787  iACCESS:   34741272  iHIT:   26587485  iMISS:    8153787  dACCESS:          0  dHIT:          0  dMISS:          0  itACCESS:          0  itHIT:          0  itMISS:          0  dtACCESS:          0  dtHIT:          0  dtMISS:          0
cpu0_L1I LOAD         ACCESS:   10116189  HIT:    7833516  MISS:    2282673  iACCESS:   10116189  iHIT:    7833516  iMISS:    2282673  dACCESS:          0  dHIT:          0  dMISS:          0  itACCESS:          0  itHIT:          0  itMISS:          0  dtACCESS:          0  dtHIT:          0  dtMISS:          0
cpu0_L1I RFO          ACCESS:          0  HIT:          0  MISS:          0  iACCESS:          0  iHIT:          0  iMISS:          0  dACCESS:          0  dHIT:          0  dMISS:          0  itACCESS:          0  itHIT:          0  itMISS:          0  dtACCESS:          0  dtHIT:          0  dtMISS:          0
cpu0_L1I PREFETCH     ACCESS:   24625083  HIT:   18753969  MISS:    5871114  iACCESS:   24625083  iHIT:   18753969  iMISS:    5871114  dACCESS:          0  dHIT:          0  dMISS:          0  itACCESS:          0  itHIT:          0  itMISS:          0  dtACCESS:          0  dtHIT:          0  dtMISS:          0
cpu0_L1I WRITE        ACCESS:          0  HIT:          0  MISS:          0  iACCESS:          0  iHIT:          0  iMISS:          0  dACCESS:          0  dHIT:          0  dMISS:          0  itACCESS:          0  itHIT:          0  itMISS:          0  dtACCESS:          0  dtHIT:          0  dtMISS:          0
cpu0_L1I TRANSLATION  ACCESS:          0  HIT:          0  MISS:          0  iACCESS:          0  iHIT:          0  iMISS:          0  dACCESS:          0  dHIT:          0  dMISS:          0  itACCESS:          0  itHIT:          0  itMISS:          0  dtACCESS:          0  dtHIT:          0  dtMISS:          0
cpu0_L1I PREFETCH  REQUESTED:   27002840  ISSUED:   27002685  CROSSED:          0  USEFUL:    1941015  USELESS:     637347
cpu0_L1I AVERAGE iMISS LATENCY: 11.1452 cycles
cpu0_L1I AVERAGE dMISS LATENCY: 0 cycles
cpu0_L1I AVERAGE itMISS LATENCY: 0 cycles
cpu0_L1I AVERAGE dtMISS LATENCY: 0 cycles
cpu0_L1I PAGE CROSSINGS (TLB HIT):         0 
cpu0_L1I PAGE CROSSINGS (TLB MISS):         0 
cpu0_L1I AVERAGE MISS LATENCY: 11.1452 cycles
cpu0_ITLB TOTAL       ACCESS:   28954539  HIT:   26963165  MISS:    1991374  iACCESS:   28954539  iHIT:   26963165  iMISS:    1991374  dACCESS:          0  dHIT:          0  dMISS:          0  itACCESS:          0  itHIT:          0  itMISS:          0  dtACCESS:          0  dtHIT:          0  dtMISS:          0
cpu0_ITLB LOAD         ACCESS:   28954539  HIT:   26963165  MISS:    1991374  iACCESS:   28954539  iHIT:   26963165  iMISS:    1991374  dACCESS:          0  dHIT:          0  dMISS:          0  itACCESS:          0  itHIT:          0  itMISS:          0  dtACCESS:          0  dtHIT:          0  dtMISS:          0
cpu0_ITLB RFO          ACCESS:          0  HIT:          0  MISS:          0  iACCESS:          0  iHIT:          0  iMISS:          0  dACCESS:          0  dHIT:          0  dMISS:          0  itACCESS:          0  itHIT:          0  itMISS:          0  dtACCESS:          0  dtHIT:          0  dtMISS:          0
cpu0_ITLB PREFETCH     ACCESS:          0  HIT:          0  MISS:          0  iACCESS:          0  iHIT:          0  iMISS:          0  dACCESS:          0  dHIT:          0  dMISS:          0  itACCESS:          0  itHIT:          0  itMISS:          0  dtACCESS:          0  dtHIT:          0  dtMISS:          0
cpu0_ITLB WRITE        ACCESS:          0  HIT:          0  MISS:          0  iACCESS:          0  iHIT:          0  iMISS:          0  dACCESS:          0  dHIT:          0  dMISS:          0  itACCESS:          0  itHIT:          0  itMISS:          0  dtACCESS:          0  dtHIT:          0  dtMISS:          0
cpu0_ITLB TRANSLATION  ACCESS:          0  HIT:          0  MISS:          0  iACCESS:          0  iHIT:          0  iMISS:          0  dACCESS:          0  dHIT:          0  dMISS:          0  itACCESS:          0  itHIT:          0  itMISS:          0  dtACCESS:          0  dtHIT:          0  dtMISS:          0
cpu0_ITLB PREFETCH  REQUESTED:          0  ISSUED:          0  CROSSED:          0  USEFUL:     325328  USELESS:      63766
cpu0_ITLB AVERAGE iMISS LATENCY: 1.85405 cycles
cpu0_ITLB AVERAGE dMISS LATENCY: 0 cycles
cpu0_ITLB AVERAGE itMISS LATENCY: 0 cycles
cpu0_ITLB AVERAGE dtMISS LATENCY: 0 cycles
cpu0_ITLB PAGE CROSSINGS (TLB HIT):         0 
cpu0_ITLB PAGE CROSSINGS (TLB MISS):         0 
cpu0_ITLB AVERAGE MISS LATENCY: 1.85405 cycles
cpu0_DTLB TOTAL       ACCESS:   27707733  HIT:   25859540  MISS:    1848193  iACCESS:          0  iHIT:          0  iMISS:          0  dACCESS:   27707733  dHIT:   25859540  dMISS:    1848193  itACCESS:          0  itHIT:          0  itMISS:          0  dtACCESS:          0  dtHIT:          0  dtMISS:          0
cpu0_DTLB LOAD         ACCESS:   27707733  HIT:   25859540  MISS:    1848193  iACCESS:          0  iHIT:          0  iMISS:          0  dACCESS:   27707733  dHIT:   25859540  dMISS:    1848193  itACCESS:          0  itHIT:          0  itMISS:          0  dtACCESS:          0  dtHIT:          0  dtMISS:          0
cpu0_DTLB RFO          ACCESS:          0  HIT:          0  MISS:          0  iACCESS:          0  iHIT:          0  iMISS:          0  dACCESS:          0  dHIT:          0  dMISS:          0  itACCESS:          0  itHIT:          0  itMISS:          0  dtACCESS:          0  dtHIT:          0  dtMISS:          0
cpu0_DTLB PREFETCH     ACCESS:          0  HIT:          0  MISS:          0  iACCESS:          0  iHIT:          0  iMISS:          0  dACCESS:          0  dHIT:          0  dMISS:          0  itACCESS:          0  itHIT:          0  itMISS:          0  dtACCESS:          0  dtHIT:          0  dtMISS:          0
cpu0_DTLB WRITE        ACCESS:          0  HIT:          0  MISS:          0  iACCESS:          0  iHIT:          0  iMISS:          0  dACCESS:          0  dHIT:          0  dMISS:          0  itACCESS:          0  itHIT:          0  itMISS:          0  dtACCESS:          0  dtHIT:          0  dtMISS:          0
cpu0_DTLB TRANSLATION  ACCESS:          0  HIT:          0  MISS:          0  iACCESS:          0  iHIT:          0  iMISS:          0  dACCESS:          0  dHIT:          0  dMISS:          0  itACCESS:          0  itHIT:          0  itMISS:          0  dtACCESS:          0  dtHIT:          0  dtMISS:          0
cpu0_DTLB PREFETCH  REQUESTED:          0  ISSUED:          0  CROSSED:          0  USEFUL:          0  USELESS:          0
cpu0_DTLB AVERAGE iMISS LATENCY: 0 cycles
cpu0_DTLB AVERAGE dMISS LATENCY: 11.1703 cycles
cpu0_DTLB AVERAGE itMISS LATENCY: 0 cycles
cpu0_DTLB AVERAGE dtMISS LATENCY: 0 cycles
cpu0_DTLB PAGE CROSSINGS (TLB HIT):         0 
cpu0_DTLB PAGE CROSSINGS (TLB MISS):         0 
cpu0_DTLB AVERAGE MISS LATENCY: 11.1703 cycles
cpu0_STLB TOTAL       ACCESS:    1514858  HIT:    1381229  MISS:     133629  iACCESS:     389107  iHIT:     382968  iMISS:       6139  dACCESS:    1125751  dHIT:     998261  dMISS:     127490  itACCESS:          0  itHIT:          0  itMISS:          0  dtACCESS:          0  dtHIT:          0  dtMISS:          0
cpu0_STLB LOAD         ACCESS:    1514858  HIT:    1381229  MISS:     133629  iACCESS:     389107  iHIT:     382968  iMISS:       6139  dACCESS:    1125751  dHIT:     998261  dMISS:     127490  itACCESS:          0  itHIT:          0  itMISS:          0  dtACCESS:          0  dtHIT:          0  dtMISS:          0
cpu0_STLB RFO          ACCESS:          0  HIT:          0  MISS:          0  iACCESS:          0  iHIT:          0  iMISS:          0  dACCESS:          0  dHIT:          0  dMISS:          0  itACCESS:          0  itHIT:          0  itMISS:          0  dtACCESS:          0  dtHIT:          0  dtMISS:          0
cpu0_STLB PREFETCH     ACCESS:          0  HIT:          0  MISS:          0  iACCESS:          0  iHIT:          0  iMISS:          0  dACCESS:          0  dHIT:          0  dMISS:          0  itACCESS:          0  itHIT:          0  itMISS:          0  dtACCESS:          0  dtHIT:          0  dtMISS:          0
cpu0_STLB WRITE        ACCESS:          0  HIT:          0  MISS:          0  iACCESS:          0  iHIT:          0  iMISS:          0  dACCESS:          0  dHIT:          0  dMISS:          0  itACCESS:          0  itHIT:          0  itMISS:          0  dtACCESS:          0  dtHIT:          0  dtMISS:          0
cpu0_STLB TRANSLATION  ACCESS:          0  HIT:          0  MISS:          0  iACCESS:          0  iHIT:          0  iMISS:          0  dACCESS:          0  dHIT:          0  dMISS:          0  itACCESS:          0  itHIT:          0  itMISS:          0  dtACCESS:          0  dtHIT:          0  dtMISS:          0
cpu0_STLB PREFETCH  REQUESTED:          0  ISSUED:          0  CROSSED:          0  USEFUL:          0  USELESS:          0
cpu0_STLB AVERAGE iMISS LATENCY: 5.05213 cycles
cpu0_STLB AVERAGE dMISS LATENCY: 87.1276 cycles
cpu0_STLB AVERAGE itMISS LATENCY: 0 cycles
cpu0_STLB AVERAGE dtMISS LATENCY: 0 cycles
cpu0_STLB PAGE CROSSINGS (TLB HIT):         0 
cpu0_STLB PAGE CROSSINGS (TLB MISS):         0 
cpu0_STLB AVERAGE MISS LATENCY: 92.1797 cycles
cpu0_L1D TOTAL       ACCESS:   41540646  HIT:   37924909  MISS:    3615737  iACCESS:          0  iHIT:          0  iMISS:          0  dACCESS:   41339702  dHIT:   37912570  dMISS:    3427132  itACCESS:       7191  itHIT:        631  itMISS:       6560  dtACCESS:     193753  dtHIT:      11708  dtMISS:     182045
cpu0_L1D LOAD         ACCESS:   19005488  HIT:   17436490  MISS:    1568998  iACCESS:          0  iHIT:          0  iMISS:          0  dACCESS:   19005488  dHIT:   17436490  dMISS:    1568998  itACCESS:          0  itHIT:          0  itMISS:          0  dtACCESS:          0  dtHIT:          0  dtMISS:          0
cpu0_L1D RFO          ACCESS:          0  HIT:          0  MISS:          0  iACCESS:          0  iHIT:          0  iMISS:          0  dACCESS:          0  dHIT:          0  dMISS:          0  itACCESS:          0  itHIT:          0  itMISS:          0  dtACCESS:          0  dtHIT:          0  dtMISS:          0
cpu0_L1D PREFETCH     ACCESS:   12181637  HIT:   10764223  MISS:    1417414  iACCESS:          0  iHIT:          0  iMISS:          0  dACCESS:   12181637  dHIT:   10764223  dMISS:    1417414  itACCESS:          0  itHIT:          0  itMISS:          0  dtACCESS:          0  dtHIT:          0  dtMISS:          0
cpu0_L1D WRITE        ACCESS:   10152577  HIT:    9711857  MISS:     440720  iACCESS:          0  iHIT:          0  iMISS:          0  dACCESS:   10152577  dHIT:    9711857  dMISS:     440720  itACCESS:          0  itHIT:          0  itMISS:          0  dtACCESS:          0  dtHIT:          0  dtMISS:          0
cpu0_L1D TRANSLATION  ACCESS:     200944  HIT:      12339  MISS:     188605  iACCESS:          0  iHIT:          0  iMISS:          0  dACCESS:          0  dHIT:          0  dMISS:          0  itACCESS:       7191  itHIT:        631  itMISS:       6560  dtACCESS:     193753  dtHIT:      11708  dtMISS:     182045
cpu0_L1D PREFETCH  REQUESTED:   19005488  ISSUED:   16967319  CROSSED:          0  USEFUL:     310783  USELESS:     709876
cpu0_L1D AVERAGE iMISS LATENCY: 0 cycles
cpu0_L1D AVERAGE dMISS LATENCY: 27.4364 cycles
cpu0_L1D AVERAGE itMISS LATENCY: 0.167522 cycles
cpu0_L1D AVERAGE dtMISS LATENCY: 2.50767 cycles
cpu0_L1D PAGE CROSSINGS (TLB HIT):         0 
cpu0_L1D PAGE CROSSINGS (TLB MISS):         0 
cpu0_L1D AVERAGE MISS LATENCY: 30.1116 cycles
cpu0_L2C TOTAL       ACCESS:    7022219  HIT:    2634230  MISS:    4387989  iACCESS:    3330081  iHIT:    1453889  iMISS:    1876192  dACCESS:    3515697  dHIT:    1063986  dMISS:    2451711  itACCESS:       6560  itHIT:       2110  itMISS:       4450  dtACCESS:     169881  dtHIT:     114245  dtMISS:      55636
cpu0_L2C LOAD         ACCESS:    1739569  HIT:     581683  MISS:    1157886  iACCESS:     793280  iHIT:     316953  iMISS:     476327  dACCESS:     946289  dHIT:     264730  dMISS:     681559  itACCESS:          0  itHIT:          0  itMISS:          0  dtACCESS:          0  dtHIT:          0  dtMISS:          0
cpu0_L2C RFO          ACCESS:     156472  HIT:      30685  MISS:     125787  iACCESS:          0  iHIT:          0  iMISS:          0  dACCESS:     156472  dHIT:      30685  dMISS:     125787  itACCESS:          0  itHIT:          0  itMISS:          0  dtACCESS:          0  dtHIT:          0  dtMISS:          0
cpu0_L2C PREFETCH     ACCESS:    4662850  HIT:    1771727  MISS:    2891123  iACCESS:    2536801  iHIT:    1136936  iMISS:    1399865  dACCESS:    2126049  dHIT:     634791  dMISS:    1491258  itACCESS:          0  itHIT:          0  itMISS:          0  dtACCESS:          0  dtHIT:          0  dtMISS:          0
cpu0_L2C WRITE        ACCESS:     286887  HIT:     133780  MISS:     153107  iACCESS:          0  iHIT:          0  iMISS:          0  dACCESS:     286887  dHIT:     133780  dMISS:     153107  itACCESS:          0  itHIT:          0  itMISS:          0  dtACCESS:          0  dtHIT:          0  dtMISS:          0
cpu0_L2C TRANSLATION  ACCESS:     176441  HIT:     116355  MISS:      60086  iACCESS:          0  iHIT:          0  iMISS:          0  dACCESS:          0  dHIT:          0  dMISS:          0  itACCESS:       6560  itHIT:       2110  itMISS:       4450  dtACCESS:     169881  dtHIT:     114245  dtMISS:      55636
cpu0_L2C PREFETCH  REQUESTED:    1390189  ISSUED:    1390189  CROSSED:          0  USEFUL:     360637  USELESS:     324259
cpu0_L2C AVERAGE iMISS LATENCY: 13.7592 cycles
cpu0_L2C AVERAGE dMISS LATENCY: 24.7141 cycles
cpu0_L2C AVERAGE itMISS LATENCY: 0.123533 cycles
cpu0_L2C AVERAGE dtMISS LATENCY: 1.70304 cycles
cpu0_L2C PAGE CROSSINGS (TLB HIT):         0 
cpu0_L2C PAGE CROSSINGS (TLB MISS):         0 
cpu0_L2C AVERAGE MISS LATENCY: 40.2998 cycles
LLC TOTAL       ACCESS:    4350985  HIT:    3753935  MISS:     597050  iACCESS:    1831466  iHIT:    1668055  iMISS:     163411  dACCESS:    2459433  dHIT:    2065066  dMISS:     394367  itACCESS:       4450  itHIT:       1841  itMISS:       2609  dtACCESS:      55636  dtHIT:      18973  dtMISS:      36663
LLC LOAD         ACCESS:    1155425  HIT:    1027643  MISS:     127782  iACCESS:     474801  iHIT:     443867  iMISS:      30934  dACCESS:     680624  dHIT:     583776  dMISS:      96848  itACCESS:          0  itHIT:          0  itMISS:          0  dtACCESS:          0  dtHIT:          0  dtMISS:          0
LLC RFO          ACCESS:     125733  HIT:      94528  MISS:      31205  iACCESS:          0  iHIT:          0  iMISS:          0  dACCESS:     125733  dHIT:      94528  dMISS:      31205  itACCESS:          0  itHIT:          0  itMISS:          0  dtACCESS:          0  dtHIT:          0  dtMISS:          0
LLC PREFETCH     ACCESS:    2808283  HIT:    2411365  MISS:     396918  iACCESS:    1356665  iHIT:    1224188  iMISS:     132477  dACCESS:    1451618  dHIT:    1187177  dMISS:     264441  itACCESS:          0  itHIT:          0  itMISS:          0  dtACCESS:          0  dtHIT:          0  dtMISS:          0
LLC WRITE        ACCESS:     201458  HIT:     199585  MISS:       1873  iACCESS:          0  iHIT:          0  iMISS:          0  dACCESS:     201458  dHIT:     199585  dMISS:       1873  itACCESS:          0  itHIT:          0  itMISS:          0  dtACCESS:          0  dtHIT:          0  dtMISS:          0
LLC TRANSLATION  ACCESS:      60086  HIT:      20814  MISS:      39272  iACCESS:          0  iHIT:          0  iMISS:          0  dACCESS:          0  dHIT:          0  dMISS:          0  itACCESS:       4450  itHIT:       1841  itMISS:       2609  dtACCESS:      55636  dtHIT:      18973  dtMISS:      36663
LLC PREFETCH  REQUESTED:          0  ISSUED:          0  CROSSED:          0  USEFUL:          0  USELESS:          0
LLC AVERAGE iMISS LATENCY: 41.9993 cycles
LLC AVERAGE dMISS LATENCY: 108.781 cycles
LLC AVERAGE itMISS LATENCY: 0.76224 cycles
LLC AVERAGE dtMISS LATENCY: 10.6879 cycles
LLC PAGE CROSSINGS (TLB HIT):         0 
LLC PAGE CROSSINGS (TLB MISS):         0 
LLC AVERAGE MISS LATENCY: 162.231 cycles

PageTableWalker TOTAL       ACCESS:      65790  
PageTableWalker AVERAGE LATENCY: 4.79295 cycles
PageTableWalker TOTAL LATENCY: 315328 cycles

DRAM Statistics
Channel 0
 RQ ROW_BUFFER_HIT:     144981
  ROW_BUFFER_MISS:     449609
 AVG DBUS CONGESTED CYCLE:    3.64441
 WQ ROW_BUFFER_HIT:      13558
  ROW_BUFFER_MISS:      25139  FULL:          0

