last_page:0x200000000000000
VMEM_RES_CAP:0x100000
PAGE_SIZE:4096
LOG2_PAGE_SIZE:12
LOG2_PAGE_TABLE_SIZE:9
page_table_levels:5
WARNING: physical memory size is smaller than virtual memory size
FDiP enabled with aggresivity 16

*** ChampSim Multicore Out-of-Order Simulator ***

Warmup Instructions: 50000000
Simulation Instructions: 100000000
Number of CPUs: 1
Small page size: 4096
Large page size: 2097152

CPU 0 Bimodal branch predictor
Basic BTB sets: 1024 ways: 8 indirect buffer size: 4096 RAS size: 64
Instruction page size distrubution: 0
Loading instruction page size distribution from /home/bsc/bsc018186/scratch/itp_asplos25_AE/dump/srv151_ap.pdst
Data page size distrubution: 0
Loading data page size distribution from /home/bsc/bsc018186/scratch/itp_asplos25_AE/dump/srv151_ap.pdst
cpu0_L2C IP-based stride prefetcher
cpu0_L2C is using PTP replacement policy:
	TLB_STRESS_THRESHOLD:0
	PTE_EVICTION_RATIO:0
cpu0_L1D next line prefetcher
CHiRPing...
cpu0_L1I next line prefetcher
Off-chip DRAM Size: 4 GiB Channels: 1 Width: 64-bit Data Rate: 3200 MT/s
Heartbeat CPU 0 instructions: 10000001 cycles: 2500206 heartbeat IPC: 3.99968 cumulative IPC: 3.99968 (Simulation time: 0 hr 0 min 38 sec) 
Heartbeat CPU 0 instructions: 20000001 cycles: 5000208 heartbeat IPC: 4 cumulative IPC: 3.99984 (Simulation time: 0 hr 1 min 18 sec) 
Heartbeat CPU 0 instructions: 30000002 cycles: 7500217 heartbeat IPC: 3.99999 cumulative IPC: 3.99989 (Simulation time: 0 hr 1 min 59 sec) 
Heartbeat CPU 0 instructions: 40000003 cycles: 10000255 heartbeat IPC: 3.99994 cumulative IPC: 3.9999 (Simulation time: 0 hr 2 min 39 sec) 
Heartbeat CPU 0 instructions: 50000002 cycles: 12500289 heartbeat IPC: 3.99995 cumulative IPC: 3.99991 (Simulation time: 0 hr 3 min 21 sec) 
Warmup finished CPU 0 instructions: 50000002 cycles: 12500290 cumulative IPC: 3.99991 (Simulation time: 0 hr 3 min 21 sec) 

Warmup complete CPU 0 instructions: 50000002 cycles: 12500290 (Simulation time: 0 hr 3 min 21 sec) 

Heartbeat CPU 0 instructions: 60000002 cycles: 27536134 heartbeat IPC: 0.665078 cumulative IPC: 0.665078 (Simulation time: 0 hr 4 min 26 sec) 
Heartbeat CPU 0 instructions: 70000002 cycles: 42362729 heartbeat IPC: 0.674464 cumulative IPC: 0.669738 (Simulation time: 0 hr 5 min 31 sec) 
Heartbeat CPU 0 instructions: 80000002 cycles: 56066530 heartbeat IPC: 0.729725 cumulative IPC: 0.688607 (Simulation time: 0 hr 6 min 35 sec) 
Heartbeat CPU 0 instructions: 90000000 cycles: 70088309 heartbeat IPC: 0.713177 cumulative IPC: 0.694589 (Simulation time: 0 hr 7 min 39 sec) 
Heartbeat CPU 0 instructions: 100000000 cycles: 84138594 heartbeat IPC: 0.71173 cumulative IPC: 0.697951 (Simulation time: 0 hr 8 min 44 sec) 
*** Reached end of trace: /gpfs/projects/bsc18/MN4/bsc18/romol/ChampSim/traces/qualcomm_srv/srv151_ap.champsimtrace.xz
Heartbeat CPU 0 instructions: 110000003 cycles: 98145140 heartbeat IPC: 0.713953 cumulative IPC: 0.700568 (Simulation time: 0 hr 9 min 48 sec) 
Heartbeat CPU 0 instructions: 120000002 cycles: 112071557 heartbeat IPC: 0.71806 cumulative IPC: 0.703015 (Simulation time: 0 hr 10 min 51 sec) 
Heartbeat CPU 0 instructions: 130000000 cycles: 126497245 heartbeat IPC: 0.693208 cumulative IPC: 0.701774 (Simulation time: 0 hr 11 min 56 sec) 
Heartbeat CPU 0 instructions: 140000001 cycles: 140626502 heartbeat IPC: 0.707752 cumulative IPC: 0.702433 (Simulation time: 0 hr 13 min 0 sec) 
Heartbeat CPU 0 instructions: 150000002 cycles: 155163657 heartbeat IPC: 0.687893 cumulative IPC: 0.700951 (Simulation time: 0 hr 14 min 5 sec) 
Simulation finished CPU 0 instructions: 100000000 cycles: 142663368 cumulative IPC: 0.700951 (Simulation time: 0 hr 14 min 5 sec) 

Simulation complete CPU 0 instructions: 100000000 cycles: 142663368 (Simulation time: 0 hr 14 min 5 sec) 


ChampSim completed all CPUs

Saving instructions large page distribution to /home/bsc/bsc018186/scratch/itp_asplos25_AE/dump/srv151_ap.pdst...
Saving data large page distribution to /home/bsc/bsc018186/scratch/itp_asplos25_AE/dump/srv151_ap.pdst...
=== Simulation ===
CPU 0 runs /gpfs/projects/bsc18/MN4/bsc18/romol/ChampSim/traces/qualcomm_srv/srv151_ap.champsimtrace.xz

Region of Interest Statistics

CPU 0 cumulative IPC: 0.700951 instructions: 100000000 cycles: 142663368
CPU 0 Branch Prediction Accuracy: 83.2513% MPKI: 30.0025 Average ROB Occupancy at Mispredict: 12.9077
Branch type MPKI
BRANCH_DIRECT_JUMP: 1.01975
BRANCH_INDIRECT: 15.6431
BRANCH_CONDITIONAL: 9.67631
BRANCH_DIRECT_CALL: 1.83278
BRANCH_INDIRECT_CALL: 0.503921
BRANCH_RETURN: 1.32666

Instructions large pages: 0
Instructions small pages: 11188
Large page distribution for instructions: 0%

Data large pages: 0
Data small pages: 10219
Large page distribution for data: 0%

cpu0_L1I TOTAL       ACCESS:   35392582  HIT:   27016022  MISS:    8376560  iACCESS:   35392582  iHIT:   27016022  iMISS:    8376560  dACCESS:          0  dHIT:          0  dMISS:          0  itACCESS:          0  itHIT:          0  itMISS:          0  dtACCESS:          0  dtHIT:          0  dtMISS:          0
cpu0_L1I LOAD         ACCESS:   10402713  HIT:    8059028  MISS:    2343685  iACCESS:   10402713  iHIT:    8059028  iMISS:    2343685  dACCESS:          0  dHIT:          0  dMISS:          0  itACCESS:          0  itHIT:          0  itMISS:          0  dtACCESS:          0  dtHIT:          0  dtMISS:          0
cpu0_L1I RFO          ACCESS:          0  HIT:          0  MISS:          0  iACCESS:          0  iHIT:          0  iMISS:          0  dACCESS:          0  dHIT:          0  dMISS:          0  itACCESS:          0  itHIT:          0  itMISS:          0  dtACCESS:          0  dtHIT:          0  dtMISS:          0
cpu0_L1I PREFETCH     ACCESS:   24989869  HIT:   18956994  MISS:    6032875  iACCESS:   24989869  iHIT:   18956994  iMISS:    6032875  dACCESS:          0  dHIT:          0  dMISS:          0  itACCESS:          0  itHIT:          0  itMISS:          0  dtACCESS:          0  dtHIT:          0  dtMISS:          0
cpu0_L1I WRITE        ACCESS:          0  HIT:          0  MISS:          0  iACCESS:          0  iHIT:          0  iMISS:          0  dACCESS:          0  dHIT:          0  dMISS:          0  itACCESS:          0  itHIT:          0  itMISS:          0  dtACCESS:          0  dtHIT:          0  dtMISS:          0
cpu0_L1I TRANSLATION  ACCESS:          0  HIT:          0  MISS:          0  iACCESS:          0  iHIT:          0  iMISS:          0  dACCESS:          0  dHIT:          0  dMISS:          0  itACCESS:          0  itHIT:          0  itMISS:          0  dtACCESS:          0  dtHIT:          0  dtMISS:          0
cpu0_L1I PREFETCH  REQUESTED:   27328680  ISSUED:   27326724  CROSSED:          0  USEFUL:    1888927  USELESS:     621867
cpu0_L1I AVERAGE iMISS LATENCY: 14.1618 cycles
cpu0_L1I AVERAGE dMISS LATENCY: 0 cycles
cpu0_L1I AVERAGE itMISS LATENCY: 0 cycles
cpu0_L1I AVERAGE dtMISS LATENCY: 0 cycles
cpu0_L1I PAGE CROSSINGS (TLB HIT):         0 
cpu0_L1I PAGE CROSSINGS (TLB MISS):         0 
cpu0_L1I AVERAGE MISS LATENCY: 14.1618 cycles
cpu0_ITLB TOTAL       ACCESS:   29218425  HIT:   27263310  MISS:    1955115  iACCESS:   29218425  iHIT:   27263310  iMISS:    1955115  dACCESS:          0  dHIT:          0  dMISS:          0  itACCESS:          0  itHIT:          0  itMISS:          0  dtACCESS:          0  dtHIT:          0  dtMISS:          0
cpu0_ITLB LOAD         ACCESS:   29218425  HIT:   27263310  MISS:    1955115  iACCESS:   29218425  iHIT:   27263310  iMISS:    1955115  dACCESS:          0  dHIT:          0  dMISS:          0  itACCESS:          0  itHIT:          0  itMISS:          0  dtACCESS:          0  dtHIT:          0  dtMISS:          0
cpu0_ITLB RFO          ACCESS:          0  HIT:          0  MISS:          0  iACCESS:          0  iHIT:          0  iMISS:          0  dACCESS:          0  dHIT:          0  dMISS:          0  itACCESS:          0  itHIT:          0  itMISS:          0  dtACCESS:          0  dtHIT:          0  dtMISS:          0
cpu0_ITLB PREFETCH     ACCESS:          0  HIT:          0  MISS:          0  iACCESS:          0  iHIT:          0  iMISS:          0  dACCESS:          0  dHIT:          0  dMISS:          0  itACCESS:          0  itHIT:          0  itMISS:          0  dtACCESS:          0  dtHIT:          0  dtMISS:          0
cpu0_ITLB WRITE        ACCESS:          0  HIT:          0  MISS:          0  iACCESS:          0  iHIT:          0  iMISS:          0  dACCESS:          0  dHIT:          0  dMISS:          0  itACCESS:          0  itHIT:          0  itMISS:          0  dtACCESS:          0  dtHIT:          0  dtMISS:          0
cpu0_ITLB TRANSLATION  ACCESS:          0  HIT:          0  MISS:          0  iACCESS:          0  iHIT:          0  iMISS:          0  dACCESS:          0  dHIT:          0  dMISS:          0  itACCESS:          0  itHIT:          0  itMISS:          0  dtACCESS:          0  dtHIT:          0  dtMISS:          0
cpu0_ITLB PREFETCH  REQUESTED:          0  ISSUED:          0  CROSSED:          0  USEFUL:     319966  USELESS:      65920
cpu0_ITLB AVERAGE iMISS LATENCY: 2.84063 cycles
cpu0_ITLB AVERAGE dMISS LATENCY: 0 cycles
cpu0_ITLB AVERAGE itMISS LATENCY: 0 cycles
cpu0_ITLB AVERAGE dtMISS LATENCY: 0 cycles
cpu0_ITLB PAGE CROSSINGS (TLB HIT):         0 
cpu0_ITLB PAGE CROSSINGS (TLB MISS):         0 
cpu0_ITLB AVERAGE MISS LATENCY: 2.84063 cycles
cpu0_DTLB TOTAL       ACCESS:   27865740  HIT:   25846462  MISS:    2019278  iACCESS:          0  iHIT:          0  iMISS:          0  dACCESS:   27865740  dHIT:   25846462  dMISS:    2019278  itACCESS:          0  itHIT:          0  itMISS:          0  dtACCESS:          0  dtHIT:          0  dtMISS:          0
cpu0_DTLB LOAD         ACCESS:   27865740  HIT:   25846462  MISS:    2019278  iACCESS:          0  iHIT:          0  iMISS:          0  dACCESS:   27865740  dHIT:   25846462  dMISS:    2019278  itACCESS:          0  itHIT:          0  itMISS:          0  dtACCESS:          0  dtHIT:          0  dtMISS:          0
cpu0_DTLB RFO          ACCESS:          0  HIT:          0  MISS:          0  iACCESS:          0  iHIT:          0  iMISS:          0  dACCESS:          0  dHIT:          0  dMISS:          0  itACCESS:          0  itHIT:          0  itMISS:          0  dtACCESS:          0  dtHIT:          0  dtMISS:          0
cpu0_DTLB PREFETCH     ACCESS:          0  HIT:          0  MISS:          0  iACCESS:          0  iHIT:          0  iMISS:          0  dACCESS:          0  dHIT:          0  dMISS:          0  itACCESS:          0  itHIT:          0  itMISS:          0  dtACCESS:          0  dtHIT:          0  dtMISS:          0
cpu0_DTLB WRITE        ACCESS:          0  HIT:          0  MISS:          0  iACCESS:          0  iHIT:          0  iMISS:          0  dACCESS:          0  dHIT:          0  dMISS:          0  itACCESS:          0  itHIT:          0  itMISS:          0  dtACCESS:          0  dtHIT:          0  dtMISS:          0
cpu0_DTLB TRANSLATION  ACCESS:          0  HIT:          0  MISS:          0  iACCESS:          0  iHIT:          0  iMISS:          0  dACCESS:          0  dHIT:          0  dMISS:          0  itACCESS:          0  itHIT:          0  itMISS:          0  dtACCESS:          0  dtHIT:          0  dtMISS:          0
cpu0_DTLB PREFETCH  REQUESTED:          0  ISSUED:          0  CROSSED:          0  USEFUL:          0  USELESS:          0
cpu0_DTLB AVERAGE iMISS LATENCY: 0 cycles
cpu0_DTLB AVERAGE dMISS LATENCY: 9.12483 cycles
cpu0_DTLB AVERAGE itMISS LATENCY: 0 cycles
cpu0_DTLB AVERAGE dtMISS LATENCY: 0 cycles
cpu0_DTLB PAGE CROSSINGS (TLB HIT):         0 
cpu0_DTLB PAGE CROSSINGS (TLB MISS):         0 
cpu0_DTLB AVERAGE MISS LATENCY: 9.12483 cycles
cpu0_STLB TOTAL       ACCESS:    1619603  HIT:    1446857  MISS:     172746  iACCESS:     385901  iHIT:     323000  iMISS:      62901  dACCESS:    1233702  dHIT:    1123857  dMISS:     109845  itACCESS:          0  itHIT:          0  itMISS:          0  dtACCESS:          0  dtHIT:          0  dtMISS:          0
cpu0_STLB LOAD         ACCESS:    1619603  HIT:    1446857  MISS:     172746  iACCESS:     385901  iHIT:     323000  iMISS:      62901  dACCESS:    1233702  dHIT:    1123857  dMISS:     109845  itACCESS:          0  itHIT:          0  itMISS:          0  dtACCESS:          0  dtHIT:          0  dtMISS:          0
cpu0_STLB RFO          ACCESS:          0  HIT:          0  MISS:          0  iACCESS:          0  iHIT:          0  iMISS:          0  dACCESS:          0  dHIT:          0  dMISS:          0  itACCESS:          0  itHIT:          0  itMISS:          0  dtACCESS:          0  dtHIT:          0  dtMISS:          0
cpu0_STLB PREFETCH     ACCESS:          0  HIT:          0  MISS:          0  iACCESS:          0  iHIT:          0  iMISS:          0  dACCESS:          0  dHIT:          0  dMISS:          0  itACCESS:          0  itHIT:          0  itMISS:          0  dtACCESS:          0  dtHIT:          0  dtMISS:          0
cpu0_STLB WRITE        ACCESS:          0  HIT:          0  MISS:          0  iACCESS:          0  iHIT:          0  iMISS:          0  dACCESS:          0  dHIT:          0  dMISS:          0  itACCESS:          0  itHIT:          0  itMISS:          0  dtACCESS:          0  dtHIT:          0  dtMISS:          0
cpu0_STLB TRANSLATION  ACCESS:          0  HIT:          0  MISS:          0  iACCESS:          0  iHIT:          0  iMISS:          0  dACCESS:          0  dHIT:          0  dMISS:          0  itACCESS:          0  itHIT:          0  itMISS:          0  dtACCESS:          0  dtHIT:          0  dtMISS:          0
cpu0_STLB PREFETCH  REQUESTED:          0  ISSUED:          0  CROSSED:          0  USEFUL:          0  USELESS:          0
cpu0_STLB AVERAGE iMISS LATENCY: 14.481 cycles
cpu0_STLB AVERAGE dMISS LATENCY: 49.6495 cycles
cpu0_STLB AVERAGE itMISS LATENCY: 0 cycles
cpu0_STLB AVERAGE dtMISS LATENCY: 0 cycles
cpu0_STLB PAGE CROSSINGS (TLB HIT):         0 
cpu0_STLB PAGE CROSSINGS (TLB MISS):         0 
cpu0_STLB AVERAGE MISS LATENCY: 64.1305 cycles
cpu0_L1D TOTAL       ACCESS:   41635213  HIT:   38178208  MISS:    3457005  iACCESS:          0  iHIT:          0  iMISS:          0  dACCESS:   41403386  dHIT:   38157265  dMISS:    3246121  itACCESS:      68385  itHIT:       9714  itMISS:      58671  dtACCESS:     163442  dtHIT:      11229  dtMISS:     152213
cpu0_L1D LOAD         ACCESS:   19039523  HIT:   17562386  MISS:    1477137  iACCESS:          0  iHIT:          0  iMISS:          0  dACCESS:   19039523  dHIT:   17562386  dMISS:    1477137  itACCESS:          0  itHIT:          0  itMISS:          0  dtACCESS:          0  dtHIT:          0  dtMISS:          0
cpu0_L1D RFO          ACCESS:          0  HIT:          0  MISS:          0  iACCESS:          0  iHIT:          0  iMISS:          0  dACCESS:          0  dHIT:          0  dMISS:          0  itACCESS:          0  itHIT:          0  itMISS:          0  dtACCESS:          0  dtHIT:          0  dtMISS:          0
cpu0_L1D PREFETCH     ACCESS:   12179625  HIT:   10844895  MISS:    1334730  iACCESS:          0  iHIT:          0  iMISS:          0  dACCESS:   12179625  dHIT:   10844895  dMISS:    1334730  itACCESS:          0  itHIT:          0  itMISS:          0  dtACCESS:          0  dtHIT:          0  dtMISS:          0
cpu0_L1D WRITE        ACCESS:   10184238  HIT:    9749984  MISS:     434254  iACCESS:          0  iHIT:          0  iMISS:          0  dACCESS:   10184238  dHIT:    9749984  dMISS:     434254  itACCESS:          0  itHIT:          0  itMISS:          0  dtACCESS:          0  dtHIT:          0  dtMISS:          0
cpu0_L1D TRANSLATION  ACCESS:     231827  HIT:      20943  MISS:     210884  iACCESS:          0  iHIT:          0  iMISS:          0  dACCESS:          0  dHIT:          0  dMISS:          0  itACCESS:      68385  itHIT:       9714  itMISS:      58671  dtACCESS:     163442  dtHIT:      11229  dtMISS:     152213
cpu0_L1D PREFETCH  REQUESTED:   19039523  ISSUED:   17010208  CROSSED:          0  USEFUL:     303710  USELESS:     691939
cpu0_L1D AVERAGE iMISS LATENCY: 0 cycles
cpu0_L1D AVERAGE dMISS LATENCY: 36.2413 cycles
cpu0_L1D AVERAGE itMISS LATENCY: 0.566261 cycles
cpu0_L1D AVERAGE dtMISS LATENCY: 1.77471 cycles
cpu0_L1D PAGE CROSSINGS (TLB HIT):         0 
cpu0_L1D PAGE CROSSINGS (TLB MISS):         0 
cpu0_L1D AVERAGE MISS LATENCY: 38.5823 cycles
cpu0_L2C TOTAL       ACCESS:    6890479  HIT:    1206333  MISS:    5684146  iACCESS:    3257292  iHIT:     668460  iMISS:    2588832  dACCESS:    3429367  dHIT:     373340  dMISS:    3056027  itACCESS:      58671  itHIT:      48413  itMISS:      10258  dtACCESS:     145149  dtHIT:     116120  dtMISS:      29029
cpu0_L2C LOAD         ACCESS:    1699361  HIT:     133405  MISS:    1565956  iACCESS:     780356  iHIT:      95074  iMISS:     685282  dACCESS:     919005  dHIT:      38331  dMISS:     880674  itACCESS:          0  itHIT:          0  itMISS:          0  dtACCESS:          0  dtHIT:          0  dtMISS:          0
cpu0_L2C RFO          ACCESS:     156145  HIT:       8284  MISS:     147861  iACCESS:          0  iHIT:          0  iMISS:          0  dACCESS:     156145  dHIT:       8284  dMISS:     147861  itACCESS:          0  itHIT:          0  itMISS:          0  dtACCESS:          0  dtHIT:          0  dtMISS:          0
cpu0_L2C PREFETCH     ACCESS:    4548947  HIT:     842464  MISS:    3706483  iACCESS:    2476936  iHIT:     573386  iMISS:    1903550  dACCESS:    2072011  dHIT:     269078  dMISS:    1802933  itACCESS:          0  itHIT:          0  itMISS:          0  dtACCESS:          0  dtHIT:          0  dtMISS:          0
cpu0_L2C WRITE        ACCESS:     282206  HIT:      57647  MISS:     224559  iACCESS:          0  iHIT:          0  iMISS:          0  dACCESS:     282206  dHIT:      57647  dMISS:     224559  itACCESS:          0  itHIT:          0  itMISS:          0  dtACCESS:          0  dtHIT:          0  dtMISS:          0
cpu0_L2C TRANSLATION  ACCESS:     203820  HIT:     164533  MISS:      39287  iACCESS:          0  iHIT:          0  iMISS:          0  dACCESS:          0  dHIT:          0  dMISS:          0  itACCESS:      58671  itHIT:      48413  itMISS:      10258  dtACCESS:     145149  dtHIT:     116120  dtMISS:      29029
cpu0_L2C PREFETCH  REQUESTED:    1325015  ISSUED:    1325015  CROSSED:          0  USEFUL:     405039  USELESS:     380058
cpu0_L2C AVERAGE iMISS LATENCY: 15.6449 cycles
cpu0_L2C AVERAGE dMISS LATENCY: 25.8931 cycles
cpu0_L2C AVERAGE itMISS LATENCY: 0.249465 cycles
cpu0_L2C AVERAGE dtMISS LATENCY: 0.84309 cycles
cpu0_L2C PAGE CROSSINGS (TLB HIT):         0 
cpu0_L2C PAGE CROSSINGS (TLB MISS):         0 
cpu0_L2C AVERAGE MISS LATENCY: 42.6305 cycles
LLC TOTAL       ACCESS:    5602466  HIT:    4729081  MISS:     873385  iACCESS:    2532984  iHIT:    2258643  iMISS:     274341  dACCESS:    3030195  dHIT:    2462109  dMISS:     568086  itACCESS:      10258  itHIT:       3167  itMISS:       7091  dtACCESS:      29029  dtHIT:       5162  dtMISS:      23867
LLC LOAD         ACCESS:    1563739  HIT:    1362016  MISS:     201723  iACCESS:     683740  iHIT:     626378  iMISS:      57362  dACCESS:     879999  dHIT:     735638  dMISS:     144361  itACCESS:          0  itHIT:          0  itMISS:          0  dtACCESS:          0  dtHIT:          0  dtMISS:          0
LLC RFO          ACCESS:     147859  HIT:     109431  MISS:      38428  iACCESS:          0  iHIT:          0  iMISS:          0  dACCESS:     147859  dHIT:     109431  dMISS:      38428  itACCESS:          0  itHIT:          0  itMISS:          0  dtACCESS:          0  dtHIT:          0  dtMISS:          0
LLC PREFETCH     ACCESS:    3594441  HIT:    2992166  MISS:     602275  iACCESS:    1849244  iHIT:    1632265  iMISS:     216979  dACCESS:    1745197  dHIT:    1359901  dMISS:     385296  itACCESS:          0  itHIT:          0  itMISS:          0  dtACCESS:          0  dtHIT:          0  dtMISS:          0
LLC WRITE        ACCESS:     257140  HIT:     257139  MISS:          1  iACCESS:          0  iHIT:          0  iMISS:          0  dACCESS:     257140  dHIT:     257139  dMISS:          1  itACCESS:          0  itHIT:          0  itMISS:          0  dtACCESS:          0  dtHIT:          0  dtMISS:          0
LLC TRANSLATION  ACCESS:      39287  HIT:       8329  MISS:      30958  iACCESS:          0  iHIT:          0  iMISS:          0  dACCESS:          0  dHIT:          0  dMISS:          0  itACCESS:      10258  itHIT:       3167  itMISS:       7091  dtACCESS:      29029  dtHIT:       5162  dtMISS:      23867
LLC PREFETCH  REQUESTED:          0  ISSUED:          0  CROSSED:          0  USEFUL:          0  USELESS:          0
LLC AVERAGE iMISS LATENCY: 45.8305 cycles
LLC AVERAGE dMISS LATENCY: 107.559 cycles
LLC AVERAGE itMISS LATENCY: 1.39282 cycles
LLC AVERAGE dtMISS LATENCY: 4.83113 cycles
LLC PAGE CROSSINGS (TLB HIT):         0 
LLC PAGE CROSSINGS (TLB MISS):         0 
LLC AVERAGE MISS LATENCY: 159.614 cycles

PageTableWalker TOTAL       ACCESS:      88356  
PageTableWalker AVERAGE LATENCY: 4.20219 cycles
PageTableWalker TOTAL LATENCY: 371288 cycles

DRAM Statistics
Channel 0
 RQ ROW_BUFFER_HIT:     248112
  ROW_BUFFER_MISS:     625179
 AVG DBUS CONGESTED CYCLE:    3.63435
 WQ ROW_BUFFER_HIT:      22667
  ROW_BUFFER_MISS:      31139  FULL:          0

