last_page:0x200000000000000
VMEM_RES_CAP:0x100000
PAGE_SIZE:4096
LOG2_PAGE_SIZE:12
LOG2_PAGE_TABLE_SIZE:9
page_table_levels:5
WARNING: physical memory size is smaller than virtual memory size
FDiP enabled with aggresivity 16

*** ChampSim Multicore Out-of-Order Simulator ***

Warmup Instructions: 50000000
Simulation Instructions: 100000000
Number of CPUs: 1
Small page size: 4096
Large page size: 2097152

CPU 0 Bimodal branch predictor
Basic BTB sets: 1024 ways: 8 indirect buffer size: 4096 RAS size: 64
Instruction page size distrubution: 0
Loading instruction page size distribution from /home/bsc/bsc018186/scratch/itp_asplos25_AE/dump/srv133_ap.pdst
Data page size distrubution: 0
Loading data page size distribution from /home/bsc/bsc018186/scratch/itp_asplos25_AE/dump/srv133_ap.pdst
cpu0_L2C IP-based stride prefetcher
cpu0_L1D next line prefetcher
CHiRPing...
cpu0_L1I next line prefetcher
Off-chip DRAM Size: 4 GiB Channels: 1 Width: 64-bit Data Rate: 3200 MT/s
Heartbeat CPU 0 instructions: 10000000 cycles: 2500248 heartbeat IPC: 3.99961 cumulative IPC: 3.99961 (Simulation time: 0 hr 0 min 38 sec) 
Heartbeat CPU 0 instructions: 20000002 cycles: 5000252 heartbeat IPC: 4 cumulative IPC: 3.9998 (Simulation time: 0 hr 1 min 18 sec) 
Heartbeat CPU 0 instructions: 30000001 cycles: 7500269 heartbeat IPC: 3.99998 cumulative IPC: 3.99986 (Simulation time: 0 hr 1 min 58 sec) 
Heartbeat CPU 0 instructions: 40000003 cycles: 10000333 heartbeat IPC: 3.9999 cumulative IPC: 3.99987 (Simulation time: 0 hr 2 min 38 sec) 
Heartbeat CPU 0 instructions: 50000003 cycles: 12500358 heartbeat IPC: 3.99997 cumulative IPC: 3.99989 (Simulation time: 0 hr 3 min 19 sec) 
Warmup finished CPU 0 instructions: 50000003 cycles: 12500359 cumulative IPC: 3.99989 (Simulation time: 0 hr 3 min 19 sec) 

Warmup complete CPU 0 instructions: 50000003 cycles: 12500359 (Simulation time: 0 hr 3 min 19 sec) 

Heartbeat CPU 0 instructions: 60000001 cycles: 27941750 heartbeat IPC: 0.64761 cumulative IPC: 0.64761 (Simulation time: 0 hr 4 min 26 sec) 
Heartbeat CPU 0 instructions: 70000003 cycles: 43582312 heartbeat IPC: 0.639364 cumulative IPC: 0.643461 (Simulation time: 0 hr 5 min 32 sec) 
Heartbeat CPU 0 instructions: 80000001 cycles: 59520400 heartbeat IPC: 0.627428 cumulative IPC: 0.638026 (Simulation time: 0 hr 6 min 38 sec) 
Heartbeat CPU 0 instructions: 90000004 cycles: 75193554 heartbeat IPC: 0.638034 cumulative IPC: 0.638028 (Simulation time: 0 hr 7 min 44 sec) 
Heartbeat CPU 0 instructions: 100000000 cycles: 90901401 heartbeat IPC: 0.636625 cumulative IPC: 0.637747 (Simulation time: 0 hr 8 min 50 sec) 
*** Reached end of trace: /gpfs/projects/bsc18/MN4/bsc18/romol/ChampSim/traces/qualcomm_srv/srv133_ap.champsimtrace.xz
Heartbeat CPU 0 instructions: 110000004 cycles: 107621310 heartbeat IPC: 0.59809 cumulative IPC: 0.630776 (Simulation time: 0 hr 9 min 58 sec) 
Heartbeat CPU 0 instructions: 120000003 cycles: 123302658 heartbeat IPC: 0.637701 cumulative IPC: 0.631756 (Simulation time: 0 hr 11 min 4 sec) 
Heartbeat CPU 0 instructions: 130000000 cycles: 138128484 heartbeat IPC: 0.674499 cumulative IPC: 0.636801 (Simulation time: 0 hr 12 min 9 sec) 
Heartbeat CPU 0 instructions: 140000003 cycles: 153045008 heartbeat IPC: 0.670398 cumulative IPC: 0.640366 (Simulation time: 0 hr 13 min 14 sec) 
Heartbeat CPU 0 instructions: 150000001 cycles: 168508157 heartbeat IPC: 0.646699 cumulative IPC: 0.640994 (Simulation time: 0 hr 14 min 20 sec) 
Simulation finished CPU 0 instructions: 100000002 cycles: 156007800 cumulative IPC: 0.640994 (Simulation time: 0 hr 14 min 20 sec) 

Simulation complete CPU 0 instructions: 100000002 cycles: 156007800 (Simulation time: 0 hr 14 min 20 sec) 


ChampSim completed all CPUs

Saving instructions large page distribution to /home/bsc/bsc018186/scratch/itp_asplos25_AE/dump/srv133_ap.pdst...
Saving data large page distribution to /home/bsc/bsc018186/scratch/itp_asplos25_AE/dump/srv133_ap.pdst...
=== Simulation ===
CPU 0 runs /gpfs/projects/bsc18/MN4/bsc18/romol/ChampSim/traces/qualcomm_srv/srv133_ap.champsimtrace.xz

Region of Interest Statistics

CPU 0 cumulative IPC: 0.640994 instructions: 100000002 cycles: 156007800
CPU 0 Branch Prediction Accuracy: 82.6476% MPKI: 31.112 Average ROB Occupancy at Mispredict: 13.2924
Branch type MPKI
BRANCH_DIRECT_JUMP: 1.04507
BRANCH_INDIRECT: 16.1102
BRANCH_CONDITIONAL: 10.1887
BRANCH_DIRECT_CALL: 1.89521
BRANCH_INDIRECT_CALL: 0.51874
BRANCH_RETURN: 1.35407

Instructions large pages: 0
Instructions small pages: 1119
Large page distribution for instructions: 0%

Data large pages: 0
Data small pages: 9274
Large page distribution for data: 0%

cpu0_L1I TOTAL       ACCESS:   35240553  HIT:   27422534  MISS:    7818019  iACCESS:   35240553  iHIT:   27422534  iMISS:    7818019  dACCESS:          0  dHIT:          0  dMISS:          0  itACCESS:          0  itHIT:          0  itMISS:          0  dtACCESS:          0  dtHIT:          0  dtMISS:          0
cpu0_L1I LOAD         ACCESS:   10346723  HIT:    8151491  MISS:    2195232  iACCESS:   10346723  iHIT:    8151491  iMISS:    2195232  dACCESS:          0  dHIT:          0  dMISS:          0  itACCESS:          0  itHIT:          0  itMISS:          0  dtACCESS:          0  dtHIT:          0  dtMISS:          0
cpu0_L1I RFO          ACCESS:          0  HIT:          0  MISS:          0  iACCESS:          0  iHIT:          0  iMISS:          0  dACCESS:          0  dHIT:          0  dMISS:          0  itACCESS:          0  itHIT:          0  itMISS:          0  dtACCESS:          0  dtHIT:          0  dtMISS:          0
cpu0_L1I PREFETCH     ACCESS:   24893830  HIT:   19271043  MISS:    5622787  iACCESS:   24893830  iHIT:   19271043  iMISS:    5622787  dACCESS:          0  dHIT:          0  dMISS:          0  itACCESS:          0  itHIT:          0  itMISS:          0  dtACCESS:          0  dtHIT:          0  dtMISS:          0
cpu0_L1I WRITE        ACCESS:          0  HIT:          0  MISS:          0  iACCESS:          0  iHIT:          0  iMISS:          0  dACCESS:          0  dHIT:          0  dMISS:          0  itACCESS:          0  itHIT:          0  itMISS:          0  dtACCESS:          0  dtHIT:          0  dtMISS:          0
cpu0_L1I TRANSLATION  ACCESS:          0  HIT:          0  MISS:          0  iACCESS:          0  iHIT:          0  iMISS:          0  dACCESS:          0  dHIT:          0  dMISS:          0  itACCESS:          0  itHIT:          0  itMISS:          0  dtACCESS:          0  dtHIT:          0  dtMISS:          0
cpu0_L1I PREFETCH  REQUESTED:   27439378  ISSUED:   27439378  CROSSED:          0  USEFUL:    1927875  USELESS:     626694
cpu0_L1I AVERAGE iMISS LATENCY: 12.9151 cycles
cpu0_L1I AVERAGE dMISS LATENCY: 0 cycles
cpu0_L1I AVERAGE itMISS LATENCY: 0 cycles
cpu0_L1I AVERAGE dtMISS LATENCY: 0 cycles
cpu0_L1I PAGE CROSSINGS (TLB HIT):         0 
cpu0_L1I PAGE CROSSINGS (TLB MISS):         0 
cpu0_L1I AVERAGE MISS LATENCY: 12.9151 cycles
cpu0_ITLB TOTAL       ACCESS:   29405511  HIT:   27467892  MISS:    1937619  iACCESS:   29405511  iHIT:   27467892  iMISS:    1937619  dACCESS:          0  dHIT:          0  dMISS:          0  itACCESS:          0  itHIT:          0  itMISS:          0  dtACCESS:          0  dtHIT:          0  dtMISS:          0
cpu0_ITLB LOAD         ACCESS:   29405511  HIT:   27467892  MISS:    1937619  iACCESS:   29405511  iHIT:   27467892  iMISS:    1937619  dACCESS:          0  dHIT:          0  dMISS:          0  itACCESS:          0  itHIT:          0  itMISS:          0  dtACCESS:          0  dtHIT:          0  dtMISS:          0
cpu0_ITLB RFO          ACCESS:          0  HIT:          0  MISS:          0  iACCESS:          0  iHIT:          0  iMISS:          0  dACCESS:          0  dHIT:          0  dMISS:          0  itACCESS:          0  itHIT:          0  itMISS:          0  dtACCESS:          0  dtHIT:          0  dtMISS:          0
cpu0_ITLB PREFETCH     ACCESS:          0  HIT:          0  MISS:          0  iACCESS:          0  iHIT:          0  iMISS:          0  dACCESS:          0  dHIT:          0  dMISS:          0  itACCESS:          0  itHIT:          0  itMISS:          0  dtACCESS:          0  dtHIT:          0  dtMISS:          0
cpu0_ITLB WRITE        ACCESS:          0  HIT:          0  MISS:          0  iACCESS:          0  iHIT:          0  iMISS:          0  dACCESS:          0  dHIT:          0  dMISS:          0  itACCESS:          0  itHIT:          0  itMISS:          0  dtACCESS:          0  dtHIT:          0  dtMISS:          0
cpu0_ITLB TRANSLATION  ACCESS:          0  HIT:          0  MISS:          0  iACCESS:          0  iHIT:          0  iMISS:          0  dACCESS:          0  dHIT:          0  dMISS:          0  itACCESS:          0  itHIT:          0  itMISS:          0  dtACCESS:          0  dtHIT:          0  dtMISS:          0
cpu0_ITLB PREFETCH  REQUESTED:          0  ISSUED:          0  CROSSED:          0  USEFUL:     316524  USELESS:      63696
cpu0_ITLB AVERAGE iMISS LATENCY: 5.37953 cycles
cpu0_ITLB AVERAGE dMISS LATENCY: 0 cycles
cpu0_ITLB AVERAGE itMISS LATENCY: 0 cycles
cpu0_ITLB AVERAGE dtMISS LATENCY: 0 cycles
cpu0_ITLB PAGE CROSSINGS (TLB HIT):         0 
cpu0_ITLB PAGE CROSSINGS (TLB MISS):         0 
cpu0_ITLB AVERAGE MISS LATENCY: 5.37953 cycles
cpu0_DTLB TOTAL       ACCESS:   27876654  HIT:   26044113  MISS:    1832541  iACCESS:          0  iHIT:          0  iMISS:          0  dACCESS:   27876654  dHIT:   26044113  dMISS:    1832541  itACCESS:          0  itHIT:          0  itMISS:          0  dtACCESS:          0  dtHIT:          0  dtMISS:          0
cpu0_DTLB LOAD         ACCESS:   27876654  HIT:   26044113  MISS:    1832541  iACCESS:          0  iHIT:          0  iMISS:          0  dACCESS:   27876654  dHIT:   26044113  dMISS:    1832541  itACCESS:          0  itHIT:          0  itMISS:          0  dtACCESS:          0  dtHIT:          0  dtMISS:          0
cpu0_DTLB RFO          ACCESS:          0  HIT:          0  MISS:          0  iACCESS:          0  iHIT:          0  iMISS:          0  dACCESS:          0  dHIT:          0  dMISS:          0  itACCESS:          0  itHIT:          0  itMISS:          0  dtACCESS:          0  dtHIT:          0  dtMISS:          0
cpu0_DTLB PREFETCH     ACCESS:          0  HIT:          0  MISS:          0  iACCESS:          0  iHIT:          0  iMISS:          0  dACCESS:          0  dHIT:          0  dMISS:          0  itACCESS:          0  itHIT:          0  itMISS:          0  dtACCESS:          0  dtHIT:          0  dtMISS:          0
cpu0_DTLB WRITE        ACCESS:          0  HIT:          0  MISS:          0  iACCESS:          0  iHIT:          0  iMISS:          0  dACCESS:          0  dHIT:          0  dMISS:          0  itACCESS:          0  itHIT:          0  itMISS:          0  dtACCESS:          0  dtHIT:          0  dtMISS:          0
cpu0_DTLB TRANSLATION  ACCESS:          0  HIT:          0  MISS:          0  iACCESS:          0  iHIT:          0  iMISS:          0  dACCESS:          0  dHIT:          0  dMISS:          0  itACCESS:          0  itHIT:          0  itMISS:          0  dtACCESS:          0  dtHIT:          0  dtMISS:          0
cpu0_DTLB PREFETCH  REQUESTED:          0  ISSUED:          0  CROSSED:          0  USEFUL:          0  USELESS:          0
cpu0_DTLB AVERAGE iMISS LATENCY: 0 cycles
cpu0_DTLB AVERAGE dMISS LATENCY: 16.091 cycles
cpu0_DTLB AVERAGE itMISS LATENCY: 0 cycles
cpu0_DTLB AVERAGE dtMISS LATENCY: 0 cycles
cpu0_DTLB PAGE CROSSINGS (TLB HIT):         0 
cpu0_DTLB PAGE CROSSINGS (TLB MISS):         0 
cpu0_DTLB AVERAGE MISS LATENCY: 16.091 cycles
cpu0_STLB TOTAL       ACCESS:    1506278  HIT:    1337310  MISS:     168968  iACCESS:     380221  iHIT:     321519  iMISS:      58702  dACCESS:    1126057  dHIT:    1015791  dMISS:     110266  itACCESS:          0  itHIT:          0  itMISS:          0  dtACCESS:          0  dtHIT:          0  dtMISS:          0
cpu0_STLB LOAD         ACCESS:    1506278  HIT:    1337310  MISS:     168968  iACCESS:     380221  iHIT:     321519  iMISS:      58702  dACCESS:    1126057  dHIT:    1015791  dMISS:     110266  itACCESS:          0  itHIT:          0  itMISS:          0  dtACCESS:          0  dtHIT:          0  dtMISS:          0
cpu0_STLB RFO          ACCESS:          0  HIT:          0  MISS:          0  iACCESS:          0  iHIT:          0  iMISS:          0  dACCESS:          0  dHIT:          0  dMISS:          0  itACCESS:          0  itHIT:          0  itMISS:          0  dtACCESS:          0  dtHIT:          0  dtMISS:          0
cpu0_STLB PREFETCH     ACCESS:          0  HIT:          0  MISS:          0  iACCESS:          0  iHIT:          0  iMISS:          0  dACCESS:          0  dHIT:          0  dMISS:          0  itACCESS:          0  itHIT:          0  itMISS:          0  dtACCESS:          0  dtHIT:          0  dtMISS:          0
cpu0_STLB WRITE        ACCESS:          0  HIT:          0  MISS:          0  iACCESS:          0  iHIT:          0  iMISS:          0  dACCESS:          0  dHIT:          0  dMISS:          0  itACCESS:          0  itHIT:          0  itMISS:          0  dtACCESS:          0  dtHIT:          0  dtMISS:          0
cpu0_STLB TRANSLATION  ACCESS:          0  HIT:          0  MISS:          0  iACCESS:          0  iHIT:          0  iMISS:          0  dACCESS:          0  dHIT:          0  dMISS:          0  itACCESS:          0  itHIT:          0  itMISS:          0  dtACCESS:          0  dtHIT:          0  dtMISS:          0
cpu0_STLB PREFETCH  REQUESTED:          0  ISSUED:          0  CROSSED:          0  USEFUL:          0  USELESS:          0
cpu0_STLB AVERAGE iMISS LATENCY: 43.9061 cycles
cpu0_STLB AVERAGE dMISS LATENCY: 121.233 cycles
cpu0_STLB AVERAGE itMISS LATENCY: 0 cycles
cpu0_STLB AVERAGE dtMISS LATENCY: 0 cycles
cpu0_STLB PAGE CROSSINGS (TLB HIT):         0 
cpu0_STLB PAGE CROSSINGS (TLB MISS):         0 
cpu0_STLB AVERAGE MISS LATENCY: 165.139 cycles
cpu0_L1D TOTAL       ACCESS:   41598548  HIT:   38164381  MISS:    3434167  iACCESS:          0  iHIT:          0  iMISS:          0  dACCESS:   41372499  dHIT:   38144764  dMISS:    3227735  itACCESS:      63592  itHIT:       9024  itMISS:      54568  dtACCESS:     162457  dtHIT:      10593  dtMISS:     151864
cpu0_L1D LOAD         ACCESS:   19082054  HIT:   17603487  MISS:    1478567  iACCESS:          0  iHIT:          0  iMISS:          0  dACCESS:   19082054  dHIT:   17603487  dMISS:    1478567  itACCESS:          0  itHIT:          0  itMISS:          0  dtACCESS:          0  dtHIT:          0  dtMISS:          0
cpu0_L1D RFO          ACCESS:          0  HIT:          0  MISS:          0  iACCESS:          0  iHIT:          0  iMISS:          0  dACCESS:          0  dHIT:          0  dMISS:          0  itACCESS:          0  itHIT:          0  itMISS:          0  dtACCESS:          0  dtHIT:          0  dtMISS:          0
cpu0_L1D PREFETCH     ACCESS:   12096477  HIT:   10778014  MISS:    1318463  iACCESS:          0  iHIT:          0  iMISS:          0  dACCESS:   12096477  dHIT:   10778014  dMISS:    1318463  itACCESS:          0  itHIT:          0  itMISS:          0  dtACCESS:          0  dtHIT:          0  dtMISS:          0
cpu0_L1D WRITE        ACCESS:   10193968  HIT:    9763263  MISS:     430705  iACCESS:          0  iHIT:          0  iMISS:          0  dACCESS:   10193968  dHIT:    9763263  dMISS:     430705  itACCESS:          0  itHIT:          0  itMISS:          0  dtACCESS:          0  dtHIT:          0  dtMISS:          0
cpu0_L1D TRANSLATION  ACCESS:     226049  HIT:      19617  MISS:     206432  iACCESS:          0  iHIT:          0  iMISS:          0  dACCESS:          0  dHIT:          0  dMISS:          0  itACCESS:      63592  itHIT:       9024  itMISS:      54568  dtACCESS:     162457  dtHIT:      10593  dtMISS:     151864
cpu0_L1D PREFETCH  REQUESTED:   19082054  ISSUED:   16887313  CROSSED:          0  USEFUL:     305098  USELESS:     703870
cpu0_L1D AVERAGE iMISS LATENCY: 0 cycles
cpu0_L1D AVERAGE dMISS LATENCY: 33.8212 cycles
cpu0_L1D AVERAGE itMISS LATENCY: 2.01371 cycles
cpu0_L1D AVERAGE dtMISS LATENCY: 5.29811 cycles
cpu0_L1D PAGE CROSSINGS (TLB HIT):         0 
cpu0_L1D PAGE CROSSINGS (TLB MISS):         0 
cpu0_L1D AVERAGE MISS LATENCY: 41.133 cycles
cpu0_L2C TOTAL       ACCESS:    6999246  HIT:    4083820  MISS:    2915426  iACCESS:    3301540  iHIT:    2219232  iMISS:    1082308  dACCESS:    3497722  dHIT:    1835445  dMISS:    1662277  itACCESS:      54568  itHIT:       9673  itMISS:      44895  dtACCESS:     145416  dtHIT:      19470  dtMISS:     125946
cpu0_L2C LOAD         ACCESS:    1719018  HIT:    1049245  MISS:     669773  iACCESS:     786433  iHIT:     558204  iMISS:     228229  dACCESS:     932585  dHIT:     491041  dMISS:     441544  itACCESS:          0  itHIT:          0  itMISS:          0  dtACCESS:          0  dtHIT:          0  dtMISS:          0
cpu0_L2C RFO          ACCESS:     158417  HIT:      72941  MISS:      85476  iACCESS:          0  iHIT:          0  iMISS:          0  dACCESS:     158417  dHIT:      72941  dMISS:      85476  itACCESS:          0  itHIT:          0  itMISS:          0  dtACCESS:          0  dtHIT:          0  dtMISS:          0
cpu0_L2C PREFETCH     ACCESS:    4639759  HIT:    2651403  MISS:    1988356  iACCESS:    2515107  iHIT:    1661028  iMISS:     854079  dACCESS:    2124652  dHIT:     990375  dMISS:    1134277  itACCESS:          0  itHIT:          0  itMISS:          0  dtACCESS:          0  dtHIT:          0  dtMISS:          0
cpu0_L2C WRITE        ACCESS:     282068  HIT:     281088  MISS:        980  iACCESS:          0  iHIT:          0  iMISS:          0  dACCESS:     282068  dHIT:     281088  dMISS:        980  itACCESS:          0  itHIT:          0  itMISS:          0  dtACCESS:          0  dtHIT:          0  dtMISS:          0
cpu0_L2C TRANSLATION  ACCESS:     199984  HIT:      29143  MISS:     170841  iACCESS:          0  iHIT:          0  iMISS:          0  dACCESS:          0  dHIT:          0  dMISS:          0  itACCESS:      54568  itHIT:       9673  itMISS:      44895  dtACCESS:     145416  dtHIT:      19470  dtMISS:     125946
cpu0_L2C PREFETCH  REQUESTED:    1374933  ISSUED:    1374933  CROSSED:          0  USEFUL:     327247  USELESS:     234458
cpu0_L2C AVERAGE iMISS LATENCY: 24.3163 cycles
cpu0_L2C AVERAGE dMISS LATENCY: 46.9003 cycles
cpu0_L2C AVERAGE itMISS LATENCY: 2.18765 cycles
cpu0_L2C AVERAGE dtMISS LATENCY: 5.74495 cycles
cpu0_L2C PAGE CROSSINGS (TLB HIT):         0 
cpu0_L2C PAGE CROSSINGS (TLB MISS):         0 
cpu0_L2C AVERAGE MISS LATENCY: 79.1491 cycles
LLC TOTAL       ACCESS:    2942097  HIT:    1832476  MISS:    1109621  iACCESS:    1027521  iHIT:     680752  iMISS:     346769  dACCESS:    1743735  dHIT:    1092720  dMISS:     651015  itACCESS:      44895  itHIT:      12921  itMISS:      31974  dtACCESS:     125946  dtHIT:      46083  dtMISS:      79863
LLC LOAD         ACCESS:     668205  HIT:     426840  MISS:     241365  iACCESS:     227104  iHIT:     151147  iMISS:      75957  dACCESS:     441101  dHIT:     275693  dMISS:     165408  itACCESS:          0  itHIT:          0  itMISS:          0  dtACCESS:          0  dtHIT:          0  dtMISS:          0
LLC RFO          ACCESS:      85469  HIT:      43267  MISS:      42202  iACCESS:          0  iHIT:          0  iMISS:          0  dACCESS:      85469  dHIT:      43267  dMISS:      42202  itACCESS:          0  itHIT:          0  itMISS:          0  dtACCESS:          0  dtHIT:          0  dtMISS:          0
LLC PREFETCH     ACCESS:    1883729  HIT:    1175858  MISS:     707871  iACCESS:     800417  iHIT:     529605  iMISS:     270812  dACCESS:    1083312  dHIT:     646253  dMISS:     437059  itACCESS:          0  itHIT:          0  itMISS:          0  dtACCESS:          0  dtHIT:          0  dtMISS:          0
LLC WRITE        ACCESS:     133853  HIT:     127507  MISS:       6346  iACCESS:          0  iHIT:          0  iMISS:          0  dACCESS:     133853  dHIT:     127507  dMISS:       6346  itACCESS:          0  itHIT:          0  itMISS:          0  dtACCESS:          0  dtHIT:          0  dtMISS:          0
LLC TRANSLATION  ACCESS:     170841  HIT:      59004  MISS:     111837  iACCESS:          0  iHIT:          0  iMISS:          0  dACCESS:          0  dHIT:          0  dMISS:          0  itACCESS:      44895  itHIT:      12921  itMISS:      31974  dtACCESS:     125946  dtHIT:      46083  dtMISS:      79863
LLC PREFETCH  REQUESTED:          0  ISSUED:          0  CROSSED:          0  USEFUL:          0  USELESS:          0
LLC AVERAGE iMISS LATENCY: 45.8813 cycles
LLC AVERAGE dMISS LATENCY: 95.1701 cycles
LLC AVERAGE itMISS LATENCY: 4.95284 cycles
LLC AVERAGE dtMISS LATENCY: 12.8734 cycles
LLC PAGE CROSSINGS (TLB HIT):         0 
LLC PAGE CROSSINGS (TLB MISS):         0 
LLC AVERAGE MISS LATENCY: 158.878 cycles

PageTableWalker TOTAL       ACCESS:      83203  
PageTableWalker AVERAGE LATENCY: 5.25145 cycles
PageTableWalker TOTAL LATENCY: 436936 cycles

DRAM Statistics
Channel 0
 RQ ROW_BUFFER_HIT:     286216
  ROW_BUFFER_MISS:     816970
 AVG DBUS CONGESTED CYCLE:    3.61478
 WQ ROW_BUFFER_HIT:      22204
  ROW_BUFFER_MISS:      21452  FULL:          0

