last_page:0x200000000000000
VMEM_RES_CAP:0x100000
PAGE_SIZE:4096
LOG2_PAGE_SIZE:12
LOG2_PAGE_TABLE_SIZE:9
page_table_levels:5
WARNING: physical memory size is smaller than virtual memory size
FDiP enabled with aggresivity 16

*** ChampSim Multicore Out-of-Order Simulator ***

Warmup Instructions: 50000000
Simulation Instructions: 100000000
Number of CPUs: 1
Small page size: 4096
Large page size: 2097152

CPU 0 Bimodal branch predictor
Basic BTB sets: 1024 ways: 8 indirect buffer size: 4096 RAS size: 64
Instruction page size distrubution: 0
Loading instruction page size distribution from /home/bsc/bsc018186/scratch/itp_asplos25_AE/dump/srv171_ap.pdst
Data page size distrubution: 0
Loading data page size distribution from /home/bsc/bsc018186/scratch/itp_asplos25_AE/dump/srv171_ap.pdst
cpu0_L2C IP-based stride prefetcher
cpu0_L2C is using PTP replacement policy:
	TLB_STRESS_THRESHOLD:0
	PTE_EVICTION_RATIO:0
cpu0_L1D next line prefetcher
CHiRPing...
cpu0_L1I next line prefetcher
Off-chip DRAM Size: 4 GiB Channels: 1 Width: 64-bit Data Rate: 3200 MT/s
Heartbeat CPU 0 instructions: 10000001 cycles: 2502063 heartbeat IPC: 3.99671 cumulative IPC: 3.99671 (Simulation time: 0 hr 0 min 38 sec) 
Heartbeat CPU 0 instructions: 20000002 cycles: 5002257 heartbeat IPC: 3.9997 cumulative IPC: 3.9982 (Simulation time: 0 hr 1 min 19 sec) 
Heartbeat CPU 0 instructions: 30000000 cycles: 7502440 heartbeat IPC: 3.99971 cumulative IPC: 3.9987 (Simulation time: 0 hr 2 min 0 sec) 
Heartbeat CPU 0 instructions: 40000001 cycles: 10002469 heartbeat IPC: 3.99996 cumulative IPC: 3.99902 (Simulation time: 0 hr 2 min 41 sec) 
Heartbeat CPU 0 instructions: 50000002 cycles: 12502470 heartbeat IPC: 4 cumulative IPC: 3.99921 (Simulation time: 0 hr 3 min 22 sec) 
Warmup finished CPU 0 instructions: 50000002 cycles: 12502471 cumulative IPC: 3.99921 (Simulation time: 0 hr 3 min 22 sec) 

Warmup complete CPU 0 instructions: 50000002 cycles: 12502471 (Simulation time: 0 hr 3 min 22 sec) 

Heartbeat CPU 0 instructions: 60000001 cycles: 26609412 heartbeat IPC: 0.708871 cumulative IPC: 0.708871 (Simulation time: 0 hr 4 min 26 sec) 
Heartbeat CPU 0 instructions: 70000004 cycles: 40723795 heartbeat IPC: 0.708498 cumulative IPC: 0.708685 (Simulation time: 0 hr 5 min 29 sec) 
Heartbeat CPU 0 instructions: 80000003 cycles: 55400103 heartbeat IPC: 0.681371 cumulative IPC: 0.69934 (Simulation time: 0 hr 6 min 35 sec) 
Heartbeat CPU 0 instructions: 90000000 cycles: 69596988 heartbeat IPC: 0.70438 cumulative IPC: 0.700593 (Simulation time: 0 hr 7 min 39 sec) 
Heartbeat CPU 0 instructions: 100000004 cycles: 84188765 heartbeat IPC: 0.685318 cumulative IPC: 0.697484 (Simulation time: 0 hr 8 min 43 sec) 
*** Reached end of trace: /gpfs/projects/bsc18/MN4/bsc18/romol/ChampSim/traces/qualcomm_srv/srv171_ap.champsimtrace.xz
Heartbeat CPU 0 instructions: 110000003 cycles: 98804721 heartbeat IPC: 0.684184 cumulative IPC: 0.695232 (Simulation time: 0 hr 9 min 48 sec) 
Heartbeat CPU 0 instructions: 120000003 cycles: 113778575 heartbeat IPC: 0.667831 cumulative IPC: 0.69118 (Simulation time: 0 hr 10 min 52 sec) 
Heartbeat CPU 0 instructions: 130000002 cycles: 128077247 heartbeat IPC: 0.699366 cumulative IPC: 0.692193 (Simulation time: 0 hr 11 min 57 sec) 
Heartbeat CPU 0 instructions: 140000004 cycles: 141735022 heartbeat IPC: 0.732184 cumulative IPC: 0.696419 (Simulation time: 0 hr 13 min 0 sec) 
Heartbeat CPU 0 instructions: 150000003 cycles: 155889010 heartbeat IPC: 0.706515 cumulative IPC: 0.697416 (Simulation time: 0 hr 14 min 4 sec) 
Simulation finished CPU 0 instructions: 100000001 cycles: 143386540 cumulative IPC: 0.697416 (Simulation time: 0 hr 14 min 4 sec) 

Simulation complete CPU 0 instructions: 100000001 cycles: 143386540 (Simulation time: 0 hr 14 min 4 sec) 


ChampSim completed all CPUs

Saving instructions large page distribution to /home/bsc/bsc018186/scratch/itp_asplos25_AE/dump/srv171_ap.pdst...
Saving data large page distribution to /home/bsc/bsc018186/scratch/itp_asplos25_AE/dump/srv171_ap.pdst...
=== Simulation ===
CPU 0 runs /gpfs/projects/bsc18/MN4/bsc18/romol/ChampSim/traces/qualcomm_srv/srv171_ap.champsimtrace.xz

Region of Interest Statistics

CPU 0 cumulative IPC: 0.697416 instructions: 100000001 cycles: 143386540
CPU 0 Branch Prediction Accuracy: 83.3635% MPKI: 29.7299 Average ROB Occupancy at Mispredict: 12.322
Branch type MPKI
BRANCH_DIRECT_JUMP: 1.02615
BRANCH_INDIRECT: 15.295
BRANCH_CONDITIONAL: 9.72302
BRANCH_DIRECT_CALL: 1.84627
BRANCH_INDIRECT_CALL: 0.506
BRANCH_RETURN: 1.33345

Instructions large pages: 0
Instructions small pages: 1107
Large page distribution for instructions: 0%

Data large pages: 0
Data small pages: 10526
Large page distribution for data: 0%

cpu0_L1I TOTAL       ACCESS:   35117432  HIT:   26813914  MISS:    8303518  iACCESS:   35117432  iHIT:   26813914  iMISS:    8303518  dACCESS:          0  dHIT:          0  dMISS:          0  itACCESS:          0  itHIT:          0  itMISS:          0  dtACCESS:          0  dtHIT:          0  dtMISS:          0
cpu0_L1I LOAD         ACCESS:   10294936  HIT:    7973835  MISS:    2321101  iACCESS:   10294936  iHIT:    7973835  iMISS:    2321101  dACCESS:          0  dHIT:          0  dMISS:          0  itACCESS:          0  itHIT:          0  itMISS:          0  dtACCESS:          0  dtHIT:          0  dtMISS:          0
cpu0_L1I RFO          ACCESS:          0  HIT:          0  MISS:          0  iACCESS:          0  iHIT:          0  iMISS:          0  dACCESS:          0  dHIT:          0  dMISS:          0  itACCESS:          0  itHIT:          0  itMISS:          0  dtACCESS:          0  dtHIT:          0  dtMISS:          0
cpu0_L1I PREFETCH     ACCESS:   24822496  HIT:   18840079  MISS:    5982417  iACCESS:   24822496  iHIT:   18840079  iMISS:    5982417  dACCESS:          0  dHIT:          0  dMISS:          0  itACCESS:          0  itHIT:          0  itMISS:          0  dtACCESS:          0  dtHIT:          0  dtMISS:          0
cpu0_L1I WRITE        ACCESS:          0  HIT:          0  MISS:          0  iACCESS:          0  iHIT:          0  iMISS:          0  dACCESS:          0  dHIT:          0  dMISS:          0  itACCESS:          0  itHIT:          0  itMISS:          0  dtACCESS:          0  dtHIT:          0  dtMISS:          0
cpu0_L1I TRANSLATION  ACCESS:          0  HIT:          0  MISS:          0  iACCESS:          0  iHIT:          0  iMISS:          0  dACCESS:          0  dHIT:          0  dMISS:          0  itACCESS:          0  itHIT:          0  itMISS:          0  dtACCESS:          0  dtHIT:          0  dtMISS:          0
cpu0_L1I PREFETCH  REQUESTED:   27152647  ISSUED:   27150744  CROSSED:          0  USEFUL:    1881059  USELESS:     618890
cpu0_L1I AVERAGE iMISS LATENCY: 14.3358 cycles
cpu0_L1I AVERAGE dMISS LATENCY: 0 cycles
cpu0_L1I AVERAGE itMISS LATENCY: 0 cycles
cpu0_L1I AVERAGE dtMISS LATENCY: 0 cycles
cpu0_L1I PAGE CROSSINGS (TLB HIT):         0 
cpu0_L1I PAGE CROSSINGS (TLB MISS):         0 
cpu0_L1I AVERAGE MISS LATENCY: 14.3358 cycles
cpu0_ITLB TOTAL       ACCESS:   29040446  HIT:   27090468  MISS:    1949978  iACCESS:   29040446  iHIT:   27090468  iMISS:    1949978  dACCESS:          0  dHIT:          0  dMISS:          0  itACCESS:          0  itHIT:          0  itMISS:          0  dtACCESS:          0  dtHIT:          0  dtMISS:          0
cpu0_ITLB LOAD         ACCESS:   29040446  HIT:   27090468  MISS:    1949978  iACCESS:   29040446  iHIT:   27090468  iMISS:    1949978  dACCESS:          0  dHIT:          0  dMISS:          0  itACCESS:          0  itHIT:          0  itMISS:          0  dtACCESS:          0  dtHIT:          0  dtMISS:          0
cpu0_ITLB RFO          ACCESS:          0  HIT:          0  MISS:          0  iACCESS:          0  iHIT:          0  iMISS:          0  dACCESS:          0  dHIT:          0  dMISS:          0  itACCESS:          0  itHIT:          0  itMISS:          0  dtACCESS:          0  dtHIT:          0  dtMISS:          0
cpu0_ITLB PREFETCH     ACCESS:          0  HIT:          0  MISS:          0  iACCESS:          0  iHIT:          0  iMISS:          0  dACCESS:          0  dHIT:          0  dMISS:          0  itACCESS:          0  itHIT:          0  itMISS:          0  dtACCESS:          0  dtHIT:          0  dtMISS:          0
cpu0_ITLB WRITE        ACCESS:          0  HIT:          0  MISS:          0  iACCESS:          0  iHIT:          0  iMISS:          0  dACCESS:          0  dHIT:          0  dMISS:          0  itACCESS:          0  itHIT:          0  itMISS:          0  dtACCESS:          0  dtHIT:          0  dtMISS:          0
cpu0_ITLB TRANSLATION  ACCESS:          0  HIT:          0  MISS:          0  iACCESS:          0  iHIT:          0  iMISS:          0  dACCESS:          0  dHIT:          0  dMISS:          0  itACCESS:          0  itHIT:          0  itMISS:          0  dtACCESS:          0  dtHIT:          0  dtMISS:          0
cpu0_ITLB PREFETCH  REQUESTED:          0  ISSUED:          0  CROSSED:          0  USEFUL:     318121  USELESS:      65649
cpu0_ITLB AVERAGE iMISS LATENCY: 2.97538 cycles
cpu0_ITLB AVERAGE dMISS LATENCY: 0 cycles
cpu0_ITLB AVERAGE itMISS LATENCY: 0 cycles
cpu0_ITLB AVERAGE dtMISS LATENCY: 0 cycles
cpu0_ITLB PAGE CROSSINGS (TLB HIT):         0 
cpu0_ITLB PAGE CROSSINGS (TLB MISS):         0 
cpu0_ITLB AVERAGE MISS LATENCY: 2.97538 cycles
cpu0_DTLB TOTAL       ACCESS:   27714618  HIT:   25654127  MISS:    2060491  iACCESS:          0  iHIT:          0  iMISS:          0  dACCESS:   27714618  dHIT:   25654127  dMISS:    2060491  itACCESS:          0  itHIT:          0  itMISS:          0  dtACCESS:          0  dtHIT:          0  dtMISS:          0
cpu0_DTLB LOAD         ACCESS:   27714618  HIT:   25654127  MISS:    2060491  iACCESS:          0  iHIT:          0  iMISS:          0  dACCESS:   27714618  dHIT:   25654127  dMISS:    2060491  itACCESS:          0  itHIT:          0  itMISS:          0  dtACCESS:          0  dtHIT:          0  dtMISS:          0
cpu0_DTLB RFO          ACCESS:          0  HIT:          0  MISS:          0  iACCESS:          0  iHIT:          0  iMISS:          0  dACCESS:          0  dHIT:          0  dMISS:          0  itACCESS:          0  itHIT:          0  itMISS:          0  dtACCESS:          0  dtHIT:          0  dtMISS:          0
cpu0_DTLB PREFETCH     ACCESS:          0  HIT:          0  MISS:          0  iACCESS:          0  iHIT:          0  iMISS:          0  dACCESS:          0  dHIT:          0  dMISS:          0  itACCESS:          0  itHIT:          0  itMISS:          0  dtACCESS:          0  dtHIT:          0  dtMISS:          0
cpu0_DTLB WRITE        ACCESS:          0  HIT:          0  MISS:          0  iACCESS:          0  iHIT:          0  iMISS:          0  dACCESS:          0  dHIT:          0  dMISS:          0  itACCESS:          0  itHIT:          0  itMISS:          0  dtACCESS:          0  dtHIT:          0  dtMISS:          0
cpu0_DTLB TRANSLATION  ACCESS:          0  HIT:          0  MISS:          0  iACCESS:          0  iHIT:          0  iMISS:          0  dACCESS:          0  dHIT:          0  dMISS:          0  itACCESS:          0  itHIT:          0  itMISS:          0  dtACCESS:          0  dtHIT:          0  dtMISS:          0
cpu0_DTLB PREFETCH  REQUESTED:          0  ISSUED:          0  CROSSED:          0  USEFUL:          0  USELESS:          0
cpu0_DTLB AVERAGE iMISS LATENCY: 0 cycles
cpu0_DTLB AVERAGE dMISS LATENCY: 9.12273 cycles
cpu0_DTLB AVERAGE itMISS LATENCY: 0 cycles
cpu0_DTLB AVERAGE dtMISS LATENCY: 0 cycles
cpu0_DTLB PAGE CROSSINGS (TLB HIT):         0 
cpu0_DTLB PAGE CROSSINGS (TLB MISS):         0 
cpu0_DTLB AVERAGE MISS LATENCY: 9.12273 cycles
cpu0_STLB TOTAL       ACCESS:    1609951  HIT:    1434095  MISS:     175856  iACCESS:     383793  iHIT:     319726  iMISS:      64067  dACCESS:    1226158  dHIT:    1114369  dMISS:     111789  itACCESS:          0  itHIT:          0  itMISS:          0  dtACCESS:          0  dtHIT:          0  dtMISS:          0
cpu0_STLB LOAD         ACCESS:    1609951  HIT:    1434095  MISS:     175856  iACCESS:     383793  iHIT:     319726  iMISS:      64067  dACCESS:    1226158  dHIT:    1114369  dMISS:     111789  itACCESS:          0  itHIT:          0  itMISS:          0  dtACCESS:          0  dtHIT:          0  dtMISS:          0
cpu0_STLB RFO          ACCESS:          0  HIT:          0  MISS:          0  iACCESS:          0  iHIT:          0  iMISS:          0  dACCESS:          0  dHIT:          0  dMISS:          0  itACCESS:          0  itHIT:          0  itMISS:          0  dtACCESS:          0  dtHIT:          0  dtMISS:          0
cpu0_STLB PREFETCH     ACCESS:          0  HIT:          0  MISS:          0  iACCESS:          0  iHIT:          0  iMISS:          0  dACCESS:          0  dHIT:          0  dMISS:          0  itACCESS:          0  itHIT:          0  itMISS:          0  dtACCESS:          0  dtHIT:          0  dtMISS:          0
cpu0_STLB WRITE        ACCESS:          0  HIT:          0  MISS:          0  iACCESS:          0  iHIT:          0  iMISS:          0  dACCESS:          0  dHIT:          0  dMISS:          0  itACCESS:          0  itHIT:          0  itMISS:          0  dtACCESS:          0  dtHIT:          0  dtMISS:          0
cpu0_STLB TRANSLATION  ACCESS:          0  HIT:          0  MISS:          0  iACCESS:          0  iHIT:          0  iMISS:          0  dACCESS:          0  dHIT:          0  dMISS:          0  itACCESS:          0  itHIT:          0  itMISS:          0  dtACCESS:          0  dtHIT:          0  dtMISS:          0
cpu0_STLB PREFETCH  REQUESTED:          0  ISSUED:          0  CROSSED:          0  USEFUL:          0  USELESS:          0
cpu0_STLB AVERAGE iMISS LATENCY: 15.7195 cycles
cpu0_STLB AVERAGE dMISS LATENCY: 51.3112 cycles
cpu0_STLB AVERAGE itMISS LATENCY: 0 cycles
cpu0_STLB AVERAGE dtMISS LATENCY: 0 cycles
cpu0_STLB PAGE CROSSINGS (TLB HIT):         0 
cpu0_STLB PAGE CROSSINGS (TLB MISS):         0 
cpu0_STLB AVERAGE MISS LATENCY: 67.0307 cycles
cpu0_L1D TOTAL       ACCESS:   41647306  HIT:   38006842  MISS:    3640464  iACCESS:          0  iHIT:          0  iMISS:          0  dACCESS:   41403931  dHIT:   37984583  dMISS:    3419348  itACCESS:      69612  itHIT:      10186  itMISS:      59426  dtACCESS:     173763  dtHIT:      12073  dtMISS:     161690
cpu0_L1D LOAD         ACCESS:   18975425  HIT:   17429777  MISS:    1545648  iACCESS:          0  iHIT:          0  iMISS:          0  dACCESS:   18975425  dHIT:   17429777  dMISS:    1545648  itACCESS:          0  itHIT:          0  itMISS:          0  dtACCESS:          0  dtHIT:          0  dtMISS:          0
cpu0_L1D RFO          ACCESS:          0  HIT:          0  MISS:          0  iACCESS:          0  iHIT:          0  iMISS:          0  dACCESS:          0  dHIT:          0  dMISS:          0  itACCESS:          0  itHIT:          0  itMISS:          0  dtACCESS:          0  dtHIT:          0  dtMISS:          0
cpu0_L1D PREFETCH     ACCESS:   12242639  HIT:   10816490  MISS:    1426149  iACCESS:          0  iHIT:          0  iMISS:          0  dACCESS:   12242639  dHIT:   10816490  dMISS:    1426149  itACCESS:          0  itHIT:          0  itMISS:          0  dtACCESS:          0  dtHIT:          0  dtMISS:          0
cpu0_L1D WRITE        ACCESS:   10185867  HIT:    9738316  MISS:     447551  iACCESS:          0  iHIT:          0  iMISS:          0  dACCESS:   10185867  dHIT:    9738316  dMISS:     447551  itACCESS:          0  itHIT:          0  itMISS:          0  dtACCESS:          0  dtHIT:          0  dtMISS:          0
cpu0_L1D TRANSLATION  ACCESS:     243375  HIT:      22259  MISS:     221116  iACCESS:          0  iHIT:          0  iMISS:          0  dACCESS:          0  dHIT:          0  dMISS:          0  itACCESS:      69612  itHIT:      10186  itMISS:      59426  dtACCESS:     173763  dtHIT:      12073  dtMISS:     161690
cpu0_L1D PREFETCH  REQUESTED:   18975425  ISSUED:   17069439  CROSSED:          0  USEFUL:     304897  USELESS:     693627
cpu0_L1D AVERAGE iMISS LATENCY: 0 cycles
cpu0_L1D AVERAGE dMISS LATENCY: 35.2765 cycles
cpu0_L1D AVERAGE itMISS LATENCY: 0.607429 cycles
cpu0_L1D AVERAGE dtMISS LATENCY: 1.76754 cycles
cpu0_L1D PAGE CROSSINGS (TLB HIT):         0 
cpu0_L1D PAGE CROSSINGS (TLB MISS):         0 
cpu0_L1D AVERAGE MISS LATENCY: 37.6515 cycles
cpu0_L2C TOTAL       ACCESS:    6889155  HIT:    1204728  MISS:    5684427  iACCESS:    3241381  iHIT:     674763  iMISS:    2566618  dACCESS:    3440354  dHIT:     364696  dMISS:    3075658  itACCESS:      59412  itHIT:      47665  itMISS:      11747  dtACCESS:     148008  dtHIT:     117604  dtMISS:      30404
cpu0_L2C LOAD         ACCESS:    1697712  HIT:     137345  MISS:    1560367  iACCESS:     774943  iHIT:     101206  iMISS:     673737  dACCESS:     922769  dHIT:      36139  dMISS:     886630  itACCESS:          0  itHIT:          0  itMISS:          0  dtACCESS:          0  dtHIT:          0  dtMISS:          0
cpu0_L2C RFO          ACCESS:     156551  HIT:       9340  MISS:     147211  iACCESS:          0  iHIT:          0  iMISS:          0  dACCESS:     156551  dHIT:       9340  dMISS:     147211  itACCESS:          0  itHIT:          0  itMISS:          0  dtACCESS:          0  dtHIT:          0  dtMISS:          0
cpu0_L2C PREFETCH     ACCESS:    4545082  HIT:     837393  MISS:    3707689  iACCESS:    2466438  iHIT:     573557  iMISS:    1892881  dACCESS:    2078644  dHIT:     263836  dMISS:    1814808  itACCESS:          0  itHIT:          0  itMISS:          0  dtACCESS:          0  dtHIT:          0  dtMISS:          0
cpu0_L2C WRITE        ACCESS:     282390  HIT:      55381  MISS:     227009  iACCESS:          0  iHIT:          0  iMISS:          0  dACCESS:     282390  dHIT:      55381  dMISS:     227009  itACCESS:          0  itHIT:          0  itMISS:          0  dtACCESS:          0  dtHIT:          0  dtMISS:          0
cpu0_L2C TRANSLATION  ACCESS:     207420  HIT:     165269  MISS:      42151  iACCESS:          0  iHIT:          0  iMISS:          0  dACCESS:          0  dHIT:          0  dMISS:          0  itACCESS:      59412  itHIT:      47665  itMISS:      11747  dtACCESS:     148008  dtHIT:     117604  dtMISS:      30404
cpu0_L2C PREFETCH  REQUESTED:    1328333  ISSUED:    1328333  CROSSED:          0  USEFUL:     406761  USELESS:     385471
cpu0_L2C AVERAGE iMISS LATENCY: 15.6937 cycles
cpu0_L2C AVERAGE dMISS LATENCY: 26.3089 cycles
cpu0_L2C AVERAGE itMISS LATENCY: 0.292675 cycles
cpu0_L2C AVERAGE dtMISS LATENCY: 0.891034 cycles
cpu0_L2C PAGE CROSSINGS (TLB HIT):         0 
cpu0_L2C PAGE CROSSINGS (TLB MISS):         0 
cpu0_L2C AVERAGE MISS LATENCY: 43.1862 cycles
LLC TOTAL       ACCESS:    5600404  HIT:    4706489  MISS:     893915  iACCESS:    2512236  iHIT:    2233719  iMISS:     278517  dACCESS:    3046017  dHIT:    2463882  dMISS:     582135  itACCESS:      11747  itHIT:       3460  itMISS:       8287  dtACCESS:      30404  dtHIT:       5428  dtMISS:      24976
LLC LOAD         ACCESS:    1558152  HIT:    1350180  MISS:     207972  iACCESS:     672567  iHIT:     615953  iMISS:      56614  dACCESS:     885585  dHIT:     734227  dMISS:     151358  itACCESS:          0  itHIT:          0  itMISS:          0  dtACCESS:          0  dtHIT:          0  dtMISS:          0
LLC RFO          ACCESS:     147211  HIT:     105465  MISS:      41746  iACCESS:          0  iHIT:          0  iMISS:          0  dACCESS:     147211  dHIT:     105465  dMISS:      41746  itACCESS:          0  itHIT:          0  itMISS:          0  dtACCESS:          0  dtHIT:          0  dtMISS:          0
LLC PREFETCH     ACCESS:    3596923  HIT:    2985989  MISS:     610934  iACCESS:    1839669  iHIT:    1617766  iMISS:     221903  dACCESS:    1757254  dHIT:    1368223  dMISS:     389031  itACCESS:          0  itHIT:          0  itMISS:          0  dtACCESS:          0  dtHIT:          0  dtMISS:          0
LLC WRITE        ACCESS:     255967  HIT:     255967  MISS:          0  iACCESS:          0  iHIT:          0  iMISS:          0  dACCESS:     255967  dHIT:     255967  dMISS:          0  itACCESS:          0  itHIT:          0  itMISS:          0  dtACCESS:          0  dtHIT:          0  dtMISS:          0
LLC TRANSLATION  ACCESS:      42151  HIT:       8888  MISS:      33263  iACCESS:          0  iHIT:          0  iMISS:          0  dACCESS:          0  dHIT:          0  dMISS:          0  itACCESS:      11747  itHIT:       3460  itMISS:       8287  dtACCESS:      30404  dtHIT:       5428  dtMISS:      24976
LLC PREFETCH  REQUESTED:          0  ISSUED:          0  CROSSED:          0  USEFUL:          0  USELESS:          0
LLC AVERAGE iMISS LATENCY: 45.5672 cycles
LLC AVERAGE dMISS LATENCY: 107.172 cycles
LLC AVERAGE itMISS LATENCY: 1.60271 cycles
LLC AVERAGE dtMISS LATENCY: 4.99546 cycles
LLC PAGE CROSSINGS (TLB HIT):         0 
LLC PAGE CROSSINGS (TLB MISS):         0 
LLC AVERAGE MISS LATENCY: 159.337 cycles

PageTableWalker TOTAL       ACCESS:      87141  
PageTableWalker AVERAGE LATENCY: 4.25204 cycles
PageTableWalker TOTAL LATENCY: 370527 cycles

DRAM Statistics
Channel 0
 RQ ROW_BUFFER_HIT:     258929
  ROW_BUFFER_MISS:     634209
 AVG DBUS CONGESTED CYCLE:    3.64381
 WQ ROW_BUFFER_HIT:      22429
  ROW_BUFFER_MISS:      30889  FULL:          0

