last_page:0x200000000000000
VMEM_RES_CAP:0x100000
PAGE_SIZE:4096
LOG2_PAGE_SIZE:12
LOG2_PAGE_TABLE_SIZE:9
page_table_levels:5
WARNING: physical memory size is smaller than virtual memory size
FDiP enabled with aggresivity 16

*** ChampSim Multicore Out-of-Order Simulator ***

Warmup Instructions: 50000000
Simulation Instructions: 100000000
Number of CPUs: 1
Small page size: 4096
Large page size: 2097152

CPU 0 Bimodal branch predictor
Basic BTB sets: 1024 ways: 8 indirect buffer size: 4096 RAS size: 64
Instruction page size distrubution: 0
Loading instruction page size distribution from /home/bsc/bsc018186/scratch/itp_asplos25_AE/dump/srv133_ap.pdst
Data page size distrubution: 0
Loading data page size distribution from /home/bsc/bsc018186/scratch/itp_asplos25_AE/dump/srv133_ap.pdst
cpu0_L2C IP-based stride prefetcher
cpu0_L1D next line prefetcher
cpu0_STLB using iTP with max lru@8
cpu0_STLB using iTP with instr@0 and data@2
Init sat counter with 3 bits (max:50).
cpu0_L1I next line prefetcher
Off-chip DRAM Size: 4 GiB Channels: 1 Width: 64-bit Data Rate: 3200 MT/s
Heartbeat CPU 0 instructions: 10000003 cycles: 2500226 heartbeat IPC: 3.99964 cumulative IPC: 3.99964 (Simulation time: 0 hr 0 min 36 sec) 
Heartbeat CPU 0 instructions: 20000003 cycles: 5000258 heartbeat IPC: 3.99995 cumulative IPC: 3.9998 (Simulation time: 0 hr 1 min 15 sec) 
Heartbeat CPU 0 instructions: 30000002 cycles: 7500258 heartbeat IPC: 4 cumulative IPC: 3.99987 (Simulation time: 0 hr 1 min 55 sec) 
Heartbeat CPU 0 instructions: 40000003 cycles: 10000271 heartbeat IPC: 3.99998 cumulative IPC: 3.9999 (Simulation time: 0 hr 2 min 34 sec) 
Heartbeat CPU 0 instructions: 50000001 cycles: 12500285 heartbeat IPC: 3.99998 cumulative IPC: 3.99991 (Simulation time: 0 hr 3 min 14 sec) 
Warmup finished CPU 0 instructions: 50000001 cycles: 12500286 cumulative IPC: 3.99991 (Simulation time: 0 hr 3 min 14 sec) 

Warmup complete CPU 0 instructions: 50000001 cycles: 12500286 (Simulation time: 0 hr 3 min 14 sec) 

Heartbeat CPU 0 instructions: 60000001 cycles: 27378918 heartbeat IPC: 0.672105 cumulative IPC: 0.672105 (Simulation time: 0 hr 4 min 18 sec) 
Heartbeat CPU 0 instructions: 70000003 cycles: 42360850 heartbeat IPC: 0.667471 cumulative IPC: 0.66978 (Simulation time: 0 hr 5 min 21 sec) 
Heartbeat CPU 0 instructions: 80000001 cycles: 57562020 heartbeat IPC: 0.657844 cumulative IPC: 0.665754 (Simulation time: 0 hr 6 min 25 sec) 
Heartbeat CPU 0 instructions: 90000004 cycles: 72703310 heartbeat IPC: 0.660446 cumulative IPC: 0.664419 (Simulation time: 0 hr 7 min 30 sec) 
Heartbeat CPU 0 instructions: 100000000 cycles: 87905841 heartbeat IPC: 0.657785 cumulative IPC: 0.663082 (Simulation time: 0 hr 8 min 34 sec) 
*** Reached end of trace: /gpfs/projects/bsc18/MN4/bsc18/romol/ChampSim/traces/qualcomm_srv/srv133_ap.champsimtrace.xz
Heartbeat CPU 0 instructions: 110000004 cycles: 104130087 heartbeat IPC: 0.616362 cumulative IPC: 0.654809 (Simulation time: 0 hr 9 min 40 sec) 
Heartbeat CPU 0 instructions: 120000004 cycles: 119260310 heartbeat IPC: 0.660929 cumulative IPC: 0.655677 (Simulation time: 0 hr 10 min 43 sec) 
Heartbeat CPU 0 instructions: 130000000 cycles: 133626624 heartbeat IPC: 0.696073 cumulative IPC: 0.660468 (Simulation time: 0 hr 11 min 46 sec) 
Heartbeat CPU 0 instructions: 140000003 cycles: 147970868 heartbeat IPC: 0.697144 cumulative IPC: 0.664351 (Simulation time: 0 hr 12 min 48 sec) 
Heartbeat CPU 0 instructions: 150000001 cycles: 162920817 heartbeat IPC: 0.668899 cumulative IPC: 0.664803 (Simulation time: 0 hr 13 min 52 sec) 
Simulation finished CPU 0 instructions: 100000000 cycles: 150420532 cumulative IPC: 0.664803 (Simulation time: 0 hr 13 min 52 sec) 

Simulation complete CPU 0 instructions: 100000000 cycles: 150420532 (Simulation time: 0 hr 13 min 52 sec) 


ChampSim completed all CPUs

Saving instructions large page distribution to /home/bsc/bsc018186/scratch/itp_asplos25_AE/dump/srv133_ap.pdst...
Saving data large page distribution to /home/bsc/bsc018186/scratch/itp_asplos25_AE/dump/srv133_ap.pdst...
=== Simulation ===
CPU 0 runs /gpfs/projects/bsc18/MN4/bsc18/romol/ChampSim/traces/qualcomm_srv/srv133_ap.champsimtrace.xz

Region of Interest Statistics

CPU 0 cumulative IPC: 0.664803 instructions: 100000000 cycles: 150420532
CPU 0 Branch Prediction Accuracy: 82.6476% MPKI: 31.112 Average ROB Occupancy at Mispredict: 13.5378
Branch type MPKI
BRANCH_DIRECT_JUMP: 1.04508
BRANCH_INDIRECT: 16.1102
BRANCH_CONDITIONAL: 10.1887
BRANCH_DIRECT_CALL: 1.89522
BRANCH_INDIRECT_CALL: 0.518741
BRANCH_RETURN: 1.35408

Instructions large pages: 0
Instructions small pages: 1119
Large page distribution for instructions: 0%

Data large pages: 0
Data small pages: 9274
Large page distribution for data: 0%

cpu0_L1I TOTAL       ACCESS:   35235283  HIT:   27428896  MISS:    7806387  iACCESS:   35235283  iHIT:   27428896  iMISS:    7806387  dACCESS:          0  dHIT:          0  dMISS:          0  itACCESS:          0  itHIT:          0  itMISS:          0  dtACCESS:          0  dtHIT:          0  dtMISS:          0
cpu0_L1I LOAD         ACCESS:   10346650  HIT:    8157724  MISS:    2188926  iACCESS:   10346650  iHIT:    8157724  iMISS:    2188926  dACCESS:          0  dHIT:          0  dMISS:          0  itACCESS:          0  itHIT:          0  itMISS:          0  dtACCESS:          0  dtHIT:          0  dtMISS:          0
cpu0_L1I RFO          ACCESS:          0  HIT:          0  MISS:          0  iACCESS:          0  iHIT:          0  iMISS:          0  dACCESS:          0  dHIT:          0  dMISS:          0  itACCESS:          0  itHIT:          0  itMISS:          0  dtACCESS:          0  dtHIT:          0  dtMISS:          0
cpu0_L1I PREFETCH     ACCESS:   24888633  HIT:   19271172  MISS:    5617461  iACCESS:   24888633  iHIT:   19271172  iMISS:    5617461  dACCESS:          0  dHIT:          0  dMISS:          0  itACCESS:          0  itHIT:          0  itMISS:          0  dtACCESS:          0  dtHIT:          0  dtMISS:          0
cpu0_L1I WRITE        ACCESS:          0  HIT:          0  MISS:          0  iACCESS:          0  iHIT:          0  iMISS:          0  dACCESS:          0  dHIT:          0  dMISS:          0  itACCESS:          0  itHIT:          0  itMISS:          0  dtACCESS:          0  dtHIT:          0  dtMISS:          0
cpu0_L1I TRANSLATION  ACCESS:          0  HIT:          0  MISS:          0  iACCESS:          0  iHIT:          0  iMISS:          0  dACCESS:          0  dHIT:          0  dMISS:          0  itACCESS:          0  itHIT:          0  itMISS:          0  dtACCESS:          0  dtHIT:          0  dtMISS:          0
cpu0_L1I PREFETCH  REQUESTED:   27439114  ISSUED:   27439114  CROSSED:          0  USEFUL:    1930078  USELESS:     626676
cpu0_L1I AVERAGE iMISS LATENCY: 12.6194 cycles
cpu0_L1I AVERAGE dMISS LATENCY: 0 cycles
cpu0_L1I AVERAGE itMISS LATENCY: 0 cycles
cpu0_L1I AVERAGE dtMISS LATENCY: 0 cycles
cpu0_L1I PAGE CROSSINGS (TLB HIT):         0 
cpu0_L1I PAGE CROSSINGS (TLB MISS):         0 
cpu0_L1I AVERAGE MISS LATENCY: 12.6194 cycles
cpu0_ITLB TOTAL       ACCESS:   29401081  HIT:   27469249  MISS:    1931832  iACCESS:   29401081  iHIT:   27469249  iMISS:    1931832  dACCESS:          0  dHIT:          0  dMISS:          0  itACCESS:          0  itHIT:          0  itMISS:          0  dtACCESS:          0  dtHIT:          0  dtMISS:          0
cpu0_ITLB LOAD         ACCESS:   29401081  HIT:   27469249  MISS:    1931832  iACCESS:   29401081  iHIT:   27469249  iMISS:    1931832  dACCESS:          0  dHIT:          0  dMISS:          0  itACCESS:          0  itHIT:          0  itMISS:          0  dtACCESS:          0  dtHIT:          0  dtMISS:          0
cpu0_ITLB RFO          ACCESS:          0  HIT:          0  MISS:          0  iACCESS:          0  iHIT:          0  iMISS:          0  dACCESS:          0  dHIT:          0  dMISS:          0  itACCESS:          0  itHIT:          0  itMISS:          0  dtACCESS:          0  dtHIT:          0  dtMISS:          0
cpu0_ITLB PREFETCH     ACCESS:          0  HIT:          0  MISS:          0  iACCESS:          0  iHIT:          0  iMISS:          0  dACCESS:          0  dHIT:          0  dMISS:          0  itACCESS:          0  itHIT:          0  itMISS:          0  dtACCESS:          0  dtHIT:          0  dtMISS:          0
cpu0_ITLB WRITE        ACCESS:          0  HIT:          0  MISS:          0  iACCESS:          0  iHIT:          0  iMISS:          0  dACCESS:          0  dHIT:          0  dMISS:          0  itACCESS:          0  itHIT:          0  itMISS:          0  dtACCESS:          0  dtHIT:          0  dtMISS:          0
cpu0_ITLB TRANSLATION  ACCESS:          0  HIT:          0  MISS:          0  iACCESS:          0  iHIT:          0  iMISS:          0  dACCESS:          0  dHIT:          0  dMISS:          0  itACCESS:          0  itHIT:          0  itMISS:          0  dtACCESS:          0  dtHIT:          0  dtMISS:          0
cpu0_ITLB PREFETCH  REQUESTED:          0  ISSUED:          0  CROSSED:          0  USEFUL:     316738  USELESS:      63481
cpu0_ITLB AVERAGE iMISS LATENCY: 2.26071 cycles
cpu0_ITLB AVERAGE dMISS LATENCY: 0 cycles
cpu0_ITLB AVERAGE itMISS LATENCY: 0 cycles
cpu0_ITLB AVERAGE dtMISS LATENCY: 0 cycles
cpu0_ITLB PAGE CROSSINGS (TLB HIT):         0 
cpu0_ITLB PAGE CROSSINGS (TLB MISS):         0 
cpu0_ITLB AVERAGE MISS LATENCY: 2.26071 cycles
cpu0_DTLB TOTAL       ACCESS:   27871753  HIT:   26030095  MISS:    1841658  iACCESS:          0  iHIT:          0  iMISS:          0  dACCESS:   27871753  dHIT:   26030095  dMISS:    1841658  itACCESS:          0  itHIT:          0  itMISS:          0  dtACCESS:          0  dtHIT:          0  dtMISS:          0
cpu0_DTLB LOAD         ACCESS:   27871753  HIT:   26030095  MISS:    1841658  iACCESS:          0  iHIT:          0  iMISS:          0  dACCESS:   27871753  dHIT:   26030095  dMISS:    1841658  itACCESS:          0  itHIT:          0  itMISS:          0  dtACCESS:          0  dtHIT:          0  dtMISS:          0
cpu0_DTLB RFO          ACCESS:          0  HIT:          0  MISS:          0  iACCESS:          0  iHIT:          0  iMISS:          0  dACCESS:          0  dHIT:          0  dMISS:          0  itACCESS:          0  itHIT:          0  itMISS:          0  dtACCESS:          0  dtHIT:          0  dtMISS:          0
cpu0_DTLB PREFETCH     ACCESS:          0  HIT:          0  MISS:          0  iACCESS:          0  iHIT:          0  iMISS:          0  dACCESS:          0  dHIT:          0  dMISS:          0  itACCESS:          0  itHIT:          0  itMISS:          0  dtACCESS:          0  dtHIT:          0  dtMISS:          0
cpu0_DTLB WRITE        ACCESS:          0  HIT:          0  MISS:          0  iACCESS:          0  iHIT:          0  iMISS:          0  dACCESS:          0  dHIT:          0  dMISS:          0  itACCESS:          0  itHIT:          0  itMISS:          0  dtACCESS:          0  dtHIT:          0  dtMISS:          0
cpu0_DTLB TRANSLATION  ACCESS:          0  HIT:          0  MISS:          0  iACCESS:          0  iHIT:          0  iMISS:          0  dACCESS:          0  dHIT:          0  dMISS:          0  itACCESS:          0  itHIT:          0  itMISS:          0  dtACCESS:          0  dtHIT:          0  dtMISS:          0
cpu0_DTLB PREFETCH  REQUESTED:          0  ISSUED:          0  CROSSED:          0  USEFUL:          0  USELESS:          0
cpu0_DTLB AVERAGE iMISS LATENCY: 0 cycles
cpu0_DTLB AVERAGE dMISS LATENCY: 17.7716 cycles
cpu0_DTLB AVERAGE itMISS LATENCY: 0 cycles
cpu0_DTLB AVERAGE dtMISS LATENCY: 0 cycles
cpu0_DTLB PAGE CROSSINGS (TLB HIT):         0 
cpu0_DTLB PAGE CROSSINGS (TLB MISS):         0 
cpu0_DTLB AVERAGE MISS LATENCY: 17.7716 cycles
cpu0_STLB TOTAL       ACCESS:    1506209  HIT:    1361558  MISS:     144651  iACCESS:     380220  iHIT:     370493  iMISS:       9727  dACCESS:    1125989  dHIT:     991065  dMISS:     134924  itACCESS:          0  itHIT:          0  itMISS:          0  dtACCESS:          0  dtHIT:          0  dtMISS:          0
cpu0_STLB LOAD         ACCESS:    1506209  HIT:    1361558  MISS:     144651  iACCESS:     380220  iHIT:     370493  iMISS:       9727  dACCESS:    1125989  dHIT:     991065  dMISS:     134924  itACCESS:          0  itHIT:          0  itMISS:          0  dtACCESS:          0  dtHIT:          0  dtMISS:          0
cpu0_STLB RFO          ACCESS:          0  HIT:          0  MISS:          0  iACCESS:          0  iHIT:          0  iMISS:          0  dACCESS:          0  dHIT:          0  dMISS:          0  itACCESS:          0  itHIT:          0  itMISS:          0  dtACCESS:          0  dtHIT:          0  dtMISS:          0
cpu0_STLB PREFETCH     ACCESS:          0  HIT:          0  MISS:          0  iACCESS:          0  iHIT:          0  iMISS:          0  dACCESS:          0  dHIT:          0  dMISS:          0  itACCESS:          0  itHIT:          0  itMISS:          0  dtACCESS:          0  dtHIT:          0  dtMISS:          0
cpu0_STLB WRITE        ACCESS:          0  HIT:          0  MISS:          0  iACCESS:          0  iHIT:          0  iMISS:          0  dACCESS:          0  dHIT:          0  dMISS:          0  itACCESS:          0  itHIT:          0  itMISS:          0  dtACCESS:          0  dtHIT:          0  dtMISS:          0
cpu0_STLB TRANSLATION  ACCESS:          0  HIT:          0  MISS:          0  iACCESS:          0  iHIT:          0  iMISS:          0  dACCESS:          0  dHIT:          0  dMISS:          0  itACCESS:          0  itHIT:          0  itMISS:          0  dtACCESS:          0  dtHIT:          0  dtMISS:          0
cpu0_STLB PREFETCH  REQUESTED:          0  ISSUED:          0  CROSSED:          0  USEFUL:          0  USELESS:          0
cpu0_STLB AVERAGE iMISS LATENCY: 9.79494 cycles
cpu0_STLB AVERAGE dMISS LATENCY: 163.883 cycles
cpu0_STLB AVERAGE itMISS LATENCY: 0 cycles
cpu0_STLB AVERAGE dtMISS LATENCY: 0 cycles
cpu0_STLB PAGE CROSSINGS (TLB HIT):         0 
cpu0_STLB PAGE CROSSINGS (TLB MISS):         0 
cpu0_STLB AVERAGE MISS LATENCY: 173.678 cycles
cpu0_L1D TOTAL       ACCESS:   41591954  HIT:   38145396  MISS:    3446558  iACCESS:          0  iHIT:          0  iMISS:          0  dACCESS:   41381290  dHIT:   38132144  dMISS:    3249146  itACCESS:      11303  itHIT:       1076  itMISS:      10227  dtACCESS:     199361  dtHIT:      12176  dtMISS:     187185
cpu0_L1D LOAD         ACCESS:   19082432  HIT:   17599076  MISS:    1483356  iACCESS:          0  iHIT:          0  iMISS:          0  dACCESS:   19082432  dHIT:   17599076  dMISS:    1483356  itACCESS:          0  itHIT:          0  itMISS:          0  dtACCESS:          0  dtHIT:          0  dtMISS:          0
cpu0_L1D RFO          ACCESS:          0  HIT:          0  MISS:          0  iACCESS:          0  iHIT:          0  iMISS:          0  dACCESS:          0  dHIT:          0  dMISS:          0  itACCESS:          0  itHIT:          0  itMISS:          0  dtACCESS:          0  dtHIT:          0  dtMISS:          0
cpu0_L1D PREFETCH     ACCESS:   12105888  HIT:   10774189  MISS:    1331699  iACCESS:          0  iHIT:          0  iMISS:          0  dACCESS:   12105888  dHIT:   10774189  dMISS:    1331699  itACCESS:          0  itHIT:          0  itMISS:          0  dtACCESS:          0  dtHIT:          0  dtMISS:          0
cpu0_L1D WRITE        ACCESS:   10192970  HIT:    9758879  MISS:     434091  iACCESS:          0  iHIT:          0  iMISS:          0  dACCESS:   10192970  dHIT:    9758879  dMISS:     434091  itACCESS:          0  itHIT:          0  itMISS:          0  dtACCESS:          0  dtHIT:          0  dtMISS:          0
cpu0_L1D TRANSLATION  ACCESS:     210664  HIT:      13252  MISS:     197412  iACCESS:          0  iHIT:          0  iMISS:          0  dACCESS:          0  dHIT:          0  dMISS:          0  itACCESS:      11303  itHIT:       1076  itMISS:      10227  dtACCESS:     199361  dtHIT:      12176  dtMISS:     187185
cpu0_L1D PREFETCH  REQUESTED:   19082432  ISSUED:   16882439  CROSSED:          0  USEFUL:     303998  USELESS:     702681
cpu0_L1D AVERAGE iMISS LATENCY: 0 cycles
cpu0_L1D AVERAGE dMISS LATENCY: 32.8077 cycles
cpu0_L1D AVERAGE itMISS LATENCY: 0.381989 cycles
cpu0_L1D AVERAGE dtMISS LATENCY: 6.13168 cycles
cpu0_L1D PAGE CROSSINGS (TLB HIT):         0 
cpu0_L1D PAGE CROSSINGS (TLB MISS):         0 
cpu0_L1D AVERAGE MISS LATENCY: 39.3214 cycles
cpu0_L2C TOTAL       ACCESS:    6991787  HIT:    4074827  MISS:    2916960  iACCESS:    3301610  iHIT:    2220616  iMISS:    1080994  dACCESS:    3500123  dHIT:    1822568  dMISS:    1677555  itACCESS:      10227  itHIT:       1730  itMISS:       8497  dtACCESS:     179827  dtHIT:      29913  dtMISS:     149914
cpu0_L2C LOAD         ACCESS:    1717082  HIT:    1044928  MISS:     672154  iACCESS:     784288  iHIT:     558489  iMISS:     225799  dACCESS:     932794  dHIT:     486439  dMISS:     446355  itACCESS:          0  itHIT:          0  itMISS:          0  dtACCESS:          0  dtHIT:          0  dtMISS:          0
cpu0_L2C RFO          ACCESS:     158019  HIT:      73673  MISS:      84346  iACCESS:          0  iHIT:          0  iMISS:          0  dACCESS:     158019  dHIT:      73673  dMISS:      84346  itACCESS:          0  itHIT:          0  itMISS:          0  dtACCESS:          0  dtHIT:          0  dtMISS:          0
cpu0_L2C PREFETCH     ACCESS:    4644714  HIT:    2643752  MISS:    2000962  iACCESS:    2517322  iHIT:    1662127  iMISS:     855195  dACCESS:    2127392  dHIT:     981625  dMISS:    1145767  itACCESS:          0  itHIT:          0  itMISS:          0  dtACCESS:          0  dtHIT:          0  dtMISS:          0
cpu0_L2C WRITE        ACCESS:     281918  HIT:     280831  MISS:       1087  iACCESS:          0  iHIT:          0  iMISS:          0  dACCESS:     281918  dHIT:     280831  dMISS:       1087  itACCESS:          0  itHIT:          0  itMISS:          0  dtACCESS:          0  dtHIT:          0  dtMISS:          0
cpu0_L2C TRANSLATION  ACCESS:     190054  HIT:      31643  MISS:     158411  iACCESS:          0  iHIT:          0  iMISS:          0  dACCESS:          0  dHIT:          0  dMISS:          0  itACCESS:      10227  itHIT:       1730  itMISS:       8497  dtACCESS:     179827  dtHIT:      29913  dtMISS:     149914
cpu0_L2C PREFETCH  REQUESTED:    1385628  ISSUED:    1385628  CROSSED:          0  USEFUL:     333152  USELESS:     235160
cpu0_L2C AVERAGE iMISS LATENCY: 23.371 cycles
cpu0_L2C AVERAGE dMISS LATENCY: 45.9275 cycles
cpu0_L2C AVERAGE itMISS LATENCY: 0.416779 cycles
cpu0_L2C AVERAGE dtMISS LATENCY: 6.63434 cycles
cpu0_L2C PAGE CROSSINGS (TLB HIT):         0 
cpu0_L2C PAGE CROSSINGS (TLB MISS):         0 
cpu0_L2C AVERAGE MISS LATENCY: 76.3495 cycles
LLC TOTAL       ACCESS:    2939483  HIT:    1872554  MISS:    1066929  iACCESS:    1024499  iHIT:     691419  iMISS:     333080  dACCESS:    1756573  dHIT:    1121088  dMISS:     635485  itACCESS:       8497  itHIT:       2458  itMISS:       6039  dtACCESS:     149914  dtHIT:      57589  dtMISS:      92325
LLC LOAD         ACCESS:     670536  HIT:     442624  MISS:     227912  iACCESS:     224389  iHIT:     154265  iMISS:      70124  dACCESS:     446147  dHIT:     288359  dMISS:     157788  itACCESS:          0  itHIT:          0  itMISS:          0  dtACCESS:          0  dtHIT:          0  dtMISS:          0
LLC RFO          ACCESS:      84328  HIT:      45688  MISS:      38640  iACCESS:          0  iHIT:          0  iMISS:          0  dACCESS:      84328  dHIT:      45688  dMISS:      38640  itACCESS:          0  itHIT:          0  itMISS:          0  dtACCESS:          0  dtHIT:          0  dtMISS:          0
LLC PREFETCH     ACCESS:    1892305  HIT:    1196208  MISS:     696097  iACCESS:     800110  iHIT:     537154  iMISS:     262956  dACCESS:    1092195  dHIT:     659054  dMISS:     433141  itACCESS:          0  itHIT:          0  itMISS:          0  dtACCESS:          0  dtHIT:          0  dtMISS:          0
LLC WRITE        ACCESS:     133903  HIT:     127987  MISS:       5916  iACCESS:          0  iHIT:          0  iMISS:          0  dACCESS:     133903  dHIT:     127987  dMISS:       5916  itACCESS:          0  itHIT:          0  itMISS:          0  dtACCESS:          0  dtHIT:          0  dtMISS:          0
LLC TRANSLATION  ACCESS:     158411  HIT:      60047  MISS:      98364  iACCESS:          0  iHIT:          0  iMISS:          0  dACCESS:          0  dHIT:          0  dMISS:          0  itACCESS:       8497  itHIT:       2458  itMISS:       6039  dtACCESS:     149914  dtHIT:      57589  dtMISS:      92325
LLC PREFETCH  REQUESTED:          0  ISSUED:          0  CROSSED:          0  USEFUL:          0  USELESS:          0
LLC AVERAGE iMISS LATENCY: 45.2297 cycles
LLC AVERAGE dMISS LATENCY: 96.201 cycles
LLC AVERAGE itMISS LATENCY: 0.983028 cycles
LLC AVERAGE dtMISS LATENCY: 15.3894 cycles
LLC PAGE CROSSINGS (TLB HIT):         0 
LLC PAGE CROSSINGS (TLB MISS):         0 
LLC AVERAGE MISS LATENCY: 157.803 cycles

PageTableWalker TOTAL       ACCESS:      70333  
PageTableWalker AVERAGE LATENCY: 5.65843 cycles
PageTableWalker TOTAL LATENCY: 397974 cycles

DRAM Statistics
Channel 0
 RQ ROW_BUFFER_HIT:     290439
  ROW_BUFFER_MISS:     770523
 AVG DBUS CONGESTED CYCLE:     3.6198
 WQ ROW_BUFFER_HIT:      20099
  ROW_BUFFER_MISS:      21308  FULL:          0

