last_page:0x200000000000000
VMEM_RES_CAP:0x100000
PAGE_SIZE:4096
LOG2_PAGE_SIZE:12
LOG2_PAGE_TABLE_SIZE:9
page_table_levels:5
WARNING: physical memory size is smaller than virtual memory size
FDiP enabled with aggresivity 16

*** ChampSim Multicore Out-of-Order Simulator ***

Warmup Instructions: 50000000
Simulation Instructions: 100000000
Number of CPUs: 1
Small page size: 4096
Large page size: 2097152

CPU 0 Bimodal branch predictor
Basic BTB sets: 1024 ways: 8 indirect buffer size: 4096 RAS size: 64
Instruction page size distrubution: 0
Loading instruction page size distribution from /home/bsc/bsc018186/scratch/itp_asplos25_AE/dump/srv16_ap.pdst
Data page size distrubution: 0
Loading data page size distribution from /home/bsc/bsc018186/scratch/itp_asplos25_AE/dump/srv16_ap.pdst
cpu0_L2C IP-based stride prefetcher
cpu0_L1D next line prefetcher
CHiRPing...
cpu0_L1I next line prefetcher
Off-chip DRAM Size: 4 GiB Channels: 1 Width: 64-bit Data Rate: 3200 MT/s
Heartbeat CPU 0 instructions: 10000003 cycles: 2500199 heartbeat IPC: 3.99969 cumulative IPC: 3.99969 (Simulation time: 0 hr 0 min 39 sec) 
Heartbeat CPU 0 instructions: 20000000 cycles: 5000226 heartbeat IPC: 3.99996 cumulative IPC: 3.99982 (Simulation time: 0 hr 1 min 19 sec) 
Heartbeat CPU 0 instructions: 30000002 cycles: 7500297 heartbeat IPC: 3.99989 cumulative IPC: 3.99985 (Simulation time: 0 hr 1 min 59 sec) 
Heartbeat CPU 0 instructions: 40000000 cycles: 10000299 heartbeat IPC: 4 cumulative IPC: 3.99989 (Simulation time: 0 hr 2 min 40 sec) 
Heartbeat CPU 0 instructions: 50000003 cycles: 12500329 heartbeat IPC: 3.99996 cumulative IPC: 3.9999 (Simulation time: 0 hr 3 min 21 sec) 
Warmup finished CPU 0 instructions: 50000003 cycles: 12500330 cumulative IPC: 3.9999 (Simulation time: 0 hr 3 min 21 sec) 

Warmup complete CPU 0 instructions: 50000003 cycles: 12500330 (Simulation time: 0 hr 3 min 21 sec) 

Heartbeat CPU 0 instructions: 60000001 cycles: 27369365 heartbeat IPC: 0.672539 cumulative IPC: 0.672539 (Simulation time: 0 hr 4 min 26 sec) 
Heartbeat CPU 0 instructions: 70000004 cycles: 42482360 heartbeat IPC: 0.661683 cumulative IPC: 0.667067 (Simulation time: 0 hr 5 min 32 sec) 
Heartbeat CPU 0 instructions: 80000003 cycles: 57646670 heartbeat IPC: 0.659444 cumulative IPC: 0.664506 (Simulation time: 0 hr 6 min 38 sec) 
Heartbeat CPU 0 instructions: 90000000 cycles: 72766530 heartbeat IPC: 0.661382 cumulative IPC: 0.663722 (Simulation time: 0 hr 7 min 43 sec) 
Heartbeat CPU 0 instructions: 100000001 cycles: 87950631 heartbeat IPC: 0.658584 cumulative IPC: 0.662688 (Simulation time: 0 hr 8 min 49 sec) 
*** Reached end of trace: /gpfs/projects/bsc18/MN4/bsc18/romol/ChampSim/traces/qualcomm_srv/srv16_ap.champsimtrace.xz
Heartbeat CPU 0 instructions: 110000002 cycles: 103629820 heartbeat IPC: 0.637789 cumulative IPC: 0.658404 (Simulation time: 0 hr 9 min 54 sec) 
Heartbeat CPU 0 instructions: 120000002 cycles: 118402155 heartbeat IPC: 0.676942 cumulative IPC: 0.66099 (Simulation time: 0 hr 10 min 58 sec) 
Heartbeat CPU 0 instructions: 130000002 cycles: 133663678 heartbeat IPC: 0.655243 cumulative IPC: 0.660266 (Simulation time: 0 hr 12 min 0 sec) 
Heartbeat CPU 0 instructions: 140000000 cycles: 148202097 heartbeat IPC: 0.687833 cumulative IPC: 0.66322 (Simulation time: 0 hr 13 min 0 sec) 
Heartbeat CPU 0 instructions: 150000001 cycles: 163593456 heartbeat IPC: 0.649716 cumulative IPC: 0.661844 (Simulation time: 0 hr 14 min 2 sec) 
Simulation finished CPU 0 instructions: 100000003 cycles: 151093128 cumulative IPC: 0.661844 (Simulation time: 0 hr 14 min 2 sec) 

Simulation complete CPU 0 instructions: 100000003 cycles: 151093128 (Simulation time: 0 hr 14 min 2 sec) 


ChampSim completed all CPUs

Saving instructions large page distribution to /home/bsc/bsc018186/scratch/itp_asplos25_AE/dump/srv16_ap.pdst...
Saving data large page distribution to /home/bsc/bsc018186/scratch/itp_asplos25_AE/dump/srv16_ap.pdst...
=== Simulation ===
CPU 0 runs /gpfs/projects/bsc18/MN4/bsc18/romol/ChampSim/traces/qualcomm_srv/srv16_ap.champsimtrace.xz

Region of Interest Statistics

CPU 0 cumulative IPC: 0.661844 instructions: 100000003 cycles: 151093128
CPU 0 Branch Prediction Accuracy: 83.3333% MPKI: 29.9146 Average ROB Occupancy at Mispredict: 12.737
Branch type MPKI
BRANCH_DIRECT_JUMP: 0.96503
BRANCH_INDIRECT: 15.5278
BRANCH_CONDITIONAL: 9.75804
BRANCH_DIRECT_CALL: 1.83742
BRANCH_INDIRECT_CALL: 0.49222
BRANCH_RETURN: 1.33411

Instructions large pages: 0
Instructions small pages: 9894
Large page distribution for instructions: 0%

Data large pages: 0
Data small pages: 9057
Large page distribution for data: 0%

cpu0_L1I TOTAL       ACCESS:   34602516  HIT:   26661452  MISS:    7941064  iACCESS:   34602516  iHIT:   26661452  iMISS:    7941064  dACCESS:          0  dHIT:          0  dMISS:          0  itACCESS:          0  itHIT:          0  itMISS:          0  dtACCESS:          0  dtHIT:          0  dtMISS:          0
cpu0_L1I LOAD         ACCESS:   10102464  HIT:    7866698  MISS:    2235766  iACCESS:   10102464  iHIT:    7866698  iMISS:    2235766  dACCESS:          0  dHIT:          0  dMISS:          0  itACCESS:          0  itHIT:          0  itMISS:          0  dtACCESS:          0  dtHIT:          0  dtMISS:          0
cpu0_L1I RFO          ACCESS:          0  HIT:          0  MISS:          0  iACCESS:          0  iHIT:          0  iMISS:          0  dACCESS:          0  dHIT:          0  dMISS:          0  itACCESS:          0  itHIT:          0  itMISS:          0  dtACCESS:          0  dtHIT:          0  dtMISS:          0
cpu0_L1I PREFETCH     ACCESS:   24500052  HIT:   18794754  MISS:    5705298  iACCESS:   24500052  iHIT:   18794754  iMISS:    5705298  dACCESS:          0  dHIT:          0  dMISS:          0  itACCESS:          0  itHIT:          0  itMISS:          0  dtACCESS:          0  dtHIT:          0  dtMISS:          0
cpu0_L1I WRITE        ACCESS:          0  HIT:          0  MISS:          0  iACCESS:          0  iHIT:          0  iMISS:          0  dACCESS:          0  dHIT:          0  dMISS:          0  itACCESS:          0  itHIT:          0  itMISS:          0  dtACCESS:          0  dtHIT:          0  dtMISS:          0
cpu0_L1I TRANSLATION  ACCESS:          0  HIT:          0  MISS:          0  iACCESS:          0  iHIT:          0  iMISS:          0  dACCESS:          0  dHIT:          0  dMISS:          0  itACCESS:          0  itHIT:          0  itMISS:          0  dtACCESS:          0  dtHIT:          0  dtMISS:          0
cpu0_L1I PREFETCH  REQUESTED:   27004411  ISSUED:   27004411  CROSSED:          0  USEFUL:    1931563  USELESS:     637519
cpu0_L1I AVERAGE iMISS LATENCY: 12.5816 cycles
cpu0_L1I AVERAGE dMISS LATENCY: 0 cycles
cpu0_L1I AVERAGE itMISS LATENCY: 0 cycles
cpu0_L1I AVERAGE dtMISS LATENCY: 0 cycles
cpu0_L1I PAGE CROSSINGS (TLB HIT):         0 
cpu0_L1I PAGE CROSSINGS (TLB MISS):         0 
cpu0_L1I AVERAGE MISS LATENCY: 12.5816 cycles
cpu0_ITLB TOTAL       ACCESS:   28931360  HIT:   26917844  MISS:    2013516  iACCESS:   28931360  iHIT:   26917844  iMISS:    2013516  dACCESS:          0  dHIT:          0  dMISS:          0  itACCESS:          0  itHIT:          0  itMISS:          0  dtACCESS:          0  dtHIT:          0  dtMISS:          0
cpu0_ITLB LOAD         ACCESS:   28931360  HIT:   26917844  MISS:    2013516  iACCESS:   28931360  iHIT:   26917844  iMISS:    2013516  dACCESS:          0  dHIT:          0  dMISS:          0  itACCESS:          0  itHIT:          0  itMISS:          0  dtACCESS:          0  dtHIT:          0  dtMISS:          0
cpu0_ITLB RFO          ACCESS:          0  HIT:          0  MISS:          0  iACCESS:          0  iHIT:          0  iMISS:          0  dACCESS:          0  dHIT:          0  dMISS:          0  itACCESS:          0  itHIT:          0  itMISS:          0  dtACCESS:          0  dtHIT:          0  dtMISS:          0
cpu0_ITLB PREFETCH     ACCESS:          0  HIT:          0  MISS:          0  iACCESS:          0  iHIT:          0  iMISS:          0  dACCESS:          0  dHIT:          0  dMISS:          0  itACCESS:          0  itHIT:          0  itMISS:          0  dtACCESS:          0  dtHIT:          0  dtMISS:          0
cpu0_ITLB WRITE        ACCESS:          0  HIT:          0  MISS:          0  iACCESS:          0  iHIT:          0  iMISS:          0  dACCESS:          0  dHIT:          0  dMISS:          0  itACCESS:          0  itHIT:          0  itMISS:          0  dtACCESS:          0  dtHIT:          0  dtMISS:          0
cpu0_ITLB TRANSLATION  ACCESS:          0  HIT:          0  MISS:          0  iACCESS:          0  iHIT:          0  iMISS:          0  dACCESS:          0  dHIT:          0  dMISS:          0  itACCESS:          0  itHIT:          0  itMISS:          0  dtACCESS:          0  dtHIT:          0  dtMISS:          0
cpu0_ITLB PREFETCH  REQUESTED:          0  ISSUED:          0  CROSSED:          0  USEFUL:     326366  USELESS:      62569
cpu0_ITLB AVERAGE iMISS LATENCY: 4.81775 cycles
cpu0_ITLB AVERAGE dMISS LATENCY: 0 cycles
cpu0_ITLB AVERAGE itMISS LATENCY: 0 cycles
cpu0_ITLB AVERAGE dtMISS LATENCY: 0 cycles
cpu0_ITLB PAGE CROSSINGS (TLB HIT):         0 
cpu0_ITLB PAGE CROSSINGS (TLB MISS):         0 
cpu0_ITLB AVERAGE MISS LATENCY: 4.81775 cycles
cpu0_DTLB TOTAL       ACCESS:   27717853  HIT:   25588765  MISS:    2129088  iACCESS:          0  iHIT:          0  iMISS:          0  dACCESS:   27717853  dHIT:   25588765  dMISS:    2129088  itACCESS:          0  itHIT:          0  itMISS:          0  dtACCESS:          0  dtHIT:          0  dtMISS:          0
cpu0_DTLB LOAD         ACCESS:   27717853  HIT:   25588765  MISS:    2129088  iACCESS:          0  iHIT:          0  iMISS:          0  dACCESS:   27717853  dHIT:   25588765  dMISS:    2129088  itACCESS:          0  itHIT:          0  itMISS:          0  dtACCESS:          0  dtHIT:          0  dtMISS:          0
cpu0_DTLB RFO          ACCESS:          0  HIT:          0  MISS:          0  iACCESS:          0  iHIT:          0  iMISS:          0  dACCESS:          0  dHIT:          0  dMISS:          0  itACCESS:          0  itHIT:          0  itMISS:          0  dtACCESS:          0  dtHIT:          0  dtMISS:          0
cpu0_DTLB PREFETCH     ACCESS:          0  HIT:          0  MISS:          0  iACCESS:          0  iHIT:          0  iMISS:          0  dACCESS:          0  dHIT:          0  dMISS:          0  itACCESS:          0  itHIT:          0  itMISS:          0  dtACCESS:          0  dtHIT:          0  dtMISS:          0
cpu0_DTLB WRITE        ACCESS:          0  HIT:          0  MISS:          0  iACCESS:          0  iHIT:          0  iMISS:          0  dACCESS:          0  dHIT:          0  dMISS:          0  itACCESS:          0  itHIT:          0  itMISS:          0  dtACCESS:          0  dtHIT:          0  dtMISS:          0
cpu0_DTLB TRANSLATION  ACCESS:          0  HIT:          0  MISS:          0  iACCESS:          0  iHIT:          0  iMISS:          0  dACCESS:          0  dHIT:          0  dMISS:          0  itACCESS:          0  itHIT:          0  itMISS:          0  dtACCESS:          0  dtHIT:          0  dtMISS:          0
cpu0_DTLB PREFETCH  REQUESTED:          0  ISSUED:          0  CROSSED:          0  USEFUL:          0  USELESS:          0
cpu0_DTLB AVERAGE iMISS LATENCY: 0 cycles
cpu0_DTLB AVERAGE dMISS LATENCY: 13.8064 cycles
cpu0_DTLB AVERAGE itMISS LATENCY: 0 cycles
cpu0_DTLB AVERAGE dtMISS LATENCY: 0 cycles
cpu0_DTLB PAGE CROSSINGS (TLB HIT):         0 
cpu0_DTLB PAGE CROSSINGS (TLB MISS):         0 
cpu0_DTLB AVERAGE MISS LATENCY: 13.8064 cycles
cpu0_STLB TOTAL       ACCESS:    1645541  HIT:    1483093  MISS:     162448  iACCESS:     388947  iHIT:     332274  iMISS:      56673  dACCESS:    1256594  dHIT:    1150819  dMISS:     105775  itACCESS:          0  itHIT:          0  itMISS:          0  dtACCESS:          0  dtHIT:          0  dtMISS:          0
cpu0_STLB LOAD         ACCESS:    1645541  HIT:    1483093  MISS:     162448  iACCESS:     388947  iHIT:     332274  iMISS:      56673  dACCESS:    1256594  dHIT:    1150819  dMISS:     105775  itACCESS:          0  itHIT:          0  itMISS:          0  dtACCESS:          0  dtHIT:          0  dtMISS:          0
cpu0_STLB RFO          ACCESS:          0  HIT:          0  MISS:          0  iACCESS:          0  iHIT:          0  iMISS:          0  dACCESS:          0  dHIT:          0  dMISS:          0  itACCESS:          0  itHIT:          0  itMISS:          0  dtACCESS:          0  dtHIT:          0  dtMISS:          0
cpu0_STLB PREFETCH     ACCESS:          0  HIT:          0  MISS:          0  iACCESS:          0  iHIT:          0  iMISS:          0  dACCESS:          0  dHIT:          0  dMISS:          0  itACCESS:          0  itHIT:          0  itMISS:          0  dtACCESS:          0  dtHIT:          0  dtMISS:          0
cpu0_STLB WRITE        ACCESS:          0  HIT:          0  MISS:          0  iACCESS:          0  iHIT:          0  iMISS:          0  dACCESS:          0  dHIT:          0  dMISS:          0  itACCESS:          0  itHIT:          0  itMISS:          0  dtACCESS:          0  dtHIT:          0  dtMISS:          0
cpu0_STLB TRANSLATION  ACCESS:          0  HIT:          0  MISS:          0  iACCESS:          0  iHIT:          0  iMISS:          0  dACCESS:          0  dHIT:          0  dMISS:          0  itACCESS:          0  itHIT:          0  itMISS:          0  dtACCESS:          0  dtHIT:          0  dtMISS:          0
cpu0_STLB PREFETCH  REQUESTED:          0  ISSUED:          0  CROSSED:          0  USEFUL:          0  USELESS:          0
cpu0_STLB AVERAGE iMISS LATENCY: 40.7998 cycles
cpu0_STLB AVERAGE dMISS LATENCY: 119.293 cycles
cpu0_STLB AVERAGE itMISS LATENCY: 0 cycles
cpu0_STLB AVERAGE dtMISS LATENCY: 0 cycles
cpu0_STLB PAGE CROSSINGS (TLB HIT):         0 
cpu0_STLB PAGE CROSSINGS (TLB MISS):         0 
cpu0_STLB AVERAGE MISS LATENCY: 160.093 cycles
cpu0_L1D TOTAL       ACCESS:   41467517  HIT:   37982160  MISS:    3485357  iACCESS:          0  iHIT:          0  iMISS:          0  dACCESS:   41243821  dHIT:   37962743  dMISS:    3281078  itACCESS:      61366  itHIT:       8983  itMISS:      52383  dtACCESS:     162330  dtHIT:      10434  dtMISS:     151896
cpu0_L1D LOAD         ACCESS:   18924255  HIT:   17415326  MISS:    1508929  iACCESS:          0  iHIT:          0  iMISS:          0  dACCESS:   18924255  dHIT:   17415326  dMISS:    1508929  itACCESS:          0  itHIT:          0  itMISS:          0  dtACCESS:          0  dtHIT:          0  dtMISS:          0
cpu0_L1D RFO          ACCESS:          0  HIT:          0  MISS:          0  iACCESS:          0  iHIT:          0  iMISS:          0  dACCESS:          0  dHIT:          0  dMISS:          0  itACCESS:          0  itHIT:          0  itMISS:          0  dtACCESS:          0  dtHIT:          0  dtMISS:          0
cpu0_L1D PREFETCH     ACCESS:   12176174  HIT:   10836828  MISS:    1339346  iACCESS:          0  iHIT:          0  iMISS:          0  dACCESS:   12176174  dHIT:   10836828  dMISS:    1339346  itACCESS:          0  itHIT:          0  itMISS:          0  dtACCESS:          0  dtHIT:          0  dtMISS:          0
cpu0_L1D WRITE        ACCESS:   10143392  HIT:    9710589  MISS:     432803  iACCESS:          0  iHIT:          0  iMISS:          0  dACCESS:   10143392  dHIT:    9710589  dMISS:     432803  itACCESS:          0  itHIT:          0  itMISS:          0  dtACCESS:          0  dtHIT:          0  dtMISS:          0
cpu0_L1D TRANSLATION  ACCESS:     223696  HIT:      19417  MISS:     204279  iACCESS:          0  iHIT:          0  iMISS:          0  dACCESS:          0  dHIT:          0  dMISS:          0  itACCESS:      61366  itHIT:       8983  itMISS:      52383  dtACCESS:     162330  dtHIT:      10434  dtMISS:     151896
cpu0_L1D PREFETCH  REQUESTED:   18924255  ISSUED:   17034662  CROSSED:          0  USEFUL:     308567  USELESS:     707996
cpu0_L1D AVERAGE iMISS LATENCY: 0 cycles
cpu0_L1D AVERAGE dMISS LATENCY: 31.9588 cycles
cpu0_L1D AVERAGE itMISS LATENCY: 1.76122 cycles
cpu0_L1D AVERAGE dtMISS LATENCY: 4.89507 cycles
cpu0_L1D PAGE CROSSINGS (TLB HIT):         0 
cpu0_L1D PAGE CROSSINGS (TLB MISS):         0 
cpu0_L1D AVERAGE MISS LATENCY: 38.6151 cycles
cpu0_L2C TOTAL       ACCESS:    7029654  HIT:    4122869  MISS:    2906785  iACCESS:    3331533  iHIT:    2243106  iMISS:    1088427  dACCESS:    3506025  dHIT:    1852680  dMISS:    1653345  itACCESS:      52383  itHIT:       9807  itMISS:      42576  dtACCESS:     139713  dtHIT:      17276  dtMISS:     122437
cpu0_L2C LOAD         ACCESS:    1745587  HIT:    1063082  MISS:     682505  iACCESS:     803528  iHIT:     568754  iMISS:     234774  dACCESS:     942059  dHIT:     494328  dMISS:     447731  itACCESS:          0  itHIT:          0  itMISS:          0  dtACCESS:          0  dtHIT:          0  dtMISS:          0
cpu0_L2C RFO          ACCESS:     155862  HIT:      70654  MISS:      85208  iACCESS:          0  iHIT:          0  iMISS:          0  dACCESS:     155862  dHIT:      70654  dMISS:      85208  itACCESS:          0  itHIT:          0  itMISS:          0  dtACCESS:          0  dtHIT:          0  dtMISS:          0
cpu0_L2C PREFETCH     ACCESS:    4648716  HIT:    2676295  MISS:    1972421  iACCESS:    2528005  iHIT:    1674352  iMISS:     853653  dACCESS:    2120711  dHIT:    1001943  dMISS:    1118768  itACCESS:          0  itHIT:          0  itMISS:          0  dtACCESS:          0  dtHIT:          0  dtMISS:          0
cpu0_L2C WRITE        ACCESS:     287393  HIT:     285755  MISS:       1638  iACCESS:          0  iHIT:          0  iMISS:          0  dACCESS:     287393  dHIT:     285755  dMISS:       1638  itACCESS:          0  itHIT:          0  itMISS:          0  dtACCESS:          0  dtHIT:          0  dtMISS:          0
cpu0_L2C TRANSLATION  ACCESS:     192096  HIT:      27083  MISS:     165013  iACCESS:          0  iHIT:          0  iMISS:          0  dACCESS:          0  dHIT:          0  dMISS:          0  itACCESS:      52383  itHIT:       9807  itMISS:      42576  dtACCESS:     139713  dtHIT:      17276  dtMISS:     122437
cpu0_L2C PREFETCH  REQUESTED:    1388690  ISSUED:    1388690  CROSSED:          0  USEFUL:     312292  USELESS:     232851
cpu0_L2C AVERAGE iMISS LATENCY: 23.9349 cycles
cpu0_L2C AVERAGE dMISS LATENCY: 45.1694 cycles
cpu0_L2C AVERAGE itMISS LATENCY: 1.93453 cycles
cpu0_L2C AVERAGE dtMISS LATENCY: 5.39073 cycles
cpu0_L2C PAGE CROSSINGS (TLB HIT):         0 
cpu0_L2C PAGE CROSSINGS (TLB MISS):         0 
cpu0_L2C AVERAGE MISS LATENCY: 76.4295 cycles
LLC TOTAL       ACCESS:    2933608  HIT:    1871581  MISS:    1062027  iACCESS:    1033964  iHIT:     699239  iMISS:     334725  dACCESS:    1734631  dHIT:    1109669  dMISS:     624962  itACCESS:      42576  itHIT:      14555  itMISS:      28021  dtACCESS:     122437  dtHIT:      48118  dtMISS:      74319
LLC LOAD         ACCESS:     681082  HIT:     450262  MISS:     230820  iACCESS:     233482  iHIT:     159712  iMISS:      73770  dACCESS:     447600  dHIT:     290550  dMISS:     157050  itACCESS:          0  itHIT:          0  itMISS:          0  dtACCESS:          0  dtHIT:          0  dtMISS:          0
LLC RFO          ACCESS:      85205  HIT:      46482  MISS:      38723  iACCESS:          0  iHIT:          0  iMISS:          0  dACCESS:      85205  dHIT:      46482  dMISS:      38723  itACCESS:          0  itHIT:          0  itMISS:          0  dtACCESS:          0  dtHIT:          0  dtMISS:          0
LLC PREFETCH     ACCESS:    1867495  HIT:    1183435  MISS:     684060  iACCESS:     800482  iHIT:     539527  iMISS:     260955  dACCESS:    1067013  dHIT:     643908  dMISS:     423105  itACCESS:          0  itHIT:          0  itMISS:          0  dtACCESS:          0  dtHIT:          0  dtMISS:          0
LLC WRITE        ACCESS:     134813  HIT:     128729  MISS:       6084  iACCESS:          0  iHIT:          0  iMISS:          0  dACCESS:     134813  dHIT:     128729  dMISS:       6084  itACCESS:          0  itHIT:          0  itMISS:          0  dtACCESS:          0  dtHIT:          0  dtMISS:          0
LLC TRANSLATION  ACCESS:     165013  HIT:      62673  MISS:     102340  iACCESS:          0  iHIT:          0  iMISS:          0  dACCESS:          0  dHIT:          0  dMISS:          0  itACCESS:      42576  itHIT:      14555  itMISS:      28021  dtACCESS:     122437  dtHIT:      48118  dtMISS:      74319
LLC PREFETCH  REQUESTED:          0  ISSUED:          0  CROSSED:          0  USEFUL:          0  USELESS:          0
LLC AVERAGE iMISS LATENCY: 46.5893 cycles
LLC AVERAGE dMISS LATENCY: 94.3848 cycles
LLC AVERAGE itMISS LATENCY: 4.50879 cycles
LLC AVERAGE dtMISS LATENCY: 12.5003 cycles
LLC PAGE CROSSINGS (TLB HIT):         0 
LLC PAGE CROSSINGS (TLB MISS):         0 
LLC AVERAGE MISS LATENCY: 157.984 cycles

PageTableWalker TOTAL       ACCESS:      81470  
PageTableWalker AVERAGE LATENCY: 5.16872 cycles
PageTableWalker TOTAL LATENCY: 421095 cycles

DRAM Statistics
Channel 0
 RQ ROW_BUFFER_HIT:     268453
  ROW_BUFFER_MISS:     787436
 AVG DBUS CONGESTED CYCLE:    3.60702
 WQ ROW_BUFFER_HIT:      21163
  ROW_BUFFER_MISS:      21532  FULL:          0

