last_page:0x200000000000000
VMEM_RES_CAP:0x100000
PAGE_SIZE:4096
LOG2_PAGE_SIZE:12
LOG2_PAGE_TABLE_SIZE:9
page_table_levels:5
WARNING: physical memory size is smaller than virtual memory size
FDiP enabled with aggresivity 16

*** ChampSim Multicore Out-of-Order Simulator ***

Warmup Instructions: 50000000
Simulation Instructions: 100000000
Number of CPUs: 1
Small page size: 4096
Large page size: 2097152

CPU 0 Bimodal branch predictor
Basic BTB sets: 1024 ways: 8 indirect buffer size: 4096 RAS size: 64
Instruction page size distrubution: 0
Loading instruction page size distribution from /home/bsc/bsc018186/scratch/itp_asplos25_AE/dump/srv194_ap.pdst
Data page size distrubution: 0
Loading data page size distribution from /home/bsc/bsc018186/scratch/itp_asplos25_AE/dump/srv194_ap.pdst
cpu0_L2C IP-based stride prefetcher
cpu0_L2C is using PTP replacement policy:
	TLB_STRESS_THRESHOLD:0
	PTE_EVICTION_RATIO:0
cpu0_L1D next line prefetcher
CHiRPing...
cpu0_L1I next line prefetcher
Off-chip DRAM Size: 4 GiB Channels: 1 Width: 64-bit Data Rate: 3200 MT/s
Heartbeat CPU 0 instructions: 10000003 cycles: 2500261 heartbeat IPC: 3.99959 cumulative IPC: 3.99959 (Simulation time: 0 hr 0 min 39 sec) 
Heartbeat CPU 0 instructions: 20000001 cycles: 5001704 heartbeat IPC: 3.9977 cumulative IPC: 3.99864 (Simulation time: 0 hr 1 min 19 sec) 
Heartbeat CPU 0 instructions: 30000003 cycles: 7884007 heartbeat IPC: 3.46945 cumulative IPC: 3.80518 (Simulation time: 0 hr 2 min 0 sec) 
Heartbeat CPU 0 instructions: 40000001 cycles: 10540068 heartbeat IPC: 3.76498 cumulative IPC: 3.79505 (Simulation time: 0 hr 2 min 42 sec) 
Heartbeat CPU 0 instructions: 50000001 cycles: 13040321 heartbeat IPC: 3.9996 cumulative IPC: 3.83427 (Simulation time: 0 hr 3 min 24 sec) 
Warmup finished CPU 0 instructions: 50000001 cycles: 13040322 cumulative IPC: 3.83427 (Simulation time: 0 hr 3 min 24 sec) 

Warmup complete CPU 0 instructions: 50000001 cycles: 13040322 (Simulation time: 0 hr 3 min 24 sec) 

Heartbeat CPU 0 instructions: 60000002 cycles: 33412884 heartbeat IPC: 0.490857 cumulative IPC: 0.490857 (Simulation time: 0 hr 4 min 38 sec) 
Heartbeat CPU 0 instructions: 70000001 cycles: 54999461 heartbeat IPC: 0.463251 cumulative IPC: 0.476655 (Simulation time: 0 hr 5 min 51 sec) 
Heartbeat CPU 0 instructions: 80000003 cycles: 71080078 heartbeat IPC: 0.621867 cumulative IPC: 0.516888 (Simulation time: 0 hr 7 min 1 sec) 
Heartbeat CPU 0 instructions: 90000001 cycles: 81489944 heartbeat IPC: 0.960627 cumulative IPC: 0.584372 (Simulation time: 0 hr 8 min 0 sec) 
Heartbeat CPU 0 instructions: 100000002 cycles: 102344094 heartbeat IPC: 0.479521 cumulative IPC: 0.559887 (Simulation time: 0 hr 9 min 12 sec) 
*** Reached end of trace: /gpfs/projects/bsc18/MN4/bsc18/romol/ChampSim/traces/qualcomm_srv/srv194_ap.champsimtrace.xz
Heartbeat CPU 0 instructions: 110000004 cycles: 124731455 heartbeat IPC: 0.446681 cumulative IPC: 0.537196 (Simulation time: 0 hr 10 min 27 sec) 
Heartbeat CPU 0 instructions: 120000000 cycles: 147355370 heartbeat IPC: 0.44201 cumulative IPC: 0.521163 (Simulation time: 0 hr 11 min 42 sec) 
Heartbeat CPU 0 instructions: 130000000 cycles: 158629082 heartbeat IPC: 0.88702 cumulative IPC: 0.549493 (Simulation time: 0 hr 12 min 40 sec) 
Heartbeat CPU 0 instructions: 140000001 cycles: 170992742 heartbeat IPC: 0.808823 cumulative IPC: 0.569792 (Simulation time: 0 hr 13 min 42 sec) 
Heartbeat CPU 0 instructions: 150000003 cycles: 194706637 heartbeat IPC: 0.421694 cumulative IPC: 0.55046 (Simulation time: 0 hr 15 min 0 sec) 
Simulation finished CPU 0 instructions: 100000002 cycles: 181666316 cumulative IPC: 0.55046 (Simulation time: 0 hr 15 min 0 sec) 

Simulation complete CPU 0 instructions: 100000002 cycles: 181666316 (Simulation time: 0 hr 15 min 0 sec) 


ChampSim completed all CPUs

Saving instructions large page distribution to /home/bsc/bsc018186/scratch/itp_asplos25_AE/dump/srv194_ap.pdst...
Saving data large page distribution to /home/bsc/bsc018186/scratch/itp_asplos25_AE/dump/srv194_ap.pdst...
=== Simulation ===
CPU 0 runs /gpfs/projects/bsc18/MN4/bsc18/romol/ChampSim/traces/qualcomm_srv/srv194_ap.champsimtrace.xz

Region of Interest Statistics

CPU 0 cumulative IPC: 0.55046 instructions: 100000002 cycles: 181666316
CPU 0 Branch Prediction Accuracy: 84.5002% MPKI: 31.9989 Average ROB Occupancy at Mispredict: 12.252
Branch type MPKI
BRANCH_DIRECT_JUMP: 1.09386
BRANCH_INDIRECT: 16.0702
BRANCH_CONDITIONAL: 10.3626
BRANCH_DIRECT_CALL: 2.0325
BRANCH_INDIRECT_CALL: 1.02917
BRANCH_RETURN: 1.41063

Instructions large pages: 0
Instructions small pages: 1703
Large page distribution for instructions: 0%

Data large pages: 0
Data small pages: 5948
Large page distribution for data: 0%

cpu0_L1I TOTAL       ACCESS:   32904952  HIT:   26445191  MISS:    6459761  iACCESS:   32904952  iHIT:   26445191  iMISS:    6459761  dACCESS:          0  dHIT:          0  dMISS:          0  itACCESS:          0  itHIT:          0  itMISS:          0  dtACCESS:          0  dtHIT:          0  dtMISS:          0
cpu0_L1I LOAD         ACCESS:    7610935  HIT:    5819655  MISS:    1791280  iACCESS:    7610935  iHIT:    5819655  iMISS:    1791280  dACCESS:          0  dHIT:          0  dMISS:          0  itACCESS:          0  itHIT:          0  itMISS:          0  dtACCESS:          0  dtHIT:          0  dtMISS:          0
cpu0_L1I RFO          ACCESS:          0  HIT:          0  MISS:          0  iACCESS:          0  iHIT:          0  iMISS:          0  dACCESS:          0  dHIT:          0  dMISS:          0  itACCESS:          0  itHIT:          0  itMISS:          0  dtACCESS:          0  dtHIT:          0  dtMISS:          0
cpu0_L1I PREFETCH     ACCESS:   25294017  HIT:   20625536  MISS:    4668481  iACCESS:   25294017  iHIT:   20625536  iMISS:    4668481  dACCESS:          0  dHIT:          0  dMISS:          0  itACCESS:          0  itHIT:          0  itMISS:          0  dtACCESS:          0  dtHIT:          0  dtMISS:          0
cpu0_L1I WRITE        ACCESS:          0  HIT:          0  MISS:          0  iACCESS:          0  iHIT:          0  iMISS:          0  dACCESS:          0  dHIT:          0  dMISS:          0  itACCESS:          0  itHIT:          0  itMISS:          0  dtACCESS:          0  dtHIT:          0  dtMISS:          0
cpu0_L1I TRANSLATION  ACCESS:          0  HIT:          0  MISS:          0  iACCESS:          0  iHIT:          0  iMISS:          0  dACCESS:          0  dHIT:          0  dMISS:          0  itACCESS:          0  itHIT:          0  itMISS:          0  dtACCESS:          0  dtHIT:          0  dtMISS:          0
cpu0_L1I PREFETCH  REQUESTED:   26797436  ISSUED:   26797043  CROSSED:          0  USEFUL:    1531346  USELESS:     556949
cpu0_L1I AVERAGE iMISS LATENCY: 21.1207 cycles
cpu0_L1I AVERAGE dMISS LATENCY: 0 cycles
cpu0_L1I AVERAGE itMISS LATENCY: 0 cycles
cpu0_L1I AVERAGE dtMISS LATENCY: 0 cycles
cpu0_L1I PAGE CROSSINGS (TLB HIT):         0 
cpu0_L1I PAGE CROSSINGS (TLB MISS):         0 
cpu0_L1I AVERAGE MISS LATENCY: 21.1207 cycles
cpu0_ITLB TOTAL       ACCESS:   28055372  HIT:   26533404  MISS:    1521968  iACCESS:   28055372  iHIT:   26533404  iMISS:    1521968  dACCESS:          0  dHIT:          0  dMISS:          0  itACCESS:          0  itHIT:          0  itMISS:          0  dtACCESS:          0  dtHIT:          0  dtMISS:          0
cpu0_ITLB LOAD         ACCESS:   28055372  HIT:   26533404  MISS:    1521968  iACCESS:   28055372  iHIT:   26533404  iMISS:    1521968  dACCESS:          0  dHIT:          0  dMISS:          0  itACCESS:          0  itHIT:          0  itMISS:          0  dtACCESS:          0  dtHIT:          0  dtMISS:          0
cpu0_ITLB RFO          ACCESS:          0  HIT:          0  MISS:          0  iACCESS:          0  iHIT:          0  iMISS:          0  dACCESS:          0  dHIT:          0  dMISS:          0  itACCESS:          0  itHIT:          0  itMISS:          0  dtACCESS:          0  dtHIT:          0  dtMISS:          0
cpu0_ITLB PREFETCH     ACCESS:          0  HIT:          0  MISS:          0  iACCESS:          0  iHIT:          0  iMISS:          0  dACCESS:          0  dHIT:          0  dMISS:          0  itACCESS:          0  itHIT:          0  itMISS:          0  dtACCESS:          0  dtHIT:          0  dtMISS:          0
cpu0_ITLB WRITE        ACCESS:          0  HIT:          0  MISS:          0  iACCESS:          0  iHIT:          0  iMISS:          0  dACCESS:          0  dHIT:          0  dMISS:          0  itACCESS:          0  itHIT:          0  itMISS:          0  dtACCESS:          0  dtHIT:          0  dtMISS:          0
cpu0_ITLB TRANSLATION  ACCESS:          0  HIT:          0  MISS:          0  iACCESS:          0  iHIT:          0  iMISS:          0  dACCESS:          0  dHIT:          0  dMISS:          0  itACCESS:          0  itHIT:          0  itMISS:          0  dtACCESS:          0  dtHIT:          0  dtMISS:          0
cpu0_ITLB PREFETCH  REQUESTED:          0  ISSUED:          0  CROSSED:          0  USEFUL:     263448  USELESS:      53903
cpu0_ITLB AVERAGE iMISS LATENCY: 6.71784 cycles
cpu0_ITLB AVERAGE dMISS LATENCY: 0 cycles
cpu0_ITLB AVERAGE itMISS LATENCY: 0 cycles
cpu0_ITLB AVERAGE dtMISS LATENCY: 0 cycles
cpu0_ITLB PAGE CROSSINGS (TLB HIT):         0 
cpu0_ITLB PAGE CROSSINGS (TLB MISS):         0 
cpu0_ITLB AVERAGE MISS LATENCY: 6.71784 cycles
cpu0_DTLB TOTAL       ACCESS:   31813912  HIT:   25946644  MISS:    5867268  iACCESS:          0  iHIT:          0  iMISS:          0  dACCESS:   31813912  dHIT:   25946644  dMISS:    5867268  itACCESS:          0  itHIT:          0  itMISS:          0  dtACCESS:          0  dtHIT:          0  dtMISS:          0
cpu0_DTLB LOAD         ACCESS:   31813912  HIT:   25946644  MISS:    5867268  iACCESS:          0  iHIT:          0  iMISS:          0  dACCESS:   31813912  dHIT:   25946644  dMISS:    5867268  itACCESS:          0  itHIT:          0  itMISS:          0  dtACCESS:          0  dtHIT:          0  dtMISS:          0
cpu0_DTLB RFO          ACCESS:          0  HIT:          0  MISS:          0  iACCESS:          0  iHIT:          0  iMISS:          0  dACCESS:          0  dHIT:          0  dMISS:          0  itACCESS:          0  itHIT:          0  itMISS:          0  dtACCESS:          0  dtHIT:          0  dtMISS:          0
cpu0_DTLB PREFETCH     ACCESS:          0  HIT:          0  MISS:          0  iACCESS:          0  iHIT:          0  iMISS:          0  dACCESS:          0  dHIT:          0  dMISS:          0  itACCESS:          0  itHIT:          0  itMISS:          0  dtACCESS:          0  dtHIT:          0  dtMISS:          0
cpu0_DTLB WRITE        ACCESS:          0  HIT:          0  MISS:          0  iACCESS:          0  iHIT:          0  iMISS:          0  dACCESS:          0  dHIT:          0  dMISS:          0  itACCESS:          0  itHIT:          0  itMISS:          0  dtACCESS:          0  dtHIT:          0  dtMISS:          0
cpu0_DTLB TRANSLATION  ACCESS:          0  HIT:          0  MISS:          0  iACCESS:          0  iHIT:          0  iMISS:          0  dACCESS:          0  dHIT:          0  dMISS:          0  itACCESS:          0  itHIT:          0  itMISS:          0  dtACCESS:          0  dtHIT:          0  dtMISS:          0
cpu0_DTLB PREFETCH  REQUESTED:          0  ISSUED:          0  CROSSED:          0  USEFUL:          0  USELESS:          0
cpu0_DTLB AVERAGE iMISS LATENCY: 0 cycles
cpu0_DTLB AVERAGE dMISS LATENCY: 7.27699 cycles
cpu0_DTLB AVERAGE itMISS LATENCY: 0 cycles
cpu0_DTLB AVERAGE dtMISS LATENCY: 0 cycles
cpu0_DTLB PAGE CROSSINGS (TLB HIT):         0 
cpu0_DTLB PAGE CROSSINGS (TLB MISS):         0 
cpu0_DTLB AVERAGE MISS LATENCY: 7.27699 cycles
cpu0_STLB TOTAL       ACCESS:    3315771  HIT:    3110870  MISS:     204901  iACCESS:     317355  iHIT:     241444  iMISS:      75911  dACCESS:    2998416  dHIT:    2869426  dMISS:     128990  itACCESS:          0  itHIT:          0  itMISS:          0  dtACCESS:          0  dtHIT:          0  dtMISS:          0
cpu0_STLB LOAD         ACCESS:    3315771  HIT:    3110870  MISS:     204901  iACCESS:     317355  iHIT:     241444  iMISS:      75911  dACCESS:    2998416  dHIT:    2869426  dMISS:     128990  itACCESS:          0  itHIT:          0  itMISS:          0  dtACCESS:          0  dtHIT:          0  dtMISS:          0
cpu0_STLB RFO          ACCESS:          0  HIT:          0  MISS:          0  iACCESS:          0  iHIT:          0  iMISS:          0  dACCESS:          0  dHIT:          0  dMISS:          0  itACCESS:          0  itHIT:          0  itMISS:          0  dtACCESS:          0  dtHIT:          0  dtMISS:          0
cpu0_STLB PREFETCH     ACCESS:          0  HIT:          0  MISS:          0  iACCESS:          0  iHIT:          0  iMISS:          0  dACCESS:          0  dHIT:          0  dMISS:          0  itACCESS:          0  itHIT:          0  itMISS:          0  dtACCESS:          0  dtHIT:          0  dtMISS:          0
cpu0_STLB WRITE        ACCESS:          0  HIT:          0  MISS:          0  iACCESS:          0  iHIT:          0  iMISS:          0  dACCESS:          0  dHIT:          0  dMISS:          0  itACCESS:          0  itHIT:          0  itMISS:          0  dtACCESS:          0  dtHIT:          0  dtMISS:          0
cpu0_STLB TRANSLATION  ACCESS:          0  HIT:          0  MISS:          0  iACCESS:          0  iHIT:          0  iMISS:          0  dACCESS:          0  dHIT:          0  dMISS:          0  itACCESS:          0  itHIT:          0  itMISS:          0  dtACCESS:          0  dtHIT:          0  dtMISS:          0
cpu0_STLB PREFETCH  REQUESTED:          0  ISSUED:          0  CROSSED:          0  USEFUL:          0  USELESS:          0
cpu0_STLB AVERAGE iMISS LATENCY: 37.5202 cycles
cpu0_STLB AVERAGE dMISS LATENCY: 89.5205 cycles
cpu0_STLB AVERAGE itMISS LATENCY: 0 cycles
cpu0_STLB AVERAGE dtMISS LATENCY: 0 cycles
cpu0_STLB PAGE CROSSINGS (TLB HIT):         0 
cpu0_STLB PAGE CROSSINGS (TLB MISS):         0 
cpu0_STLB AVERAGE MISS LATENCY: 127.041 cycles
cpu0_L1D TOTAL       ACCESS:   49425716  HIT:   40359112  MISS:    9066604  iACCESS:          0  iHIT:          0  iMISS:          0  dACCESS:   49152425  dHIT:   40335672  dMISS:    8816753  itACCESS:      83489  itHIT:      12409  itMISS:      71080  dtACCESS:     189802  dtHIT:      11031  dtMISS:     178771
cpu0_L1D LOAD         ACCESS:   24593017  HIT:   19107276  MISS:    5485741  iACCESS:          0  iHIT:          0  iMISS:          0  dACCESS:   24593017  dHIT:   19107276  dMISS:    5485741  itACCESS:          0  itHIT:          0  itMISS:          0  dtACCESS:          0  dtHIT:          0  dtMISS:          0
cpu0_L1D RFO          ACCESS:          0  HIT:          0  MISS:          0  iACCESS:          0  iHIT:          0  iMISS:          0  dACCESS:          0  dHIT:          0  dMISS:          0  itACCESS:          0  itHIT:          0  itMISS:          0  dtACCESS:          0  dtHIT:          0  dtMISS:          0
cpu0_L1D PREFETCH     ACCESS:   14892464  HIT:   12084224  MISS:    2808240  iACCESS:          0  iHIT:          0  iMISS:          0  dACCESS:   14892464  dHIT:   12084224  dMISS:    2808240  itACCESS:          0  itHIT:          0  itMISS:          0  dtACCESS:          0  dtHIT:          0  dtMISS:          0
cpu0_L1D WRITE        ACCESS:    9666944  HIT:    9144172  MISS:     522772  iACCESS:          0  iHIT:          0  iMISS:          0  dACCESS:    9666944  dHIT:    9144172  dMISS:     522772  itACCESS:          0  itHIT:          0  itMISS:          0  dtACCESS:          0  dtHIT:          0  dtMISS:          0
cpu0_L1D TRANSLATION  ACCESS:     273291  HIT:      23440  MISS:     249851  iACCESS:          0  iHIT:          0  iMISS:          0  dACCESS:          0  dHIT:          0  dMISS:          0  itACCESS:      83489  itHIT:      12409  itMISS:      71080  dtACCESS:     189802  dtHIT:      11031  dtMISS:     178771
cpu0_L1D PREFETCH  REQUESTED:   24593017  ISSUED:   18466797  CROSSED:          0  USEFUL:     238813  USELESS:     808604
cpu0_L1D AVERAGE iMISS LATENCY: 0 cycles
cpu0_L1D AVERAGE dMISS LATENCY: 23.8164 cycles
cpu0_L1D AVERAGE itMISS LATENCY: 0.772329 cycles
cpu0_L1D AVERAGE dtMISS LATENCY: 1.81625 cycles
cpu0_L1D PAGE CROSSINGS (TLB HIT):         0 
cpu0_L1D PAGE CROSSINGS (TLB MISS):         0 
cpu0_L1D AVERAGE MISS LATENCY: 26.4049 cycles
cpu0_L2C TOTAL       ACCESS:    8962514  HIT:    3925443  MISS:    5037071  iACCESS:    2686816  iHIT:     973704  iMISS:    1713112  dACCESS:    6045455  dHIT:    2850224  dMISS:    3195231  itACCESS:      69620  itHIT:      30098  itMISS:      39522  dtACCESS:     160623  dtHIT:      71417  dtMISS:      89206
cpu0_L2C LOAD         ACCESS:    4283834  HIT:    2340936  MISS:    1942898  iACCESS:     622322  iHIT:     212153  iMISS:     410169  dACCESS:    3661512  dHIT:    2128783  dMISS:    1532729  itACCESS:          0  itHIT:          0  itMISS:          0  dtACCESS:          0  dtHIT:          0  dtMISS:          0
cpu0_L2C RFO          ACCESS:     181747  HIT:      34716  MISS:     147031  iACCESS:          0  iHIT:          0  iMISS:          0  dACCESS:     181747  dHIT:      34716  dMISS:     147031  itACCESS:          0  itHIT:          0  itMISS:          0  dtACCESS:          0  dtHIT:          0  dtMISS:          0
cpu0_L2C PREFETCH     ACCESS:    4053327  HIT:    1339997  MISS:    2713330  iACCESS:    2064494  iHIT:     761551  iMISS:    1302943  dACCESS:    1988833  dHIT:     578446  dMISS:    1410387  itACCESS:          0  itHIT:          0  itMISS:          0  dtACCESS:          0  dtHIT:          0  dtMISS:          0
cpu0_L2C WRITE        ACCESS:     213363  HIT:     108279  MISS:     105084  iACCESS:          0  iHIT:          0  iMISS:          0  dACCESS:     213363  dHIT:     108279  dMISS:     105084  itACCESS:          0  itHIT:          0  itMISS:          0  dtACCESS:          0  dtHIT:          0  dtMISS:          0
cpu0_L2C TRANSLATION  ACCESS:     230243  HIT:     101515  MISS:     128728  iACCESS:          0  iHIT:          0  iMISS:          0  dACCESS:          0  dHIT:          0  dMISS:          0  itACCESS:      69620  itHIT:      30098  itMISS:      39522  dtACCESS:     160623  dtHIT:      71417  dtMISS:      89206
cpu0_L2C PREFETCH  REQUESTED:    1110746  ISSUED:    1110746  CROSSED:          0  USEFUL:     272478  USELESS:     293175
cpu0_L2C AVERAGE iMISS LATENCY: 22.3955 cycles
cpu0_L2C AVERAGE dMISS LATENCY: 43.5287 cycles
cpu0_L2C AVERAGE itMISS LATENCY: 1.25754 cycles
cpu0_L2C AVERAGE dtMISS LATENCY: 2.96298 cycles
cpu0_L2C PAGE CROSSINGS (TLB HIT):         0 
cpu0_L2C PAGE CROSSINGS (TLB MISS):         0 
cpu0_L2C AVERAGE MISS LATENCY: 70.1446 cycles
LLC TOTAL       ACCESS:    4944791  HIT:    3364501  MISS:    1580290  iACCESS:    1654357  iHIT:    1120400  iMISS:     533957  dACCESS:    3161706  dHIT:    2216208  dMISS:     945498  itACCESS:      39522  itHIT:       7785  itMISS:      31737  dtACCESS:      89206  dtHIT:      20108  dtMISS:      69098
LLC LOAD         ACCESS:    1937271  HIT:    1570100  MISS:     367171  iACCESS:     409257  iHIT:     298996  iMISS:     110261  dACCESS:    1528014  dHIT:    1271104  dMISS:     256910  itACCESS:          0  itHIT:          0  itMISS:          0  dtACCESS:          0  dtHIT:          0  dtMISS:          0
LLC RFO          ACCESS:     147015  HIT:      79339  MISS:      67676  iACCESS:          0  iHIT:          0  iMISS:          0  dACCESS:     147015  dHIT:      79339  dMISS:      67676  itACCESS:          0  itHIT:          0  itMISS:          0  dtACCESS:          0  dtHIT:          0  dtMISS:          0
LLC PREFETCH     ACCESS:    2566735  HIT:    1524374  MISS:    1042361  iACCESS:    1245100  iHIT:     821404  iMISS:     423696  dACCESS:    1321635  dHIT:     702970  dMISS:     618665  itACCESS:          0  itHIT:          0  itMISS:          0  dtACCESS:          0  dtHIT:          0  dtMISS:          0
LLC WRITE        ACCESS:     165042  HIT:     162795  MISS:       2247  iACCESS:          0  iHIT:          0  iMISS:          0  dACCESS:     165042  dHIT:     162795  dMISS:       2247  itACCESS:          0  itHIT:          0  itMISS:          0  dtACCESS:          0  dtHIT:          0  dtMISS:          0
LLC TRANSLATION  ACCESS:     128728  HIT:      27893  MISS:     100835  iACCESS:          0  iHIT:          0  iMISS:          0  dACCESS:          0  dHIT:          0  dMISS:          0  itACCESS:      39522  itHIT:       7785  itMISS:      31737  dtACCESS:      89206  dtHIT:      20108  dtMISS:      69098
LLC PREFETCH  REQUESTED:          0  ISSUED:          0  CROSSED:          0  USEFUL:          0  USELESS:          0
LLC AVERAGE iMISS LATENCY: 51.0446 cycles
LLC AVERAGE dMISS LATENCY: 102.877 cycles
LLC AVERAGE itMISS LATENCY: 3.51473 cycles
LLC AVERAGE dtMISS LATENCY: 8.33346 cycles
LLC PAGE CROSSINGS (TLB HIT):         0 
LLC PAGE CROSSINGS (TLB MISS):         0 
LLC AVERAGE MISS LATENCY: 165.77 cycles

PageTableWalker TOTAL       ACCESS:     102477  
PageTableWalker AVERAGE LATENCY: 4.10845 cycles
PageTableWalker TOTAL LATENCY: 421021 cycles

DRAM Statistics
Channel 0
 RQ ROW_BUFFER_HIT:     422914
  ROW_BUFFER_MISS:    1142257
 AVG DBUS CONGESTED CYCLE:    3.65221
 WQ ROW_BUFFER_HIT:      36492
  ROW_BUFFER_MISS:      33572  FULL:          0

