last_page:0x200000000000000
VMEM_RES_CAP:0x100000
PAGE_SIZE:4096
LOG2_PAGE_SIZE:12
LOG2_PAGE_TABLE_SIZE:9
page_table_levels:5
WARNING: physical memory size is smaller than virtual memory size
FDiP enabled with aggresivity 16

*** ChampSim Multicore Out-of-Order Simulator ***

Warmup Instructions: 50000000
Simulation Instructions: 100000000
Number of CPUs: 1
Small page size: 4096
Large page size: 2097152

CPU 0 Bimodal branch predictor
Basic BTB sets: 1024 ways: 8 indirect buffer size: 4096 RAS size: 64
Instruction page size distrubution: 0
Loading instruction page size distribution from /home/bsc/bsc018186/scratch/itp_asplos25_AE/dump/srv12_ap.pdst
Data page size distrubution: 0
Loading data page size distribution from /home/bsc/bsc018186/scratch/itp_asplos25_AE/dump/srv12_ap.pdst
cpu0_L2C IP-based stride prefetcher
cpu0_L1D next line prefetcher
CHiRPing...
cpu0_L1I next line prefetcher
Off-chip DRAM Size: 4 GiB Channels: 1 Width: 64-bit Data Rate: 3200 MT/s
Heartbeat CPU 0 instructions: 10000002 cycles: 2500198 heartbeat IPC: 3.99969 cumulative IPC: 3.99969 (Simulation time: 0 hr 0 min 40 sec) 
Heartbeat CPU 0 instructions: 20000002 cycles: 5001934 heartbeat IPC: 3.99723 cumulative IPC: 3.99846 (Simulation time: 0 hr 1 min 21 sec) 
Heartbeat CPU 0 instructions: 30000000 cycles: 7502142 heartbeat IPC: 3.99967 cumulative IPC: 3.99886 (Simulation time: 0 hr 2 min 3 sec) 
Heartbeat CPU 0 instructions: 40000002 cycles: 10002232 heartbeat IPC: 3.99986 cumulative IPC: 3.99911 (Simulation time: 0 hr 2 min 45 sec) 
Heartbeat CPU 0 instructions: 50000000 cycles: 12504336 heartbeat IPC: 3.99664 cumulative IPC: 3.99862 (Simulation time: 0 hr 3 min 26 sec) 
Warmup finished CPU 0 instructions: 50000000 cycles: 12504337 cumulative IPC: 3.99862 (Simulation time: 0 hr 3 min 26 sec) 

Warmup complete CPU 0 instructions: 50000000 cycles: 12504337 (Simulation time: 0 hr 3 min 26 sec) 

Heartbeat CPU 0 instructions: 60000002 cycles: 35129191 heartbeat IPC: 0.441992 cumulative IPC: 0.441992 (Simulation time: 0 hr 4 min 42 sec) 
Heartbeat CPU 0 instructions: 70000001 cycles: 59103562 heartbeat IPC: 0.417113 cumulative IPC: 0.429192 (Simulation time: 0 hr 6 min 0 sec) 
Heartbeat CPU 0 instructions: 80000000 cycles: 82121528 heartbeat IPC: 0.434444 cumulative IPC: 0.430929 (Simulation time: 0 hr 7 min 16 sec) 
Heartbeat CPU 0 instructions: 90000002 cycles: 105030805 heartbeat IPC: 0.436505 cumulative IPC: 0.432309 (Simulation time: 0 hr 8 min 33 sec) 
Heartbeat CPU 0 instructions: 100000000 cycles: 127374530 heartbeat IPC: 0.447553 cumulative IPC: 0.435274 (Simulation time: 0 hr 9 min 51 sec) 
*** Reached end of trace: /gpfs/projects/bsc18/MN4/bsc18/romol/ChampSim/traces/qualcomm_srv/srv12_ap.champsimtrace.xz
Heartbeat CPU 0 instructions: 110000000 cycles: 149999671 heartbeat IPC: 0.441987 cumulative IPC: 0.436379 (Simulation time: 0 hr 11 min 8 sec) 
Heartbeat CPU 0 instructions: 120000001 cycles: 170477070 heartbeat IPC: 0.488344 cumulative IPC: 0.443115 (Simulation time: 0 hr 12 min 22 sec) 
Heartbeat CPU 0 instructions: 130000004 cycles: 194327835 heartbeat IPC: 0.419274 cumulative IPC: 0.439988 (Simulation time: 0 hr 13 min 39 sec) 
Heartbeat CPU 0 instructions: 140000000 cycles: 218634373 heartbeat IPC: 0.411412 cumulative IPC: 0.436618 (Simulation time: 0 hr 14 min 58 sec) 
Heartbeat CPU 0 instructions: 150000000 cycles: 240065058 heartbeat IPC: 0.466621 cumulative IPC: 0.439444 (Simulation time: 0 hr 16 min 12 sec) 
Simulation finished CPU 0 instructions: 100000000 cycles: 227560722 cumulative IPC: 0.439444 (Simulation time: 0 hr 16 min 12 sec) 

Simulation complete CPU 0 instructions: 100000000 cycles: 227560722 (Simulation time: 0 hr 16 min 12 sec) 


ChampSim completed all CPUs

Saving instructions large page distribution to /home/bsc/bsc018186/scratch/itp_asplos25_AE/dump/srv12_ap.pdst...
Saving data large page distribution to /home/bsc/bsc018186/scratch/itp_asplos25_AE/dump/srv12_ap.pdst...
=== Simulation ===
CPU 0 runs /gpfs/projects/bsc18/MN4/bsc18/romol/ChampSim/traces/qualcomm_srv/srv12_ap.champsimtrace.xz

Region of Interest Statistics

CPU 0 cumulative IPC: 0.439444 instructions: 100000000 cycles: 227560722
CPU 0 Branch Prediction Accuracy: 79.1504% MPKI: 37.9192 Average ROB Occupancy at Mispredict: 10.166
Branch type MPKI
BRANCH_DIRECT_JUMP: 1.46916
BRANCH_INDIRECT: 18.9595
BRANCH_CONDITIONAL: 12.0596
BRANCH_DIRECT_CALL: 2.72087
BRANCH_INDIRECT_CALL: 0.807841
BRANCH_RETURN: 1.90239

Instructions large pages: 0
Instructions small pages: 1649
Large page distribution for instructions: 0%

Data large pages: 0
Data small pages: 6133
Large page distribution for data: 0%

cpu0_L1I TOTAL       ACCESS:   35842840  HIT:   27755326  MISS:    8087514  iACCESS:   35842840  iHIT:   27755326  iMISS:    8087514  dACCESS:          0  dHIT:          0  dMISS:          0  itACCESS:          0  itHIT:          0  itMISS:          0  dtACCESS:          0  dtHIT:          0  dtMISS:          0
cpu0_L1I LOAD         ACCESS:   10294983  HIT:    8066457  MISS:    2228526  iACCESS:   10294983  iHIT:    8066457  iMISS:    2228526  dACCESS:          0  dHIT:          0  dMISS:          0  itACCESS:          0  itHIT:          0  itMISS:          0  dtACCESS:          0  dtHIT:          0  dtMISS:          0
cpu0_L1I RFO          ACCESS:          0  HIT:          0  MISS:          0  iACCESS:          0  iHIT:          0  iMISS:          0  dACCESS:          0  dHIT:          0  dMISS:          0  itACCESS:          0  itHIT:          0  itMISS:          0  dtACCESS:          0  dtHIT:          0  dtMISS:          0
cpu0_L1I PREFETCH     ACCESS:   25547857  HIT:   19688869  MISS:    5858988  iACCESS:   25547857  iHIT:   19688869  iMISS:    5858988  dACCESS:          0  dHIT:          0  dMISS:          0  itACCESS:          0  itHIT:          0  itMISS:          0  dtACCESS:          0  dtHIT:          0  dtMISS:          0
cpu0_L1I WRITE        ACCESS:          0  HIT:          0  MISS:          0  iACCESS:          0  iHIT:          0  iMISS:          0  dACCESS:          0  dHIT:          0  dMISS:          0  itACCESS:          0  itHIT:          0  itMISS:          0  dtACCESS:          0  dtHIT:          0  dtMISS:          0
cpu0_L1I TRANSLATION  ACCESS:          0  HIT:          0  MISS:          0  iACCESS:          0  iHIT:          0  iMISS:          0  dACCESS:          0  dHIT:          0  dMISS:          0  itACCESS:          0  itHIT:          0  itMISS:          0  dtACCESS:          0  dtHIT:          0  dtMISS:          0
cpu0_L1I PREFETCH  REQUESTED:   27983325  ISSUED:   27983325  CROSSED:          0  USEFUL:    2030999  USELESS:     693091
cpu0_L1I AVERAGE iMISS LATENCY: 21.5306 cycles
cpu0_L1I AVERAGE dMISS LATENCY: 0 cycles
cpu0_L1I AVERAGE itMISS LATENCY: 0 cycles
cpu0_L1I AVERAGE dtMISS LATENCY: 0 cycles
cpu0_L1I PAGE CROSSINGS (TLB HIT):         0 
cpu0_L1I PAGE CROSSINGS (TLB MISS):         0 
cpu0_L1I AVERAGE MISS LATENCY: 21.5306 cycles
cpu0_ITLB TOTAL       ACCESS:   30326622  HIT:   28351283  MISS:    1975339  iACCESS:   30326622  iHIT:   28351283  iMISS:    1975339  dACCESS:          0  dHIT:          0  dMISS:          0  itACCESS:          0  itHIT:          0  itMISS:          0  dtACCESS:          0  dtHIT:          0  dtMISS:          0
cpu0_ITLB LOAD         ACCESS:   30326622  HIT:   28351283  MISS:    1975339  iACCESS:   30326622  iHIT:   28351283  iMISS:    1975339  dACCESS:          0  dHIT:          0  dMISS:          0  itACCESS:          0  itHIT:          0  itMISS:          0  dtACCESS:          0  dtHIT:          0  dtMISS:          0
cpu0_ITLB RFO          ACCESS:          0  HIT:          0  MISS:          0  iACCESS:          0  iHIT:          0  iMISS:          0  dACCESS:          0  dHIT:          0  dMISS:          0  itACCESS:          0  itHIT:          0  itMISS:          0  dtACCESS:          0  dtHIT:          0  dtMISS:          0
cpu0_ITLB PREFETCH     ACCESS:          0  HIT:          0  MISS:          0  iACCESS:          0  iHIT:          0  iMISS:          0  dACCESS:          0  dHIT:          0  dMISS:          0  itACCESS:          0  itHIT:          0  itMISS:          0  dtACCESS:          0  dtHIT:          0  dtMISS:          0
cpu0_ITLB WRITE        ACCESS:          0  HIT:          0  MISS:          0  iACCESS:          0  iHIT:          0  iMISS:          0  dACCESS:          0  dHIT:          0  dMISS:          0  itACCESS:          0  itHIT:          0  itMISS:          0  dtACCESS:          0  dtHIT:          0  dtMISS:          0
cpu0_ITLB TRANSLATION  ACCESS:          0  HIT:          0  MISS:          0  iACCESS:          0  iHIT:          0  iMISS:          0  dACCESS:          0  dHIT:          0  dMISS:          0  itACCESS:          0  itHIT:          0  itMISS:          0  dtACCESS:          0  dtHIT:          0  dtMISS:          0
cpu0_ITLB PREFETCH  REQUESTED:          0  ISSUED:          0  CROSSED:          0  USEFUL:     340245  USELESS:      67184
cpu0_ITLB AVERAGE iMISS LATENCY: 8.73851 cycles
cpu0_ITLB AVERAGE dMISS LATENCY: 0 cycles
cpu0_ITLB AVERAGE itMISS LATENCY: 0 cycles
cpu0_ITLB AVERAGE dtMISS LATENCY: 0 cycles
cpu0_ITLB PAGE CROSSINGS (TLB HIT):         0 
cpu0_ITLB PAGE CROSSINGS (TLB MISS):         0 
cpu0_ITLB AVERAGE MISS LATENCY: 8.73851 cycles
cpu0_DTLB TOTAL       ACCESS:   28323019  HIT:   26468064  MISS:    1854955  iACCESS:          0  iHIT:          0  iMISS:          0  dACCESS:   28323019  dHIT:   26468064  dMISS:    1854955  itACCESS:          0  itHIT:          0  itMISS:          0  dtACCESS:          0  dtHIT:          0  dtMISS:          0
cpu0_DTLB LOAD         ACCESS:   28323019  HIT:   26468064  MISS:    1854955  iACCESS:          0  iHIT:          0  iMISS:          0  dACCESS:   28323019  dHIT:   26468064  dMISS:    1854955  itACCESS:          0  itHIT:          0  itMISS:          0  dtACCESS:          0  dtHIT:          0  dtMISS:          0
cpu0_DTLB RFO          ACCESS:          0  HIT:          0  MISS:          0  iACCESS:          0  iHIT:          0  iMISS:          0  dACCESS:          0  dHIT:          0  dMISS:          0  itACCESS:          0  itHIT:          0  itMISS:          0  dtACCESS:          0  dtHIT:          0  dtMISS:          0
cpu0_DTLB PREFETCH     ACCESS:          0  HIT:          0  MISS:          0  iACCESS:          0  iHIT:          0  iMISS:          0  dACCESS:          0  dHIT:          0  dMISS:          0  itACCESS:          0  itHIT:          0  itMISS:          0  dtACCESS:          0  dtHIT:          0  dtMISS:          0
cpu0_DTLB WRITE        ACCESS:          0  HIT:          0  MISS:          0  iACCESS:          0  iHIT:          0  iMISS:          0  dACCESS:          0  dHIT:          0  dMISS:          0  itACCESS:          0  itHIT:          0  itMISS:          0  dtACCESS:          0  dtHIT:          0  dtMISS:          0
cpu0_DTLB TRANSLATION  ACCESS:          0  HIT:          0  MISS:          0  iACCESS:          0  iHIT:          0  iMISS:          0  dACCESS:          0  dHIT:          0  dMISS:          0  itACCESS:          0  itHIT:          0  itMISS:          0  dtACCESS:          0  dtHIT:          0  dtMISS:          0
cpu0_DTLB PREFETCH  REQUESTED:          0  ISSUED:          0  CROSSED:          0  USEFUL:          0  USELESS:          0
cpu0_DTLB AVERAGE iMISS LATENCY: 0 cycles
cpu0_DTLB AVERAGE dMISS LATENCY: 23.6406 cycles
cpu0_DTLB AVERAGE itMISS LATENCY: 0 cycles
cpu0_DTLB AVERAGE dtMISS LATENCY: 0 cycles
cpu0_DTLB PAGE CROSSINGS (TLB HIT):         0 
cpu0_DTLB PAGE CROSSINGS (TLB MISS):         0 
cpu0_DTLB AVERAGE MISS LATENCY: 23.6406 cycles
cpu0_STLB TOTAL       ACCESS:    1550247  HIT:    1291900  MISS:     258347  iACCESS:     407432  iHIT:     308466  iMISS:      98966  dACCESS:    1142815  dHIT:     983434  dMISS:     159381  itACCESS:          0  itHIT:          0  itMISS:          0  dtACCESS:          0  dtHIT:          0  dtMISS:          0
cpu0_STLB LOAD         ACCESS:    1550247  HIT:    1291900  MISS:     258347  iACCESS:     407432  iHIT:     308466  iMISS:      98966  dACCESS:    1142815  dHIT:     983434  dMISS:     159381  itACCESS:          0  itHIT:          0  itMISS:          0  dtACCESS:          0  dtHIT:          0  dtMISS:          0
cpu0_STLB RFO          ACCESS:          0  HIT:          0  MISS:          0  iACCESS:          0  iHIT:          0  iMISS:          0  dACCESS:          0  dHIT:          0  dMISS:          0  itACCESS:          0  itHIT:          0  itMISS:          0  dtACCESS:          0  dtHIT:          0  dtMISS:          0
cpu0_STLB PREFETCH     ACCESS:          0  HIT:          0  MISS:          0  iACCESS:          0  iHIT:          0  iMISS:          0  dACCESS:          0  dHIT:          0  dMISS:          0  itACCESS:          0  itHIT:          0  itMISS:          0  dtACCESS:          0  dtHIT:          0  dtMISS:          0
cpu0_STLB WRITE        ACCESS:          0  HIT:          0  MISS:          0  iACCESS:          0  iHIT:          0  iMISS:          0  dACCESS:          0  dHIT:          0  dMISS:          0  itACCESS:          0  itHIT:          0  itMISS:          0  dtACCESS:          0  dtHIT:          0  dtMISS:          0
cpu0_STLB TRANSLATION  ACCESS:          0  HIT:          0  MISS:          0  iACCESS:          0  iHIT:          0  iMISS:          0  dACCESS:          0  dHIT:          0  dMISS:          0  itACCESS:          0  itHIT:          0  itMISS:          0  dtACCESS:          0  dtHIT:          0  dtMISS:          0
cpu0_STLB PREFETCH  REQUESTED:          0  ISSUED:          0  CROSSED:          0  USEFUL:          0  USELESS:          0
cpu0_STLB AVERAGE iMISS LATENCY: 54.2009 cycles
cpu0_STLB AVERAGE dMISS LATENCY: 134.271 cycles
cpu0_STLB AVERAGE itMISS LATENCY: 0 cycles
cpu0_STLB AVERAGE dtMISS LATENCY: 0 cycles
cpu0_STLB PAGE CROSSINGS (TLB HIT):         0 
cpu0_STLB PAGE CROSSINGS (TLB MISS):         0 
cpu0_STLB AVERAGE MISS LATENCY: 188.471 cycles
cpu0_L1D TOTAL       ACCESS:   43703985  HIT:   39015104  MISS:    4688881  iACCESS:          0  iHIT:          0  iMISS:          0  dACCESS:   43368483  dHIT:   38987826  dMISS:    4380657  itACCESS:     106687  itHIT:      14502  itMISS:      92185  dtACCESS:     228815  dtHIT:      12776  dtMISS:     216039
cpu0_L1D LOAD         ACCESS:   19858992  HIT:   17868512  MISS:    1990480  iACCESS:          0  iHIT:          0  iMISS:          0  dACCESS:   19858992  dHIT:   17868512  dMISS:    1990480  itACCESS:          0  itHIT:          0  itMISS:          0  dtACCESS:          0  dtHIT:          0  dtMISS:          0
cpu0_L1D RFO          ACCESS:          0  HIT:          0  MISS:          0  iACCESS:          0  iHIT:          0  iMISS:          0  dACCESS:          0  dHIT:          0  dMISS:          0  itACCESS:          0  itHIT:          0  itMISS:          0  dtACCESS:          0  dtHIT:          0  dtMISS:          0
cpu0_L1D PREFETCH     ACCESS:   13298827  HIT:   11393320  MISS:    1905507  iACCESS:          0  iHIT:          0  iMISS:          0  dACCESS:   13298827  dHIT:   11393320  dMISS:    1905507  itACCESS:          0  itHIT:          0  itMISS:          0  dtACCESS:          0  dtHIT:          0  dtMISS:          0
cpu0_L1D WRITE        ACCESS:   10210664  HIT:    9725994  MISS:     484670  iACCESS:          0  iHIT:          0  iMISS:          0  dACCESS:   10210664  dHIT:    9725994  dMISS:     484670  itACCESS:          0  itHIT:          0  itMISS:          0  dtACCESS:          0  dtHIT:          0  dtMISS:          0
cpu0_L1D TRANSLATION  ACCESS:     335502  HIT:      27278  MISS:     308224  iACCESS:          0  iHIT:          0  iMISS:          0  dACCESS:          0  dHIT:          0  dMISS:          0  itACCESS:     106687  itHIT:      14502  itMISS:      92185  dtACCESS:     228815  dtHIT:      12776  dtMISS:     216039
cpu0_L1D PREFETCH  REQUESTED:   19858992  ISSUED:   17657532  CROSSED:          0  USEFUL:     315298  USELESS:     739432
cpu0_L1D AVERAGE iMISS LATENCY: 0 cycles
cpu0_L1D AVERAGE dMISS LATENCY: 41.0307 cycles
cpu0_L1D AVERAGE itMISS LATENCY: 2.80327 cycles
cpu0_L1D AVERAGE dtMISS LATENCY: 6.92887 cycles
cpu0_L1D PAGE CROSSINGS (TLB HIT):         0 
cpu0_L1D PAGE CROSSINGS (TLB MISS):         0 
cpu0_L1D AVERAGE MISS LATENCY: 50.7628 cycles
cpu0_L2C TOTAL       ACCESS:    7541644  HIT:    3727825  MISS:    3813819  iACCESS:    3480949  iHIT:    2047570  iMISS:    1433379  dACCESS:    3769031  dHIT:    1637995  dMISS:    2131036  itACCESS:      91706  itHIT:      17800  itMISS:      73906  dtACCESS:     199958  dtHIT:      24460  dtMISS:     175498
cpu0_L2C LOAD         ACCESS:    1794103  HIT:     919322  MISS:     874781  iACCESS:     793383  iHIT:     496259  iMISS:     297124  dACCESS:    1000720  dHIT:     423063  dMISS:     577657  itACCESS:          0  itHIT:          0  itMISS:          0  dtACCESS:          0  dtHIT:          0  dtMISS:          0
cpu0_L2C RFO          ACCESS:     169692  HIT:      67256  MISS:     102436  iACCESS:          0  iHIT:          0  iMISS:          0  dACCESS:     169692  dHIT:      67256  dMISS:     102436  itACCESS:          0  itHIT:          0  itMISS:          0  dtACCESS:          0  dtHIT:          0  dtMISS:          0
cpu0_L2C PREFETCH     ACCESS:    5002385  HIT:    2416663  MISS:    2585722  iACCESS:    2687566  iHIT:    1551311  iMISS:    1136255  dACCESS:    2314819  dHIT:     865352  dMISS:    1449467  itACCESS:          0  itHIT:          0  itMISS:          0  dtACCESS:          0  dtHIT:          0  dtMISS:          0
cpu0_L2C WRITE        ACCESS:     283800  HIT:     282324  MISS:       1476  iACCESS:          0  iHIT:          0  iMISS:          0  dACCESS:     283800  dHIT:     282324  dMISS:       1476  itACCESS:          0  itHIT:          0  itMISS:          0  dtACCESS:          0  dtHIT:          0  dtMISS:          0
cpu0_L2C TRANSLATION  ACCESS:     291664  HIT:      42260  MISS:     249404  iACCESS:          0  iHIT:          0  iMISS:          0  dACCESS:          0  dHIT:          0  dMISS:          0  itACCESS:      91706  itHIT:      17800  itMISS:      73906  dtACCESS:     199958  dtHIT:      24460  dtMISS:     175498
cpu0_L2C PREFETCH  REQUESTED:    1511864  ISSUED:    1511775  CROSSED:          0  USEFUL:     370979  USELESS:     314765
cpu0_L2C AVERAGE iMISS LATENCY: 37.797 cycles
cpu0_L2C AVERAGE dMISS LATENCY: 65.0767 cycles
cpu0_L2C AVERAGE itMISS LATENCY: 3.21008 cycles
cpu0_L2C AVERAGE dtMISS LATENCY: 7.99787 cycles
cpu0_L2C PAGE CROSSINGS (TLB HIT):         0 
cpu0_L2C PAGE CROSSINGS (TLB MISS):         0 
cpu0_L2C AVERAGE MISS LATENCY: 114.082 cycles
LLC TOTAL       ACCESS:    3773161  HIT:    1513974  MISS:    2259187  iACCESS:    1350098  iHIT:     556102  iMISS:     793996  dACCESS:    2173659  dHIT:     912240  dMISS:    1261419  itACCESS:      73906  itHIT:      12345  itMISS:      61561  dtACCESS:     175498  dtHIT:      33287  dtMISS:     142211
LLC LOAD         ACCESS:     868067  HIT:     368127  MISS:     499940  iACCESS:     295848  iHIT:     128462  iMISS:     167386  dACCESS:     572219  dHIT:     239665  dMISS:     332554  itACCESS:          0  itHIT:          0  itMISS:          0  dtACCESS:          0  dtHIT:          0  dtMISS:          0
LLC RFO          ACCESS:     102434  HIT:      36055  MISS:      66379  iACCESS:          0  iHIT:          0  iMISS:          0  dACCESS:     102434  dHIT:      36055  dMISS:      66379  itACCESS:          0  itHIT:          0  itMISS:          0  dtACCESS:          0  dtHIT:          0  dtMISS:          0
LLC PREFETCH     ACCESS:    2396091  HIT:     915726  MISS:    1480365  iACCESS:    1054250  iHIT:     427640  iMISS:     626610  dACCESS:    1341841  dHIT:     488086  dMISS:     853755  itACCESS:          0  itHIT:          0  itMISS:          0  dtACCESS:          0  dtHIT:          0  dtMISS:          0
LLC WRITE        ACCESS:     157165  HIT:     148434  MISS:       8731  iACCESS:          0  iHIT:          0  iMISS:          0  dACCESS:     157165  dHIT:     148434  dMISS:       8731  itACCESS:          0  itHIT:          0  itMISS:          0  dtACCESS:          0  dtHIT:          0  dtMISS:          0
LLC TRANSLATION  ACCESS:     249404  HIT:      45632  MISS:     203772  iACCESS:          0  iHIT:          0  iMISS:          0  dACCESS:          0  dHIT:          0  dMISS:          0  itACCESS:      73906  itHIT:      12345  itMISS:      61561  dtACCESS:     175498  dtHIT:      33287  dtMISS:     142211
LLC PREFETCH  REQUESTED:          0  ISSUED:          0  CROSSED:          0  USEFUL:          0  USELESS:          0
LLC AVERAGE iMISS LATENCY: 52.0945 cycles
LLC AVERAGE dMISS LATENCY: 93.431 cycles
LLC AVERAGE itMISS LATENCY: 4.77256 cycles
LLC AVERAGE dtMISS LATENCY: 11.9708 cycles
LLC PAGE CROSSINGS (TLB HIT):         0 
LLC PAGE CROSSINGS (TLB MISS):         0 
LLC AVERAGE MISS LATENCY: 162.269 cycles

PageTableWalker TOTAL       ACCESS:     126869  
PageTableWalker AVERAGE LATENCY: 5.2083 cycles
PageTableWalker TOTAL LATENCY: 660771 cycles

DRAM Statistics
Channel 0
 RQ ROW_BUFFER_HIT:     622148
  ROW_BUFFER_MISS:    1607412
 AVG DBUS CONGESTED CYCLE:    3.64247
 WQ ROW_BUFFER_HIT:      42643
  ROW_BUFFER_MISS:      28605  FULL:          0

