last_page:0x200000000000000
VMEM_RES_CAP:0x100000
PAGE_SIZE:4096
LOG2_PAGE_SIZE:12
LOG2_PAGE_TABLE_SIZE:9
page_table_levels:5
WARNING: physical memory size is smaller than virtual memory size
FDiP enabled with aggresivity 16

*** ChampSim Multicore Out-of-Order Simulator ***

Warmup Instructions: 50000000
Simulation Instructions: 100000000
Number of CPUs: 1
Small page size: 4096
Large page size: 2097152

CPU 0 Bimodal branch predictor
Basic BTB sets: 1024 ways: 8 indirect buffer size: 4096 RAS size: 64
Instruction page size distrubution: 0
Loading instruction page size distribution from /home/bsc/bsc018186/scratch/itp_asplos25_AE/dump/srv151_ap.pdst
Data page size distrubution: 0
Loading data page size distribution from /home/bsc/bsc018186/scratch/itp_asplos25_AE/dump/srv151_ap.pdst
cpu0_L2C IP-based stride prefetcher
cpu0_L2C is using xPTP/LRU
	TLB_LOWER_STRESS_THRESHOLD:1
	TLB_UPPER_STRESS_THRESHOLD:9
	MIN_EVICTION_POSITION:4
cpu0_L1D next line prefetcher
cpu0_STLB using iTP with max lru@8
cpu0_STLB using iTP with instr@0 and data@2
Init sat counter with 3 bits (max:50).
cpu0_L1I next line prefetcher
Off-chip DRAM Size: 4 GiB Channels: 1 Width: 64-bit Data Rate: 3200 MT/s
Heartbeat CPU 0 instructions: 10000001 cycles: 2500161 heartbeat IPC: 3.99975 cumulative IPC: 3.99975 (Simulation time: 0 hr 0 min 38 sec) 
Heartbeat CPU 0 instructions: 20000003 cycles: 5000198 heartbeat IPC: 3.99995 cumulative IPC: 3.99985 (Simulation time: 0 hr 1 min 22 sec) 
Heartbeat CPU 0 instructions: 30000003 cycles: 7500208 heartbeat IPC: 3.99999 cumulative IPC: 3.99989 (Simulation time: 0 hr 2 min 7 sec) 
Heartbeat CPU 0 instructions: 40000003 cycles: 10000292 heartbeat IPC: 3.99987 cumulative IPC: 3.99989 (Simulation time: 0 hr 2 min 52 sec) 
Heartbeat CPU 0 instructions: 50000000 cycles: 12500307 heartbeat IPC: 3.99998 cumulative IPC: 3.99991 (Simulation time: 0 hr 3 min 36 sec) 
Warmup finished CPU 0 instructions: 50000000 cycles: 12500308 cumulative IPC: 3.99991 (Simulation time: 0 hr 3 min 36 sec) 

Warmup complete CPU 0 instructions: 50000000 cycles: 12500308 (Simulation time: 0 hr 3 min 36 sec) 

Heartbeat CPU 0 instructions: 60000000 cycles: 26083973 heartbeat IPC: 0.736179 cumulative IPC: 0.736179 (Simulation time: 0 hr 4 min 39 sec) 
Heartbeat CPU 0 instructions: 70000002 cycles: 39540048 heartbeat IPC: 0.743159 cumulative IPC: 0.739653 (Simulation time: 0 hr 5 min 43 sec) 
Heartbeat CPU 0 instructions: 80000002 cycles: 51903565 heartbeat IPC: 0.808832 cumulative IPC: 0.761359 (Simulation time: 0 hr 6 min 47 sec) 
Heartbeat CPU 0 instructions: 90000000 cycles: 64815037 heartbeat IPC: 0.774505 cumulative IPC: 0.764604 (Simulation time: 0 hr 7 min 56 sec) 
Heartbeat CPU 0 instructions: 100000004 cycles: 77472596 heartbeat IPC: 0.790043 cumulative IPC: 0.769559 (Simulation time: 0 hr 9 min 5 sec) 
*** Reached end of trace: /gpfs/projects/bsc18/MN4/bsc18/romol/ChampSim/traces/qualcomm_srv/srv151_ap.champsimtrace.xz
Heartbeat CPU 0 instructions: 110000003 cycles: 90306820 heartbeat IPC: 0.779167 cumulative IPC: 0.771144 (Simulation time: 0 hr 10 min 14 sec) 
Heartbeat CPU 0 instructions: 120000002 cycles: 103198657 heartbeat IPC: 0.775685 cumulative IPC: 0.77179 (Simulation time: 0 hr 11 min 22 sec) 
Heartbeat CPU 0 instructions: 130000000 cycles: 116403623 heartbeat IPC: 0.757291 cumulative IPC: 0.769947 (Simulation time: 0 hr 12 min 31 sec) 
Heartbeat CPU 0 instructions: 140000001 cycles: 129159042 heartbeat IPC: 0.783981 cumulative IPC: 0.771482 (Simulation time: 0 hr 13 min 37 sec) 
Heartbeat CPU 0 instructions: 150000002 cycles: 142260136 heartbeat IPC: 0.763296 cumulative IPC: 0.770655 (Simulation time: 0 hr 14 min 40 sec) 
Simulation finished CPU 0 instructions: 100000002 cycles: 129759829 cumulative IPC: 0.770655 (Simulation time: 0 hr 14 min 40 sec) 

Simulation complete CPU 0 instructions: 100000002 cycles: 129759829 (Simulation time: 0 hr 14 min 40 sec) 


ChampSim completed all CPUs

Saving instructions large page distribution to /home/bsc/bsc018186/scratch/itp_asplos25_AE/dump/srv151_ap.pdst...
Saving data large page distribution to /home/bsc/bsc018186/scratch/itp_asplos25_AE/dump/srv151_ap.pdst...
=== Simulation ===
CPU 0 runs /gpfs/projects/bsc18/MN4/bsc18/romol/ChampSim/traces/qualcomm_srv/srv151_ap.champsimtrace.xz

Region of Interest Statistics

CPU 0 cumulative IPC: 0.770655 instructions: 100000002 cycles: 129759829
CPU 0 Branch Prediction Accuracy: 83.2513% MPKI: 30.0025 Average ROB Occupancy at Mispredict: 13.2219
Branch type MPKI
BRANCH_DIRECT_JUMP: 1.01974
BRANCH_INDIRECT: 15.6431
BRANCH_CONDITIONAL: 9.6763
BRANCH_DIRECT_CALL: 1.83277
BRANCH_INDIRECT_CALL: 0.50392
BRANCH_RETURN: 1.32665

Instructions large pages: 0
Instructions small pages: 11188
Large page distribution for instructions: 0%

Data large pages: 0
Data small pages: 10219
Large page distribution for data: 0%

cpu0_L1I TOTAL       ACCESS:   35075642  HIT:   27134249  MISS:    7941393  iACCESS:   35075642  iHIT:   27134249  iMISS:    7941393  dACCESS:          0  dHIT:          0  dMISS:          0  itACCESS:          0  itHIT:          0  itMISS:          0  dtACCESS:          0  dtHIT:          0  dtMISS:          0
cpu0_L1I LOAD         ACCESS:   10325623  HIT:    8097252  MISS:    2228371  iACCESS:   10325623  iHIT:    8097252  iMISS:    2228371  dACCESS:          0  dHIT:          0  dMISS:          0  itACCESS:          0  itHIT:          0  itMISS:          0  dtACCESS:          0  dtHIT:          0  dtMISS:          0
cpu0_L1I RFO          ACCESS:          0  HIT:          0  MISS:          0  iACCESS:          0  iHIT:          0  iMISS:          0  dACCESS:          0  dHIT:          0  dMISS:          0  itACCESS:          0  itHIT:          0  itMISS:          0  dtACCESS:          0  dtHIT:          0  dtMISS:          0
cpu0_L1I PREFETCH     ACCESS:   24750019  HIT:   19036997  MISS:    5713022  iACCESS:   24750019  iHIT:   19036997  iMISS:    5713022  dACCESS:          0  dHIT:          0  dMISS:          0  itACCESS:          0  itHIT:          0  itMISS:          0  dtACCESS:          0  dtHIT:          0  dtMISS:          0
cpu0_L1I WRITE        ACCESS:          0  HIT:          0  MISS:          0  iACCESS:          0  iHIT:          0  iMISS:          0  dACCESS:          0  dHIT:          0  dMISS:          0  itACCESS:          0  itHIT:          0  itMISS:          0  dtACCESS:          0  dtHIT:          0  dtMISS:          0
cpu0_L1I TRANSLATION  ACCESS:          0  HIT:          0  MISS:          0  iACCESS:          0  iHIT:          0  iMISS:          0  dACCESS:          0  dHIT:          0  dMISS:          0  itACCESS:          0  itHIT:          0  itMISS:          0  dtACCESS:          0  dtHIT:          0  dtMISS:          0
cpu0_L1I PREFETCH  REQUESTED:   27257250  ISSUED:   27257105  CROSSED:          0  USEFUL:    1890364  USELESS:     621894
cpu0_L1I AVERAGE iMISS LATENCY: 11.2501 cycles
cpu0_L1I AVERAGE dMISS LATENCY: 0 cycles
cpu0_L1I AVERAGE itMISS LATENCY: 0 cycles
cpu0_L1I AVERAGE dtMISS LATENCY: 0 cycles
cpu0_L1I PAGE CROSSINGS (TLB HIT):         0 
cpu0_L1I PAGE CROSSINGS (TLB MISS):         0 
cpu0_L1I AVERAGE MISS LATENCY: 11.2501 cycles
cpu0_ITLB TOTAL       ACCESS:   29156842  HIT:   27207146  MISS:    1949696  iACCESS:   29156842  iHIT:   27207146  iMISS:    1949696  dACCESS:          0  dHIT:          0  dMISS:          0  itACCESS:          0  itHIT:          0  itMISS:          0  dtACCESS:          0  dtHIT:          0  dtMISS:          0
cpu0_ITLB LOAD         ACCESS:   29156842  HIT:   27207146  MISS:    1949696  iACCESS:   29156842  iHIT:   27207146  iMISS:    1949696  dACCESS:          0  dHIT:          0  dMISS:          0  itACCESS:          0  itHIT:          0  itMISS:          0  dtACCESS:          0  dtHIT:          0  dtMISS:          0
cpu0_ITLB RFO          ACCESS:          0  HIT:          0  MISS:          0  iACCESS:          0  iHIT:          0  iMISS:          0  dACCESS:          0  dHIT:          0  dMISS:          0  itACCESS:          0  itHIT:          0  itMISS:          0  dtACCESS:          0  dtHIT:          0  dtMISS:          0
cpu0_ITLB PREFETCH     ACCESS:          0  HIT:          0  MISS:          0  iACCESS:          0  iHIT:          0  iMISS:          0  dACCESS:          0  dHIT:          0  dMISS:          0  itACCESS:          0  itHIT:          0  itMISS:          0  dtACCESS:          0  dtHIT:          0  dtMISS:          0
cpu0_ITLB WRITE        ACCESS:          0  HIT:          0  MISS:          0  iACCESS:          0  iHIT:          0  iMISS:          0  dACCESS:          0  dHIT:          0  dMISS:          0  itACCESS:          0  itHIT:          0  itMISS:          0  dtACCESS:          0  dtHIT:          0  dtMISS:          0
cpu0_ITLB TRANSLATION  ACCESS:          0  HIT:          0  MISS:          0  iACCESS:          0  iHIT:          0  iMISS:          0  dACCESS:          0  dHIT:          0  dMISS:          0  itACCESS:          0  itHIT:          0  itMISS:          0  dtACCESS:          0  dtHIT:          0  dtMISS:          0
cpu0_ITLB PREFETCH  REQUESTED:          0  ISSUED:          0  CROSSED:          0  USEFUL:     320028  USELESS:      65868
cpu0_ITLB AVERAGE iMISS LATENCY: 2.01335 cycles
cpu0_ITLB AVERAGE dMISS LATENCY: 0 cycles
cpu0_ITLB AVERAGE itMISS LATENCY: 0 cycles
cpu0_ITLB AVERAGE dtMISS LATENCY: 0 cycles
cpu0_ITLB PAGE CROSSINGS (TLB HIT):         0 
cpu0_ITLB PAGE CROSSINGS (TLB MISS):         0 
cpu0_ITLB AVERAGE MISS LATENCY: 2.01335 cycles
cpu0_DTLB TOTAL       ACCESS:   27863813  HIT:   25833987  MISS:    2029826  iACCESS:          0  iHIT:          0  iMISS:          0  dACCESS:   27863813  dHIT:   25833987  dMISS:    2029826  itACCESS:          0  itHIT:          0  itMISS:          0  dtACCESS:          0  dtHIT:          0  dtMISS:          0
cpu0_DTLB LOAD         ACCESS:   27863813  HIT:   25833987  MISS:    2029826  iACCESS:          0  iHIT:          0  iMISS:          0  dACCESS:   27863813  dHIT:   25833987  dMISS:    2029826  itACCESS:          0  itHIT:          0  itMISS:          0  dtACCESS:          0  dtHIT:          0  dtMISS:          0
cpu0_DTLB RFO          ACCESS:          0  HIT:          0  MISS:          0  iACCESS:          0  iHIT:          0  iMISS:          0  dACCESS:          0  dHIT:          0  dMISS:          0  itACCESS:          0  itHIT:          0  itMISS:          0  dtACCESS:          0  dtHIT:          0  dtMISS:          0
cpu0_DTLB PREFETCH     ACCESS:          0  HIT:          0  MISS:          0  iACCESS:          0  iHIT:          0  iMISS:          0  dACCESS:          0  dHIT:          0  dMISS:          0  itACCESS:          0  itHIT:          0  itMISS:          0  dtACCESS:          0  dtHIT:          0  dtMISS:          0
cpu0_DTLB WRITE        ACCESS:          0  HIT:          0  MISS:          0  iACCESS:          0  iHIT:          0  iMISS:          0  dACCESS:          0  dHIT:          0  dMISS:          0  itACCESS:          0  itHIT:          0  itMISS:          0  dtACCESS:          0  dtHIT:          0  dtMISS:          0
cpu0_DTLB TRANSLATION  ACCESS:          0  HIT:          0  MISS:          0  iACCESS:          0  iHIT:          0  iMISS:          0  dACCESS:          0  dHIT:          0  dMISS:          0  itACCESS:          0  itHIT:          0  itMISS:          0  dtACCESS:          0  dtHIT:          0  dtMISS:          0
cpu0_DTLB PREFETCH  REQUESTED:          0  ISSUED:          0  CROSSED:          0  USEFUL:          0  USELESS:          0
cpu0_DTLB AVERAGE iMISS LATENCY: 0 cycles
cpu0_DTLB AVERAGE dMISS LATENCY: 10.9743 cycles
cpu0_DTLB AVERAGE itMISS LATENCY: 0 cycles
cpu0_DTLB AVERAGE dtMISS LATENCY: 0 cycles
cpu0_DTLB PAGE CROSSINGS (TLB HIT):         0 
cpu0_DTLB PAGE CROSSINGS (TLB MISS):         0 
cpu0_DTLB AVERAGE MISS LATENCY: 10.9743 cycles
cpu0_STLB TOTAL       ACCESS:    1619688  HIT:    1474026  MISS:     145662  iACCESS:     385903  iHIT:     377373  iMISS:       8530  dACCESS:    1233785  dHIT:    1096653  dMISS:     137132  itACCESS:          0  itHIT:          0  itMISS:          0  dtACCESS:          0  dtHIT:          0  dtMISS:          0
cpu0_STLB LOAD         ACCESS:    1619688  HIT:    1474026  MISS:     145662  iACCESS:     385903  iHIT:     377373  iMISS:       8530  dACCESS:    1233785  dHIT:    1096653  dMISS:     137132  itACCESS:          0  itHIT:          0  itMISS:          0  dtACCESS:          0  dtHIT:          0  dtMISS:          0
cpu0_STLB RFO          ACCESS:          0  HIT:          0  MISS:          0  iACCESS:          0  iHIT:          0  iMISS:          0  dACCESS:          0  dHIT:          0  dMISS:          0  itACCESS:          0  itHIT:          0  itMISS:          0  dtACCESS:          0  dtHIT:          0  dtMISS:          0
cpu0_STLB PREFETCH     ACCESS:          0  HIT:          0  MISS:          0  iACCESS:          0  iHIT:          0  iMISS:          0  dACCESS:          0  dHIT:          0  dMISS:          0  itACCESS:          0  itHIT:          0  itMISS:          0  dtACCESS:          0  dtHIT:          0  dtMISS:          0
cpu0_STLB WRITE        ACCESS:          0  HIT:          0  MISS:          0  iACCESS:          0  iHIT:          0  iMISS:          0  dACCESS:          0  dHIT:          0  dMISS:          0  itACCESS:          0  itHIT:          0  itMISS:          0  dtACCESS:          0  dtHIT:          0  dtMISS:          0
cpu0_STLB TRANSLATION  ACCESS:          0  HIT:          0  MISS:          0  iACCESS:          0  iHIT:          0  iMISS:          0  dACCESS:          0  dHIT:          0  dMISS:          0  itACCESS:          0  itHIT:          0  itMISS:          0  dtACCESS:          0  dtHIT:          0  dtMISS:          0
cpu0_STLB PREFETCH  REQUESTED:          0  ISSUED:          0  CROSSED:          0  USEFUL:          0  USELESS:          0
cpu0_STLB AVERAGE iMISS LATENCY: 6.39829 cycles
cpu0_STLB AVERAGE dMISS LATENCY: 85.1575 cycles
cpu0_STLB AVERAGE itMISS LATENCY: 0 cycles
cpu0_STLB AVERAGE dtMISS LATENCY: 0 cycles
cpu0_STLB PAGE CROSSINGS (TLB HIT):         0 
cpu0_STLB PAGE CROSSINGS (TLB MISS):         0 
cpu0_STLB AVERAGE MISS LATENCY: 91.5558 cycles
cpu0_L1D TOTAL       ACCESS:   41592059  HIT:   38185291  MISS:    3406768  iACCESS:          0  iHIT:          0  iMISS:          0  dACCESS:   41379622  dHIT:   38171178  dMISS:    3208444  itACCESS:      10227  itHIT:       1156  itMISS:       9071  dtACCESS:     202210  dtHIT:      12957  dtMISS:     189253
cpu0_L1D LOAD         ACCESS:   19035787  HIT:   17571359  MISS:    1464428  iACCESS:          0  iHIT:          0  iMISS:          0  dACCESS:   19035787  dHIT:   17571359  dMISS:    1464428  itACCESS:          0  itHIT:          0  itMISS:          0  dtACCESS:          0  dtHIT:          0  dtMISS:          0
cpu0_L1D RFO          ACCESS:          0  HIT:          0  MISS:          0  iACCESS:          0  iHIT:          0  iMISS:          0  dACCESS:          0  dHIT:          0  dMISS:          0  itACCESS:          0  itHIT:          0  itMISS:          0  dtACCESS:          0  dtHIT:          0  dtMISS:          0
cpu0_L1D PREFETCH     ACCESS:   12162855  HIT:   10847811  MISS:    1315044  iACCESS:          0  iHIT:          0  iMISS:          0  dACCESS:   12162855  dHIT:   10847811  dMISS:    1315044  itACCESS:          0  itHIT:          0  itMISS:          0  dtACCESS:          0  dtHIT:          0  dtMISS:          0
cpu0_L1D WRITE        ACCESS:   10180980  HIT:    9752008  MISS:     428972  iACCESS:          0  iHIT:          0  iMISS:          0  dACCESS:   10180980  dHIT:    9752008  dMISS:     428972  itACCESS:          0  itHIT:          0  itMISS:          0  dtACCESS:          0  dtHIT:          0  dtMISS:          0
cpu0_L1D TRANSLATION  ACCESS:     212437  HIT:      14113  MISS:     198324  iACCESS:          0  iHIT:          0  iMISS:          0  dACCESS:          0  dHIT:          0  dMISS:          0  itACCESS:      10227  itHIT:       1156  itMISS:       9071  dtACCESS:     202210  dtHIT:      12957  dtMISS:     189253
cpu0_L1D PREFETCH  REQUESTED:   19035787  ISSUED:   17005770  CROSSED:          0  USEFUL:     303176  USELESS:     690787
cpu0_L1D AVERAGE iMISS LATENCY: 0 cycles
cpu0_L1D AVERAGE dMISS LATENCY: 29.6943 cycles
cpu0_L1D AVERAGE itMISS LATENCY: 0.24737 cycles
cpu0_L1D AVERAGE dtMISS LATENCY: 2.831 cycles
cpu0_L1D PAGE CROSSINGS (TLB HIT):         0 
cpu0_L1D PAGE CROSSINGS (TLB MISS):         0 
cpu0_L1D AVERAGE MISS LATENCY: 32.7727 cycles
cpu0_L2C TOTAL       ACCESS:    6870608  HIT:    2567381  MISS:    4303227  iACCESS:    3256460  iHIT:    1427217  iMISS:    1829243  dACCESS:    3421938  dHIT:    1010266  dMISS:    2411672  itACCESS:       9071  itHIT:       3117  itMISS:       5954  dtACCESS:     183139  dtHIT:     126781  dtMISS:      56358
cpu0_L2C LOAD         ACCESS:    1697909  HIT:     559569  MISS:    1138340  iACCESS:     778810  iHIT:     314225  iMISS:     464585  dACCESS:     919099  dHIT:     245344  dMISS:     673755  itACCESS:          0  itHIT:          0  itMISS:          0  dtACCESS:          0  dtHIT:          0  dtMISS:          0
cpu0_L2C RFO          ACCESS:     155767  HIT:      34485  MISS:     121282  iACCESS:          0  iHIT:          0  iMISS:          0  dACCESS:     155767  dHIT:      34485  dMISS:     121282  itACCESS:          0  itHIT:          0  itMISS:          0  dtACCESS:          0  dtHIT:          0  dtMISS:          0
cpu0_L2C PREFETCH     ACCESS:    4543198  HIT:    1715188  MISS:    2828010  iACCESS:    2477650  iHIT:    1112992  iMISS:    1364658  dACCESS:    2065548  dHIT:     602196  dMISS:    1463352  itACCESS:          0  itHIT:          0  itMISS:          0  dtACCESS:          0  dtHIT:          0  dtMISS:          0
cpu0_L2C WRITE        ACCESS:     281524  HIT:     128241  MISS:     153283  iACCESS:          0  iHIT:          0  iMISS:          0  dACCESS:     281524  dHIT:     128241  dMISS:     153283  itACCESS:          0  itHIT:          0  itMISS:          0  dtACCESS:          0  dtHIT:          0  dtMISS:          0
cpu0_L2C TRANSLATION  ACCESS:     192210  HIT:     129898  MISS:      62312  iACCESS:          0  iHIT:          0  iMISS:          0  dACCESS:          0  dHIT:          0  dMISS:          0  itACCESS:       9071  itHIT:       3117  itMISS:       5954  dtACCESS:     183139  dtHIT:     126781  dtMISS:      56358
cpu0_L2C PREFETCH  REQUESTED:    1319599  ISSUED:    1319599  CROSSED:          0  USEFUL:     347237  USELESS:     316293
cpu0_L2C AVERAGE iMISS LATENCY: 13.8715 cycles
cpu0_L2C AVERAGE dMISS LATENCY: 25.7685 cycles
cpu0_L2C AVERAGE itMISS LATENCY: 0.175432 cycles
cpu0_L2C AVERAGE dtMISS LATENCY: 1.84284 cycles
cpu0_L2C PAGE CROSSINGS (TLB HIT):         0 
cpu0_L2C PAGE CROSSINGS (TLB MISS):         0 
cpu0_L2C AVERAGE MISS LATENCY: 41.6583 cycles
LLC TOTAL       ACCESS:    4262349  HIT:    3637271  MISS:     625078  iACCESS:    1788140  iHIT:    1623410  iMISS:     164730  dACCESS:    2411897  dHIT:    1994685  dMISS:     417212  itACCESS:       5954  itHIT:       2337  itMISS:       3617  dtACCESS:      56358  dtHIT:      16839  dtMISS:      39519
LLC LOAD         ACCESS:    1136560  HIT:     993521  MISS:     143039  iACCESS:     463403  iHIT:     427823  iMISS:      35580  dACCESS:     673157  dHIT:     565698  dMISS:     107459  itACCESS:          0  itHIT:          0  itMISS:          0  dtACCESS:          0  dtHIT:          0  dtMISS:          0
LLC RFO          ACCESS:     121277  HIT:      89506  MISS:      31771  iACCESS:          0  iHIT:          0  iMISS:          0  dACCESS:     121277  dHIT:      89506  dMISS:      31771  itACCESS:          0  itHIT:          0  itMISS:          0  dtACCESS:          0  dtHIT:          0  dtMISS:          0
LLC PREFETCH     ACCESS:    2745383  HIT:    2340151  MISS:     405232  iACCESS:    1324737  iHIT:    1195587  iMISS:     129150  dACCESS:    1420646  dHIT:    1144564  dMISS:     276082  itACCESS:          0  itHIT:          0  itMISS:          0  dtACCESS:          0  dtHIT:          0  dtMISS:          0
LLC WRITE        ACCESS:     196817  HIT:     194917  MISS:       1900  iACCESS:          0  iHIT:          0  iMISS:          0  dACCESS:     196817  dHIT:     194917  dMISS:       1900  itACCESS:          0  itHIT:          0  itMISS:          0  dtACCESS:          0  dtHIT:          0  dtMISS:          0
LLC TRANSLATION  ACCESS:      62312  HIT:      19176  MISS:      43136  iACCESS:          0  iHIT:          0  iMISS:          0  dACCESS:          0  dHIT:          0  dMISS:          0  itACCESS:       5954  itHIT:       2337  itMISS:       3617  dtACCESS:      56358  dtHIT:      16839  dtMISS:      39519
LLC PREFETCH  REQUESTED:          0  ISSUED:          0  CROSSED:          0  USEFUL:          0  USELESS:          0
LLC AVERAGE iMISS LATENCY: 40.3543 cycles
LLC AVERAGE dMISS LATENCY: 109.024 cycles
LLC AVERAGE itMISS LATENCY: 1.02141 cycles
LLC AVERAGE dtMISS LATENCY: 10.9147 cycles
LLC PAGE CROSSINGS (TLB HIT):         0 
LLC PAGE CROSSINGS (TLB MISS):         0 
LLC AVERAGE MISS LATENCY: 161.314 cycles

PageTableWalker TOTAL       ACCESS:      72262  
PageTableWalker AVERAGE LATENCY: 4.86691 cycles
PageTableWalker TOTAL LATENCY: 351692 cycles

DRAM Statistics
Channel 0
 RQ ROW_BUFFER_HIT:     151769
  ROW_BUFFER_MISS:     471328
 AVG DBUS CONGESTED CYCLE:    3.63943
 WQ ROW_BUFFER_HIT:      15675
  ROW_BUFFER_MISS:      27360  FULL:          0

