last_page:0x200000000000000
VMEM_RES_CAP:0x100000
PAGE_SIZE:4096
LOG2_PAGE_SIZE:12
LOG2_PAGE_TABLE_SIZE:9
page_table_levels:5
WARNING: physical memory size is smaller than virtual memory size
FDiP enabled with aggresivity 16

*** ChampSim Multicore Out-of-Order Simulator ***

Warmup Instructions: 50000000
Simulation Instructions: 100000000
Number of CPUs: 1
Small page size: 4096
Large page size: 2097152

CPU 0 Bimodal branch predictor
Basic BTB sets: 1024 ways: 8 indirect buffer size: 4096 RAS size: 64
Instruction page size distrubution: 0
Loading instruction page size distribution from /home/bsc/bsc018186/scratch/itp_asplos25_AE/dump/srv147_ap.pdst
Data page size distrubution: 0
Loading data page size distribution from /home/bsc/bsc018186/scratch/itp_asplos25_AE/dump/srv147_ap.pdst
cpu0_L2C IP-based stride prefetcher
cpu0_L1D next line prefetcher
CHiRPing...
cpu0_L1I next line prefetcher
Off-chip DRAM Size: 4 GiB Channels: 1 Width: 64-bit Data Rate: 3200 MT/s
Heartbeat CPU 0 instructions: 10000003 cycles: 2500174 heartbeat IPC: 3.99973 cumulative IPC: 3.99973 (Simulation time: 0 hr 0 min 38 sec) 
Heartbeat CPU 0 instructions: 20000000 cycles: 5000174 heartbeat IPC: 4 cumulative IPC: 3.99987 (Simulation time: 0 hr 1 min 18 sec) 
Heartbeat CPU 0 instructions: 30000000 cycles: 7500174 heartbeat IPC: 4 cumulative IPC: 3.99991 (Simulation time: 0 hr 1 min 59 sec) 
Heartbeat CPU 0 instructions: 40000002 cycles: 10000192 heartbeat IPC: 3.99998 cumulative IPC: 3.99993 (Simulation time: 0 hr 2 min 41 sec) 
Heartbeat CPU 0 instructions: 50000002 cycles: 12844513 heartbeat IPC: 3.51578 cumulative IPC: 3.89272 (Simulation time: 0 hr 3 min 23 sec) 
Warmup finished CPU 0 instructions: 50000002 cycles: 12844514 cumulative IPC: 3.89272 (Simulation time: 0 hr 3 min 23 sec) 

Warmup complete CPU 0 instructions: 50000002 cycles: 12844514 (Simulation time: 0 hr 3 min 23 sec) 

Heartbeat CPU 0 instructions: 60000001 cycles: 23670206 heartbeat IPC: 0.923729 cumulative IPC: 0.923729 (Simulation time: 0 hr 4 min 25 sec) 
Heartbeat CPU 0 instructions: 70000002 cycles: 37587165 heartbeat IPC: 0.718548 cumulative IPC: 0.808321 (Simulation time: 0 hr 5 min 31 sec) 
Heartbeat CPU 0 instructions: 80000002 cycles: 52151018 heartbeat IPC: 0.686632 cumulative IPC: 0.763233 (Simulation time: 0 hr 6 min 38 sec) 
Heartbeat CPU 0 instructions: 90000001 cycles: 66837768 heartbeat IPC: 0.680886 cumulative IPC: 0.740834 (Simulation time: 0 hr 7 min 45 sec) 
Heartbeat CPU 0 instructions: 100000000 cycles: 81348635 heartbeat IPC: 0.689139 cumulative IPC: 0.729884 (Simulation time: 0 hr 8 min 52 sec) 
*** Reached end of trace: /gpfs/projects/bsc18/MN4/bsc18/romol/ChampSim/traces/qualcomm_srv/srv147_ap.champsimtrace.xz
Heartbeat CPU 0 instructions: 110000000 cycles: 95420303 heartbeat IPC: 0.710648 cumulative IPC: 0.726606 (Simulation time: 0 hr 9 min 59 sec) 
Heartbeat CPU 0 instructions: 120000001 cycles: 109142518 heartbeat IPC: 0.728746 cumulative IPC: 0.726911 (Simulation time: 0 hr 11 min 4 sec) 
Heartbeat CPU 0 instructions: 130000001 cycles: 122264780 heartbeat IPC: 0.762064 cumulative IPC: 0.731126 (Simulation time: 0 hr 12 min 9 sec) 
Heartbeat CPU 0 instructions: 140000002 cycles: 135949103 heartbeat IPC: 0.730764 cumulative IPC: 0.731086 (Simulation time: 0 hr 13 min 14 sec) 
Heartbeat CPU 0 instructions: 150000003 cycles: 147161316 heartbeat IPC: 0.891885 cumulative IPC: 0.744509 (Simulation time: 0 hr 14 min 17 sec) 
Simulation finished CPU 0 instructions: 100000001 cycles: 134316803 cumulative IPC: 0.744509 (Simulation time: 0 hr 14 min 17 sec) 

Simulation complete CPU 0 instructions: 100000001 cycles: 134316803 (Simulation time: 0 hr 14 min 17 sec) 


ChampSim completed all CPUs

Saving instructions large page distribution to /home/bsc/bsc018186/scratch/itp_asplos25_AE/dump/srv147_ap.pdst...
Saving data large page distribution to /home/bsc/bsc018186/scratch/itp_asplos25_AE/dump/srv147_ap.pdst...
=== Simulation ===
CPU 0 runs /gpfs/projects/bsc18/MN4/bsc18/romol/ChampSim/traces/qualcomm_srv/srv147_ap.champsimtrace.xz

Region of Interest Statistics

CPU 0 cumulative IPC: 0.744509 instructions: 100000001 cycles: 134316803
CPU 0 Branch Prediction Accuracy: 84.8416% MPKI: 28.5957 Average ROB Occupancy at Mispredict: 13.3334
Branch type MPKI
BRANCH_DIRECT_JUMP: 0.94834
BRANCH_INDIRECT: 14.7217
BRANCH_CONDITIONAL: 9.43381
BRANCH_DIRECT_CALL: 1.71992
BRANCH_INDIRECT_CALL: 0.53337
BRANCH_RETURN: 1.23848

Instructions large pages: 0
Instructions small pages: 10728
Large page distribution for instructions: 0%

Data large pages: 0
Data small pages: 9646
Large page distribution for data: 0%

cpu0_L1I TOTAL       ACCESS:   34904108  HIT:   27248238  MISS:    7655870  iACCESS:   34904108  iHIT:   27248238  iMISS:    7655870  dACCESS:          0  dHIT:          0  dMISS:          0  itACCESS:          0  itHIT:          0  itMISS:          0  dtACCESS:          0  dtHIT:          0  dtMISS:          0
cpu0_L1I LOAD         ACCESS:    9644290  HIT:    7505682  MISS:    2138608  iACCESS:    9644290  iHIT:    7505682  iMISS:    2138608  dACCESS:          0  dHIT:          0  dMISS:          0  itACCESS:          0  itHIT:          0  itMISS:          0  dtACCESS:          0  dtHIT:          0  dtMISS:          0
cpu0_L1I RFO          ACCESS:          0  HIT:          0  MISS:          0  iACCESS:          0  iHIT:          0  iMISS:          0  dACCESS:          0  dHIT:          0  dMISS:          0  itACCESS:          0  itHIT:          0  itMISS:          0  dtACCESS:          0  dtHIT:          0  dtMISS:          0
cpu0_L1I PREFETCH     ACCESS:   25259818  HIT:   19742556  MISS:    5517262  iACCESS:   25259818  iHIT:   19742556  iMISS:    5517262  dACCESS:          0  dHIT:          0  dMISS:          0  itACCESS:          0  itHIT:          0  itMISS:          0  dtACCESS:          0  dtHIT:          0  dtMISS:          0
cpu0_L1I WRITE        ACCESS:          0  HIT:          0  MISS:          0  iACCESS:          0  iHIT:          0  iMISS:          0  dACCESS:          0  dHIT:          0  dMISS:          0  itACCESS:          0  itHIT:          0  itMISS:          0  dtACCESS:          0  dtHIT:          0  dtMISS:          0
cpu0_L1I TRANSLATION  ACCESS:          0  HIT:          0  MISS:          0  iACCESS:          0  iHIT:          0  iMISS:          0  dACCESS:          0  dHIT:          0  dMISS:          0  itACCESS:          0  itHIT:          0  itMISS:          0  dtACCESS:          0  dtHIT:          0  dtMISS:          0
cpu0_L1I PREFETCH  REQUESTED:   27400257  ISSUED:   27399373  CROSSED:          0  USEFUL:    1778293  USELESS:     576362
cpu0_L1I AVERAGE iMISS LATENCY: 13.0139 cycles
cpu0_L1I AVERAGE dMISS LATENCY: 0 cycles
cpu0_L1I AVERAGE itMISS LATENCY: 0 cycles
cpu0_L1I AVERAGE dtMISS LATENCY: 0 cycles
cpu0_L1I PAGE CROSSINGS (TLB HIT):         0 
cpu0_L1I PAGE CROSSINGS (TLB MISS):         0 
cpu0_L1I AVERAGE MISS LATENCY: 13.0139 cycles
cpu0_ITLB TOTAL       ACCESS:   28953010  HIT:   27179631  MISS:    1773379  iACCESS:   28953010  iHIT:   27179631  iMISS:    1773379  dACCESS:          0  dHIT:          0  dMISS:          0  itACCESS:          0  itHIT:          0  itMISS:          0  dtACCESS:          0  dtHIT:          0  dtMISS:          0
cpu0_ITLB LOAD         ACCESS:   28953010  HIT:   27179631  MISS:    1773379  iACCESS:   28953010  iHIT:   27179631  iMISS:    1773379  dACCESS:          0  dHIT:          0  dMISS:          0  itACCESS:          0  itHIT:          0  itMISS:          0  dtACCESS:          0  dtHIT:          0  dtMISS:          0
cpu0_ITLB RFO          ACCESS:          0  HIT:          0  MISS:          0  iACCESS:          0  iHIT:          0  iMISS:          0  dACCESS:          0  dHIT:          0  dMISS:          0  itACCESS:          0  itHIT:          0  itMISS:          0  dtACCESS:          0  dtHIT:          0  dtMISS:          0
cpu0_ITLB PREFETCH     ACCESS:          0  HIT:          0  MISS:          0  iACCESS:          0  iHIT:          0  iMISS:          0  dACCESS:          0  dHIT:          0  dMISS:          0  itACCESS:          0  itHIT:          0  itMISS:          0  dtACCESS:          0  dtHIT:          0  dtMISS:          0
cpu0_ITLB WRITE        ACCESS:          0  HIT:          0  MISS:          0  iACCESS:          0  iHIT:          0  iMISS:          0  dACCESS:          0  dHIT:          0  dMISS:          0  itACCESS:          0  itHIT:          0  itMISS:          0  dtACCESS:          0  dtHIT:          0  dtMISS:          0
cpu0_ITLB TRANSLATION  ACCESS:          0  HIT:          0  MISS:          0  iACCESS:          0  iHIT:          0  iMISS:          0  dACCESS:          0  dHIT:          0  dMISS:          0  itACCESS:          0  itHIT:          0  itMISS:          0  dtACCESS:          0  dtHIT:          0  dtMISS:          0
cpu0_ITLB PREFETCH  REQUESTED:          0  ISSUED:          0  CROSSED:          0  USEFUL:     290427  USELESS:      58620
cpu0_ITLB AVERAGE iMISS LATENCY: 3.29716 cycles
cpu0_ITLB AVERAGE dMISS LATENCY: 0 cycles
cpu0_ITLB AVERAGE itMISS LATENCY: 0 cycles
cpu0_ITLB AVERAGE dtMISS LATENCY: 0 cycles
cpu0_ITLB PAGE CROSSINGS (TLB HIT):         0 
cpu0_ITLB PAGE CROSSINGS (TLB MISS):         0 
cpu0_ITLB AVERAGE MISS LATENCY: 3.29716 cycles
cpu0_DTLB TOTAL       ACCESS:   29059512  HIT:   25454527  MISS:    3604985  iACCESS:          0  iHIT:          0  iMISS:          0  dACCESS:   29059512  dHIT:   25454527  dMISS:    3604985  itACCESS:          0  itHIT:          0  itMISS:          0  dtACCESS:          0  dtHIT:          0  dtMISS:          0
cpu0_DTLB LOAD         ACCESS:   29059512  HIT:   25454527  MISS:    3604985  iACCESS:          0  iHIT:          0  iMISS:          0  dACCESS:   29059512  dHIT:   25454527  dMISS:    3604985  itACCESS:          0  itHIT:          0  itMISS:          0  dtACCESS:          0  dtHIT:          0  dtMISS:          0
cpu0_DTLB RFO          ACCESS:          0  HIT:          0  MISS:          0  iACCESS:          0  iHIT:          0  iMISS:          0  dACCESS:          0  dHIT:          0  dMISS:          0  itACCESS:          0  itHIT:          0  itMISS:          0  dtACCESS:          0  dtHIT:          0  dtMISS:          0
cpu0_DTLB PREFETCH     ACCESS:          0  HIT:          0  MISS:          0  iACCESS:          0  iHIT:          0  iMISS:          0  dACCESS:          0  dHIT:          0  dMISS:          0  itACCESS:          0  itHIT:          0  itMISS:          0  dtACCESS:          0  dtHIT:          0  dtMISS:          0
cpu0_DTLB WRITE        ACCESS:          0  HIT:          0  MISS:          0  iACCESS:          0  iHIT:          0  iMISS:          0  dACCESS:          0  dHIT:          0  dMISS:          0  itACCESS:          0  itHIT:          0  itMISS:          0  dtACCESS:          0  dtHIT:          0  dtMISS:          0
cpu0_DTLB TRANSLATION  ACCESS:          0  HIT:          0  MISS:          0  iACCESS:          0  iHIT:          0  iMISS:          0  dACCESS:          0  dHIT:          0  dMISS:          0  itACCESS:          0  itHIT:          0  itMISS:          0  dtACCESS:          0  dtHIT:          0  dtMISS:          0
cpu0_DTLB PREFETCH  REQUESTED:          0  ISSUED:          0  CROSSED:          0  USEFUL:          0  USELESS:          0
cpu0_DTLB AVERAGE iMISS LATENCY: 0 cycles
cpu0_DTLB AVERAGE dMISS LATENCY: 7.23974 cycles
cpu0_DTLB AVERAGE itMISS LATENCY: 0 cycles
cpu0_DTLB AVERAGE dtMISS LATENCY: 0 cycles
cpu0_DTLB PAGE CROSSINGS (TLB HIT):         0 
cpu0_DTLB PAGE CROSSINGS (TLB MISS):         0 
cpu0_DTLB AVERAGE MISS LATENCY: 7.23974 cycles
cpu0_STLB TOTAL       ACCESS:    2279720  HIT:    2126333  MISS:     153387  iACCESS:     349051  iHIT:     296221  iMISS:      52830  dACCESS:    1930669  dHIT:    1830112  dMISS:     100557  itACCESS:          0  itHIT:          0  itMISS:          0  dtACCESS:          0  dtHIT:          0  dtMISS:          0
cpu0_STLB LOAD         ACCESS:    2279720  HIT:    2126333  MISS:     153387  iACCESS:     349051  iHIT:     296221  iMISS:      52830  dACCESS:    1930669  dHIT:    1830112  dMISS:     100557  itACCESS:          0  itHIT:          0  itMISS:          0  dtACCESS:          0  dtHIT:          0  dtMISS:          0
cpu0_STLB RFO          ACCESS:          0  HIT:          0  MISS:          0  iACCESS:          0  iHIT:          0  iMISS:          0  dACCESS:          0  dHIT:          0  dMISS:          0  itACCESS:          0  itHIT:          0  itMISS:          0  dtACCESS:          0  dtHIT:          0  dtMISS:          0
cpu0_STLB PREFETCH     ACCESS:          0  HIT:          0  MISS:          0  iACCESS:          0  iHIT:          0  iMISS:          0  dACCESS:          0  dHIT:          0  dMISS:          0  itACCESS:          0  itHIT:          0  itMISS:          0  dtACCESS:          0  dtHIT:          0  dtMISS:          0
cpu0_STLB WRITE        ACCESS:          0  HIT:          0  MISS:          0  iACCESS:          0  iHIT:          0  iMISS:          0  dACCESS:          0  dHIT:          0  dMISS:          0  itACCESS:          0  itHIT:          0  itMISS:          0  dtACCESS:          0  dtHIT:          0  dtMISS:          0
cpu0_STLB TRANSLATION  ACCESS:          0  HIT:          0  MISS:          0  iACCESS:          0  iHIT:          0  iMISS:          0  dACCESS:          0  dHIT:          0  dMISS:          0  itACCESS:          0  itHIT:          0  itMISS:          0  dtACCESS:          0  dtHIT:          0  dtMISS:          0
cpu0_STLB PREFETCH  REQUESTED:          0  ISSUED:          0  CROSSED:          0  USEFUL:          0  USELESS:          0
cpu0_STLB AVERAGE iMISS LATENCY: 20.1609 cycles
cpu0_STLB AVERAGE dMISS LATENCY: 68.9188 cycles
cpu0_STLB AVERAGE itMISS LATENCY: 0 cycles
cpu0_STLB AVERAGE dtMISS LATENCY: 0 cycles
cpu0_STLB PAGE CROSSINGS (TLB HIT):         0 
cpu0_STLB PAGE CROSSINGS (TLB MISS):         0 
cpu0_STLB AVERAGE MISS LATENCY: 89.0797 cycles
cpu0_L1D TOTAL       ACCESS:   43732591  HIT:   38393479  MISS:    5339112  iACCESS:          0  iHIT:          0  iMISS:          0  dACCESS:   43522999  dHIT:   38375410  dMISS:    5147589  itACCESS:      57248  itHIT:       8159  itMISS:      49089  dtACCESS:     152344  dtHIT:       9910  dtMISS:     142434
cpu0_L1D LOAD         ACCESS:   20966373  HIT:   18008493  MISS:    2957880  iACCESS:          0  iHIT:          0  iMISS:          0  dACCESS:   20966373  dHIT:   18008493  dMISS:    2957880  itACCESS:          0  itHIT:          0  itMISS:          0  dtACCESS:          0  dtHIT:          0  dtMISS:          0
cpu0_L1D RFO          ACCESS:          0  HIT:          0  MISS:          0  iACCESS:          0  iHIT:          0  iMISS:          0  dACCESS:          0  dHIT:          0  dMISS:          0  itACCESS:          0  itHIT:          0  itMISS:          0  dtACCESS:          0  dtHIT:          0  dtMISS:          0
cpu0_L1D PREFETCH     ACCESS:   12675940  HIT:   10901162  MISS:    1774778  iACCESS:          0  iHIT:          0  iMISS:          0  dACCESS:   12675940  dHIT:   10901162  dMISS:    1774778  itACCESS:          0  itHIT:          0  itMISS:          0  dtACCESS:          0  dtHIT:          0  dtMISS:          0
cpu0_L1D WRITE        ACCESS:    9880686  HIT:    9465755  MISS:     414931  iACCESS:          0  iHIT:          0  iMISS:          0  dACCESS:    9880686  dHIT:    9465755  dMISS:     414931  itACCESS:          0  itHIT:          0  itMISS:          0  dtACCESS:          0  dtHIT:          0  dtMISS:          0
cpu0_L1D TRANSLATION  ACCESS:     209592  HIT:      18069  MISS:     191523  iACCESS:          0  iHIT:          0  iMISS:          0  dACCESS:          0  dHIT:          0  dMISS:          0  itACCESS:      57248  itHIT:       8159  itMISS:      49089  dtACCESS:     152344  dtHIT:       9910  dtMISS:     142434
cpu0_L1D PREFETCH  REQUESTED:   20966373  ISSUED:   17009705  CROSSED:          0  USEFUL:     280833  USELESS:     705864
cpu0_L1D AVERAGE iMISS LATENCY: 0 cycles
cpu0_L1D AVERAGE dMISS LATENCY: 24.401 cycles
cpu0_L1D AVERAGE itMISS LATENCY: 0.48958 cycles
cpu0_L1D AVERAGE dtMISS LATENCY: 1.53536 cycles
cpu0_L1D PAGE CROSSINGS (TLB HIT):         0 
cpu0_L1D PAGE CROSSINGS (TLB MISS):         0 
cpu0_L1D AVERAGE MISS LATENCY: 26.4259 cycles
cpu0_L2C TOTAL       ACCESS:    7602787  HIT:    2152428  MISS:    5450359  iACCESS:    3031459  iHIT:     802189  iMISS:    2229270  dACCESS:    4389884  dHIT:    1249775  dMISS:    3140109  itACCESS:      49089  itHIT:      32550  itMISS:      16539  dtACCESS:     132355  dtHIT:      67914  dtMISS:      64441
cpu0_L2C LOAD         ACCESS:    2658791  HIT:     822082  MISS:    1836709  iACCESS:     712042  iHIT:     136833  iMISS:     575209  dACCESS:    1946749  dHIT:     685249  dMISS:    1261500  itACCESS:          0  itHIT:          0  itMISS:          0  dtACCESS:          0  dtHIT:          0  dtMISS:          0
cpu0_L2C RFO          ACCESS:     162766  HIT:      53902  MISS:     108864  iACCESS:          0  iHIT:          0  iMISS:          0  dACCESS:     162766  dHIT:      53902  dMISS:     108864  itACCESS:          0  itHIT:          0  itMISS:          0  dtACCESS:          0  dtHIT:          0  dtMISS:          0
cpu0_L2C PREFETCH     ACCESS:    4341381  HIT:    1054599  MISS:    3286782  iACCESS:    2319417  iHIT:     665356  iMISS:    1654061  dACCESS:    2021964  dHIT:     389243  dMISS:    1632721  itACCESS:          0  itHIT:          0  itMISS:          0  dtACCESS:          0  dtHIT:          0  dtMISS:          0
cpu0_L2C WRITE        ACCESS:     258405  HIT:     121381  MISS:     137024  iACCESS:          0  iHIT:          0  iMISS:          0  dACCESS:     258405  dHIT:     121381  dMISS:     137024  itACCESS:          0  itHIT:          0  itMISS:          0  dtACCESS:          0  dtHIT:          0  dtMISS:          0
cpu0_L2C TRANSLATION  ACCESS:     181444  HIT:     100464  MISS:      80980  iACCESS:          0  iHIT:          0  iMISS:          0  dACCESS:          0  dHIT:          0  dMISS:          0  itACCESS:      49089  itHIT:      32550  itMISS:      16539  dtACCESS:     132355  dtHIT:      67914  dtMISS:      64441
cpu0_L2C PREFETCH  REQUESTED:    1274061  ISSUED:    1274061  CROSSED:          0  USEFUL:     379390  USELESS:     338351
cpu0_L2C AVERAGE iMISS LATENCY: 13.0542 cycles
cpu0_L2C AVERAGE dMISS LATENCY: 24.528 cycles
cpu0_L2C AVERAGE itMISS LATENCY: 0.395275 cycles
cpu0_L2C AVERAGE dtMISS LATENCY: 1.27213 cycles
cpu0_L2C PAGE CROSSINGS (TLB HIT):         0 
cpu0_L2C PAGE CROSSINGS (TLB MISS):         0 
cpu0_L2C AVERAGE MISS LATENCY: 39.2496 cycles
LLC TOTAL       ACCESS:    5342301  HIT:    4625136  MISS:     717165  iACCESS:    2183038  iHIT:    1985410  iMISS:     197628  dACCESS:    3078283  dHIT:    2601311  dMISS:     476972  itACCESS:      16539  itHIT:       5850  itMISS:      10689  dtACCESS:      64441  dtHIT:      32565  dtMISS:      31876
LLC LOAD         ACCESS:    1834489  HIT:    1669550  MISS:     164939  iACCESS:     574010  iHIT:     530740  iMISS:      43270  dACCESS:    1260479  dHIT:    1138810  dMISS:     121669  itACCESS:          0  itHIT:          0  itMISS:          0  dtACCESS:          0  dtHIT:          0  dtMISS:          0
LLC RFO          ACCESS:     108857  HIT:      76226  MISS:      32631  iACCESS:          0  iHIT:          0  iMISS:          0  dACCESS:     108857  dHIT:      76226  dMISS:      32631  itACCESS:          0  itHIT:          0  itMISS:          0  dtACCESS:          0  dtHIT:          0  dtMISS:          0
LLC PREFETCH     ACCESS:    3189463  HIT:    2720849  MISS:     468614  iACCESS:    1609028  iHIT:    1454670  iMISS:     154358  dACCESS:    1580435  dHIT:    1266179  dMISS:     314256  itACCESS:          0  itHIT:          0  itMISS:          0  dtACCESS:          0  dtHIT:          0  dtMISS:          0
LLC WRITE        ACCESS:     128512  HIT:     120096  MISS:       8416  iACCESS:          0  iHIT:          0  iMISS:          0  dACCESS:     128512  dHIT:     120096  dMISS:       8416  itACCESS:          0  itHIT:          0  itMISS:          0  dtACCESS:          0  dtHIT:          0  dtMISS:          0
LLC TRANSLATION  ACCESS:      80980  HIT:      38415  MISS:      42565  iACCESS:          0  iHIT:          0  iMISS:          0  dACCESS:          0  dHIT:          0  dMISS:          0  itACCESS:      16539  itHIT:       5850  itMISS:      10689  dtACCESS:      64441  dtHIT:      32565  dtMISS:      31876
LLC PREFETCH  REQUESTED:          0  ISSUED:          0  CROSSED:          0  USEFUL:          0  USELESS:          0
LLC AVERAGE iMISS LATENCY: 40.511 cycles
LLC AVERAGE dMISS LATENCY: 106.922 cycles
LLC AVERAGE itMISS LATENCY: 2.55189 cycles
LLC AVERAGE dtMISS LATENCY: 7.91762 cycles
LLC PAGE CROSSINGS (TLB HIT):         0 
LLC PAGE CROSSINGS (TLB MISS):         0 
LLC AVERAGE MISS LATENCY: 157.903 cycles

PageTableWalker TOTAL       ACCESS:      72965  
PageTableWalker AVERAGE LATENCY: 4.53981 cycles
PageTableWalker TOTAL LATENCY: 331247 cycles

DRAM Statistics
Channel 0
 RQ ROW_BUFFER_HIT:     192192
  ROW_BUFFER_MISS:     515831
 AVG DBUS CONGESTED CYCLE:    3.63475
 WQ ROW_BUFFER_HIT:      13998
  ROW_BUFFER_MISS:      20071  FULL:          0

