last_page:0x200000000000000
VMEM_RES_CAP:0x100000
PAGE_SIZE:4096
LOG2_PAGE_SIZE:12
LOG2_PAGE_TABLE_SIZE:9
page_table_levels:5
WARNING: physical memory size is smaller than virtual memory size
FDiP enabled with aggresivity 16

*** ChampSim Multicore Out-of-Order Simulator ***

Warmup Instructions: 50000000
Simulation Instructions: 100000000
Number of CPUs: 1
Small page size: 4096
Large page size: 2097152

CPU 0 Bimodal branch predictor
Basic BTB sets: 1024 ways: 8 indirect buffer size: 4096 RAS size: 64
Instruction page size distrubution: 0
Loading instruction page size distribution from /home/bsc/bsc018186/scratch/itp_asplos25_AE/dump/srv194_ap.pdst
Data page size distrubution: 0
Loading data page size distribution from /home/bsc/bsc018186/scratch/itp_asplos25_AE/dump/srv194_ap.pdst
cpu0_L2C IP-based stride prefetcher
cpu0_L1D next line prefetcher
cpu0_STLB using iTP with max lru@8
cpu0_STLB using iTP with instr@0 and data@2
Init sat counter with 3 bits (max:50).
cpu0_L1I next line prefetcher
Off-chip DRAM Size: 4 GiB Channels: 1 Width: 64-bit Data Rate: 3200 MT/s
Heartbeat CPU 0 instructions: 10000003 cycles: 2500166 heartbeat IPC: 3.99974 cumulative IPC: 3.99974 (Simulation time: 0 hr 0 min 38 sec) 
Heartbeat CPU 0 instructions: 20000001 cycles: 5001563 heartbeat IPC: 3.99777 cumulative IPC: 3.99876 (Simulation time: 0 hr 1 min 18 sec) 
Heartbeat CPU 0 instructions: 30000000 cycles: 7883824 heartbeat IPC: 3.4695 cumulative IPC: 3.80526 (Simulation time: 0 hr 1 min 59 sec) 
Heartbeat CPU 0 instructions: 40000002 cycles: 10539851 heartbeat IPC: 3.76503 cumulative IPC: 3.79513 (Simulation time: 0 hr 2 min 40 sec) 
Heartbeat CPU 0 instructions: 50000001 cycles: 13039979 heartbeat IPC: 3.9998 cumulative IPC: 3.83437 (Simulation time: 0 hr 3 min 21 sec) 
Warmup finished CPU 0 instructions: 50000001 cycles: 13039980 cumulative IPC: 3.83437 (Simulation time: 0 hr 3 min 21 sec) 

Warmup complete CPU 0 instructions: 50000001 cycles: 13039980 (Simulation time: 0 hr 3 min 21 sec) 

Heartbeat CPU 0 instructions: 60000002 cycles: 33113069 heartbeat IPC: 0.49818 cumulative IPC: 0.49818 (Simulation time: 0 hr 4 min 35 sec) 
Heartbeat CPU 0 instructions: 70000001 cycles: 53778836 heartbeat IPC: 0.483892 cumulative IPC: 0.490932 (Simulation time: 0 hr 5 min 47 sec) 
Heartbeat CPU 0 instructions: 80000003 cycles: 69019402 heartbeat IPC: 0.656144 cumulative IPC: 0.535912 (Simulation time: 0 hr 6 min 55 sec) 
Heartbeat CPU 0 instructions: 90000001 cycles: 79290924 heartbeat IPC: 0.973566 cumulative IPC: 0.603765 (Simulation time: 0 hr 7 min 53 sec) 
Heartbeat CPU 0 instructions: 100000002 cycles: 99222954 heartbeat IPC: 0.501706 cumulative IPC: 0.580162 (Simulation time: 0 hr 9 min 4 sec) 
*** Reached end of trace: /gpfs/projects/bsc18/MN4/bsc18/romol/ChampSim/traces/qualcomm_srv/srv194_ap.champsimtrace.xz
Heartbeat CPU 0 instructions: 110000004 cycles: 119595175 heartbeat IPC: 0.490865 cumulative IPC: 0.563089 (Simulation time: 0 hr 10 min 15 sec) 
Heartbeat CPU 0 instructions: 120000000 cycles: 139583466 heartbeat IPC: 0.500293 cumulative IPC: 0.55317 (Simulation time: 0 hr 11 min 27 sec) 
Heartbeat CPU 0 instructions: 130000001 cycles: 151075660 heartbeat IPC: 0.870156 cumulative IPC: 0.579561 (Simulation time: 0 hr 12 min 26 sec) 
Heartbeat CPU 0 instructions: 140000001 cycles: 163101117 heartbeat IPC: 0.83157 cumulative IPC: 0.599756 (Simulation time: 0 hr 13 min 28 sec) 
Heartbeat CPU 0 instructions: 150000003 cycles: 183939157 heartbeat IPC: 0.479892 cumulative IPC: 0.585141 (Simulation time: 0 hr 14 min 41 sec) 
Simulation finished CPU 0 instructions: 100000002 cycles: 170899178 cumulative IPC: 0.585141 (Simulation time: 0 hr 14 min 41 sec) 

Simulation complete CPU 0 instructions: 100000002 cycles: 170899178 (Simulation time: 0 hr 14 min 41 sec) 


ChampSim completed all CPUs

Saving instructions large page distribution to /home/bsc/bsc018186/scratch/itp_asplos25_AE/dump/srv194_ap.pdst...
Saving data large page distribution to /home/bsc/bsc018186/scratch/itp_asplos25_AE/dump/srv194_ap.pdst...
=== Simulation ===
CPU 0 runs /gpfs/projects/bsc18/MN4/bsc18/romol/ChampSim/traces/qualcomm_srv/srv194_ap.champsimtrace.xz

Region of Interest Statistics

CPU 0 cumulative IPC: 0.585141 instructions: 100000002 cycles: 170899178
CPU 0 Branch Prediction Accuracy: 84.5002% MPKI: 31.9989 Average ROB Occupancy at Mispredict: 12.4056
Branch type MPKI
BRANCH_DIRECT_JUMP: 1.09386
BRANCH_INDIRECT: 16.0702
BRANCH_CONDITIONAL: 10.3626
BRANCH_DIRECT_CALL: 2.0325
BRANCH_INDIRECT_CALL: 1.02917
BRANCH_RETURN: 1.41063

Instructions large pages: 0
Instructions small pages: 1703
Large page distribution for instructions: 0%

Data large pages: 0
Data small pages: 5948
Large page distribution for data: 0%

cpu0_L1I TOTAL       ACCESS:   33044479  HIT:   26424801  MISS:    6619678  iACCESS:   33044479  iHIT:   26424801  iMISS:    6619678  dACCESS:          0  dHIT:          0  dMISS:          0  itACCESS:          0  itHIT:          0  itMISS:          0  dtACCESS:          0  dtHIT:          0  dtMISS:          0
cpu0_L1I LOAD         ACCESS:    7646330  HIT:    5814274  MISS:    1832056  iACCESS:    7646330  iHIT:    5814274  iMISS:    1832056  dACCESS:          0  dHIT:          0  dMISS:          0  itACCESS:          0  itHIT:          0  itMISS:          0  dtACCESS:          0  dtHIT:          0  dtMISS:          0
cpu0_L1I RFO          ACCESS:          0  HIT:          0  MISS:          0  iACCESS:          0  iHIT:          0  iMISS:          0  dACCESS:          0  dHIT:          0  dMISS:          0  itACCESS:          0  itHIT:          0  itMISS:          0  dtACCESS:          0  dtHIT:          0  dtMISS:          0
cpu0_L1I PREFETCH     ACCESS:   25398149  HIT:   20610527  MISS:    4787622  iACCESS:   25398149  iHIT:   20610527  iMISS:    4787622  dACCESS:          0  dHIT:          0  dMISS:          0  itACCESS:          0  itHIT:          0  itMISS:          0  dtACCESS:          0  dtHIT:          0  dtMISS:          0
cpu0_L1I WRITE        ACCESS:          0  HIT:          0  MISS:          0  iACCESS:          0  iHIT:          0  iMISS:          0  dACCESS:          0  dHIT:          0  dMISS:          0  itACCESS:          0  itHIT:          0  itMISS:          0  dtACCESS:          0  dtHIT:          0  dtMISS:          0
cpu0_L1I TRANSLATION  ACCESS:          0  HIT:          0  MISS:          0  iACCESS:          0  iHIT:          0  iMISS:          0  dACCESS:          0  dHIT:          0  dMISS:          0  itACCESS:          0  itHIT:          0  itMISS:          0  dtACCESS:          0  dtHIT:          0  dtMISS:          0
cpu0_L1I PREFETCH  REQUESTED:   26830443  ISSUED:   26829851  CROSSED:          0  USEFUL:    1533066  USELESS:     556833
cpu0_L1I AVERAGE iMISS LATENCY: 20.2199 cycles
cpu0_L1I AVERAGE dMISS LATENCY: 0 cycles
cpu0_L1I AVERAGE itMISS LATENCY: 0 cycles
cpu0_L1I AVERAGE dtMISS LATENCY: 0 cycles
cpu0_L1I PAGE CROSSINGS (TLB HIT):         0 
cpu0_L1I PAGE CROSSINGS (TLB MISS):         0 
cpu0_L1I AVERAGE MISS LATENCY: 20.2199 cycles
cpu0_ITLB TOTAL       ACCESS:   28089071  HIT:   26571181  MISS:    1517890  iACCESS:   28089071  iHIT:   26571181  iMISS:    1517890  dACCESS:          0  dHIT:          0  dMISS:          0  itACCESS:          0  itHIT:          0  itMISS:          0  dtACCESS:          0  dtHIT:          0  dtMISS:          0
cpu0_ITLB LOAD         ACCESS:   28089071  HIT:   26571181  MISS:    1517890  iACCESS:   28089071  iHIT:   26571181  iMISS:    1517890  dACCESS:          0  dHIT:          0  dMISS:          0  itACCESS:          0  itHIT:          0  itMISS:          0  dtACCESS:          0  dtHIT:          0  dtMISS:          0
cpu0_ITLB RFO          ACCESS:          0  HIT:          0  MISS:          0  iACCESS:          0  iHIT:          0  iMISS:          0  dACCESS:          0  dHIT:          0  dMISS:          0  itACCESS:          0  itHIT:          0  itMISS:          0  dtACCESS:          0  dtHIT:          0  dtMISS:          0
cpu0_ITLB PREFETCH     ACCESS:          0  HIT:          0  MISS:          0  iACCESS:          0  iHIT:          0  iMISS:          0  dACCESS:          0  dHIT:          0  dMISS:          0  itACCESS:          0  itHIT:          0  itMISS:          0  dtACCESS:          0  dtHIT:          0  dtMISS:          0
cpu0_ITLB WRITE        ACCESS:          0  HIT:          0  MISS:          0  iACCESS:          0  iHIT:          0  iMISS:          0  dACCESS:          0  dHIT:          0  dMISS:          0  itACCESS:          0  itHIT:          0  itMISS:          0  dtACCESS:          0  dtHIT:          0  dtMISS:          0
cpu0_ITLB TRANSLATION  ACCESS:          0  HIT:          0  MISS:          0  iACCESS:          0  iHIT:          0  iMISS:          0  dACCESS:          0  dHIT:          0  dMISS:          0  itACCESS:          0  itHIT:          0  itMISS:          0  dtACCESS:          0  dtHIT:          0  dtMISS:          0
cpu0_ITLB PREFETCH  REQUESTED:          0  ISSUED:          0  CROSSED:          0  USEFUL:     263678  USELESS:      53677
cpu0_ITLB AVERAGE iMISS LATENCY: 3.59377 cycles
cpu0_ITLB AVERAGE dMISS LATENCY: 0 cycles
cpu0_ITLB AVERAGE itMISS LATENCY: 0 cycles
cpu0_ITLB AVERAGE dtMISS LATENCY: 0 cycles
cpu0_ITLB PAGE CROSSINGS (TLB HIT):         0 
cpu0_ITLB PAGE CROSSINGS (TLB MISS):         0 
cpu0_ITLB AVERAGE MISS LATENCY: 3.59377 cycles
cpu0_DTLB TOTAL       ACCESS:   31802852  HIT:   25929047  MISS:    5873805  iACCESS:          0  iHIT:          0  iMISS:          0  dACCESS:   31802852  dHIT:   25929047  dMISS:    5873805  itACCESS:          0  itHIT:          0  itMISS:          0  dtACCESS:          0  dtHIT:          0  dtMISS:          0
cpu0_DTLB LOAD         ACCESS:   31802852  HIT:   25929047  MISS:    5873805  iACCESS:          0  iHIT:          0  iMISS:          0  dACCESS:   31802852  dHIT:   25929047  dMISS:    5873805  itACCESS:          0  itHIT:          0  itMISS:          0  dtACCESS:          0  dtHIT:          0  dtMISS:          0
cpu0_DTLB RFO          ACCESS:          0  HIT:          0  MISS:          0  iACCESS:          0  iHIT:          0  iMISS:          0  dACCESS:          0  dHIT:          0  dMISS:          0  itACCESS:          0  itHIT:          0  itMISS:          0  dtACCESS:          0  dtHIT:          0  dtMISS:          0
cpu0_DTLB PREFETCH     ACCESS:          0  HIT:          0  MISS:          0  iACCESS:          0  iHIT:          0  iMISS:          0  dACCESS:          0  dHIT:          0  dMISS:          0  itACCESS:          0  itHIT:          0  itMISS:          0  dtACCESS:          0  dtHIT:          0  dtMISS:          0
cpu0_DTLB WRITE        ACCESS:          0  HIT:          0  MISS:          0  iACCESS:          0  iHIT:          0  iMISS:          0  dACCESS:          0  dHIT:          0  dMISS:          0  itACCESS:          0  itHIT:          0  itMISS:          0  dtACCESS:          0  dtHIT:          0  dtMISS:          0
cpu0_DTLB TRANSLATION  ACCESS:          0  HIT:          0  MISS:          0  iACCESS:          0  iHIT:          0  iMISS:          0  dACCESS:          0  dHIT:          0  dMISS:          0  itACCESS:          0  itHIT:          0  itMISS:          0  dtACCESS:          0  dtHIT:          0  dtMISS:          0
cpu0_DTLB PREFETCH  REQUESTED:          0  ISSUED:          0  CROSSED:          0  USEFUL:          0  USELESS:          0
cpu0_DTLB AVERAGE iMISS LATENCY: 0 cycles
cpu0_DTLB AVERAGE dMISS LATENCY: 6.73089 cycles
cpu0_DTLB AVERAGE itMISS LATENCY: 0 cycles
cpu0_DTLB AVERAGE dtMISS LATENCY: 0 cycles
cpu0_DTLB PAGE CROSSINGS (TLB HIT):         0 
cpu0_DTLB PAGE CROSSINGS (TLB MISS):         0 
cpu0_DTLB AVERAGE MISS LATENCY: 6.73089 cycles
cpu0_STLB TOTAL       ACCESS:    3315513  HIT:    3135582  MISS:     179931  iACCESS:     317361  iHIT:     286266  iMISS:      31095  dACCESS:    2998152  dHIT:    2849316  dMISS:     148836  itACCESS:          0  itHIT:          0  itMISS:          0  dtACCESS:          0  dtHIT:          0  dtMISS:          0
cpu0_STLB LOAD         ACCESS:    3315513  HIT:    3135582  MISS:     179931  iACCESS:     317361  iHIT:     286266  iMISS:      31095  dACCESS:    2998152  dHIT:    2849316  dMISS:     148836  itACCESS:          0  itHIT:          0  itMISS:          0  dtACCESS:          0  dtHIT:          0  dtMISS:          0
cpu0_STLB RFO          ACCESS:          0  HIT:          0  MISS:          0  iACCESS:          0  iHIT:          0  iMISS:          0  dACCESS:          0  dHIT:          0  dMISS:          0  itACCESS:          0  itHIT:          0  itMISS:          0  dtACCESS:          0  dtHIT:          0  dtMISS:          0
cpu0_STLB PREFETCH     ACCESS:          0  HIT:          0  MISS:          0  iACCESS:          0  iHIT:          0  iMISS:          0  dACCESS:          0  dHIT:          0  dMISS:          0  itACCESS:          0  itHIT:          0  itMISS:          0  dtACCESS:          0  dtHIT:          0  dtMISS:          0
cpu0_STLB WRITE        ACCESS:          0  HIT:          0  MISS:          0  iACCESS:          0  iHIT:          0  iMISS:          0  dACCESS:          0  dHIT:          0  dMISS:          0  itACCESS:          0  itHIT:          0  itMISS:          0  dtACCESS:          0  dtHIT:          0  dtMISS:          0
cpu0_STLB TRANSLATION  ACCESS:          0  HIT:          0  MISS:          0  iACCESS:          0  iHIT:          0  iMISS:          0  dACCESS:          0  dHIT:          0  dMISS:          0  itACCESS:          0  itHIT:          0  itMISS:          0  dtACCESS:          0  dtHIT:          0  dtMISS:          0
cpu0_STLB PREFETCH  REQUESTED:          0  ISSUED:          0  CROSSED:          0  USEFUL:          0  USELESS:          0
cpu0_STLB AVERAGE iMISS LATENCY: 16.4983 cycles
cpu0_STLB AVERAGE dMISS LATENCY: 84.3514 cycles
cpu0_STLB AVERAGE itMISS LATENCY: 0 cycles
cpu0_STLB AVERAGE dtMISS LATENCY: 0 cycles
cpu0_STLB PAGE CROSSINGS (TLB HIT):         0 
cpu0_STLB PAGE CROSSINGS (TLB MISS):         0 
cpu0_STLB AVERAGE MISS LATENCY: 100.85 cycles
cpu0_L1D TOTAL       ACCESS:   50037449  HIT:   40396639  MISS:    9640810  iACCESS:          0  iHIT:          0  iMISS:          0  dACCESS:   49788618  dHIT:   40380125  dMISS:    9408493  itACCESS:      36260  itHIT:       3550  itMISS:      32710  dtACCESS:     212571  dtHIT:      12964  dtMISS:     199607
cpu0_L1D LOAD         ACCESS:   25022176  HIT:   19182260  MISS:    5839916  iACCESS:          0  iHIT:          0  iMISS:          0  dACCESS:   25022176  dHIT:   19182260  dMISS:    5839916  itACCESS:          0  itHIT:          0  itMISS:          0  dtACCESS:          0  dtHIT:          0  dtMISS:          0
cpu0_L1D RFO          ACCESS:          0  HIT:          0  MISS:          0  iACCESS:          0  iHIT:          0  iMISS:          0  dACCESS:          0  dHIT:          0  dMISS:          0  itACCESS:          0  itHIT:          0  itMISS:          0  dtACCESS:          0  dtHIT:          0  dtMISS:          0
cpu0_L1D PREFETCH     ACCESS:   15110525  HIT:   12049062  MISS:    3061463  iACCESS:          0  iHIT:          0  iMISS:          0  dACCESS:   15110525  dHIT:   12049062  dMISS:    3061463  itACCESS:          0  itHIT:          0  itMISS:          0  dtACCESS:          0  dtHIT:          0  dtMISS:          0
cpu0_L1D WRITE        ACCESS:    9655917  HIT:    9148803  MISS:     507114  iACCESS:          0  iHIT:          0  iMISS:          0  dACCESS:    9655917  dHIT:    9148803  dMISS:     507114  itACCESS:          0  itHIT:          0  itMISS:          0  dtACCESS:          0  dtHIT:          0  dtMISS:          0
cpu0_L1D TRANSLATION  ACCESS:     248831  HIT:      16514  MISS:     232317  iACCESS:          0  iHIT:          0  iMISS:          0  dACCESS:          0  dHIT:          0  dMISS:          0  itACCESS:      36260  itHIT:       3550  itMISS:      32710  dtACCESS:     212571  dtHIT:      12964  dtMISS:     199607
cpu0_L1D PREFETCH  REQUESTED:   25022176  ISSUED:   18453106  CROSSED:          0  USEFUL:     239491  USELESS:     725950
cpu0_L1D AVERAGE iMISS LATENCY: 0 cycles
cpu0_L1D AVERAGE dMISS LATENCY: 21.886 cycles
cpu0_L1D AVERAGE itMISS LATENCY: 0.274909 cycles
cpu0_L1D AVERAGE dtMISS LATENCY: 1.36125 cycles
cpu0_L1D PAGE CROSSINGS (TLB HIT):         0 
cpu0_L1D PAGE CROSSINGS (TLB MISS):         0 
cpu0_L1D AVERAGE MISS LATENCY: 23.5222 cycles
cpu0_L2C TOTAL       ACCESS:    8771843  HIT:    2665898  MISS:    6105945  iACCESS:    2686080  iHIT:     627539  iMISS:    2058541  dACCESS:    5868846  dHIT:    1925113  dMISS:    3943733  itACCESS:      31202  itHIT:      15307  itMISS:      15895  dtACCESS:     185715  dtHIT:      97939  dtMISS:      87776
cpu0_L2C LOAD         ACCESS:    4205100  HIT:    1520621  MISS:    2684479  iACCESS:     620534  iHIT:     108554  iMISS:     511980  dACCESS:    3584566  dHIT:    1412067  dMISS:    2172499  itACCESS:          0  itHIT:          0  itMISS:          0  dtACCESS:          0  dtHIT:          0  dtMISS:          0
cpu0_L2C RFO          ACCESS:     181238  HIT:      63075  MISS:     118163  iACCESS:          0  iHIT:          0  iMISS:          0  dACCESS:     181238  dHIT:      63075  dMISS:     118163  itACCESS:          0  itHIT:          0  itMISS:          0  dtACCESS:          0  dtHIT:          0  dtMISS:          0
cpu0_L2C PREFETCH     ACCESS:    3955878  HIT:     880108  MISS:    3075770  iACCESS:    2065546  iHIT:     518985  iMISS:    1546561  dACCESS:    1890332  dHIT:     361123  dMISS:    1529209  itACCESS:          0  itHIT:          0  itMISS:          0  dtACCESS:          0  dtHIT:          0  dtMISS:          0
cpu0_L2C WRITE        ACCESS:     212710  HIT:      88848  MISS:     123862  iACCESS:          0  iHIT:          0  iMISS:          0  dACCESS:     212710  dHIT:      88848  dMISS:     123862  itACCESS:          0  itHIT:          0  itMISS:          0  dtACCESS:          0  dtHIT:          0  dtMISS:          0
cpu0_L2C TRANSLATION  ACCESS:     216917  HIT:     113246  MISS:     103671  iACCESS:          0  iHIT:          0  iMISS:          0  dACCESS:          0  dHIT:          0  dMISS:          0  itACCESS:      31202  itHIT:      15307  itMISS:      15895  dtACCESS:     185715  dtHIT:      97939  dtMISS:      87776
cpu0_L2C PREFETCH  REQUESTED:    1093677  ISSUED:    1093632  CROSSED:          0  USEFUL:     282086  USELESS:     341291
cpu0_L2C AVERAGE iMISS LATENCY: 18.0323 cycles
cpu0_L2C AVERAGE dMISS LATENCY: 35.2998 cycles
cpu0_L2C AVERAGE itMISS LATENCY: 0.385341 cycles
cpu0_L2C AVERAGE dtMISS LATENCY: 1.85986 cycles
cpu0_L2C PAGE CROSSINGS (TLB HIT):         0 
cpu0_L2C PAGE CROSSINGS (TLB MISS):         0 
cpu0_L2C AVERAGE MISS LATENCY: 55.5773 cycles
LLC TOTAL       ACCESS:    5964240  HIT:    4564778  MISS:    1399462  iACCESS:    2002211  iHIT:    1523241  iMISS:     478970  dACCESS:    3858358  dHIT:    3001036  dMISS:     857322  itACCESS:      15895  itHIT:       4283  itMISS:      11612  dtACCESS:      87776  dtHIT:      36218  dtMISS:      51558
LLC LOAD         ACCESS:    2679117  HIT:    2358593  MISS:     320524  iACCESS:     510981  iHIT:     414575  iMISS:      96406  dACCESS:    2168136  dHIT:    1944018  dMISS:     224118  itACCESS:          0  itHIT:          0  itMISS:          0  dtACCESS:          0  dtHIT:          0  dtMISS:          0
LLC RFO          ACCESS:     118156  HIT:      56198  MISS:      61958  iACCESS:          0  iHIT:          0  iMISS:          0  dACCESS:     118156  dHIT:      56198  dMISS:      61958  itACCESS:          0  itHIT:          0  itMISS:          0  dtACCESS:          0  dtHIT:          0  dtMISS:          0
LLC PREFETCH     ACCESS:    2938741  HIT:    1994726  MISS:     944015  iACCESS:    1491230  iHIT:    1108666  iMISS:     382564  dACCESS:    1447511  dHIT:     886060  dMISS:     561451  itACCESS:          0  itHIT:          0  itMISS:          0  dtACCESS:          0  dtHIT:          0  dtMISS:          0
LLC WRITE        ACCESS:     124555  HIT:     114760  MISS:       9795  iACCESS:          0  iHIT:          0  iMISS:          0  dACCESS:     124555  dHIT:     114760  dMISS:       9795  itACCESS:          0  itHIT:          0  itMISS:          0  dtACCESS:          0  dtHIT:          0  dtMISS:          0
LLC TRANSLATION  ACCESS:     103671  HIT:      40501  MISS:      63170  iACCESS:          0  iHIT:          0  iMISS:          0  dACCESS:          0  dHIT:          0  dMISS:          0  itACCESS:      15895  itHIT:       4283  itMISS:      11612  dtACCESS:      87776  dtHIT:      36218  dtMISS:      51558
LLC PREFETCH  REQUESTED:          0  ISSUED:          0  CROSSED:          0  USEFUL:          0  USELESS:          0
LLC AVERAGE iMISS LATENCY: 50.9564 cycles
LLC AVERAGE dMISS LATENCY: 102.998 cycles
LLC AVERAGE itMISS LATENCY: 1.45783 cycles
LLC AVERAGE dtMISS LATENCY: 6.88818 cycles
LLC PAGE CROSSINGS (TLB HIT):         0 
LLC PAGE CROSSINGS (TLB MISS):         0 
LLC AVERAGE MISS LATENCY: 162.301 cycles

PageTableWalker TOTAL       ACCESS:      88207  
PageTableWalker AVERAGE LATENCY: 4.7177 cycles
PageTableWalker TOTAL LATENCY: 416134 cycles

DRAM Statistics
Channel 0
 RQ ROW_BUFFER_HIT:     393864
  ROW_BUFFER_MISS:     985863
 AVG DBUS CONGESTED CYCLE:    3.64605
 WQ ROW_BUFFER_HIT:      28376
  ROW_BUFFER_MISS:      24109  FULL:          0

