last_page:0x200000000000000
VMEM_RES_CAP:0x100000
PAGE_SIZE:4096
LOG2_PAGE_SIZE:12
LOG2_PAGE_TABLE_SIZE:9
page_table_levels:5
WARNING: physical memory size is smaller than virtual memory size
FDiP enabled with aggresivity 16

*** ChampSim Multicore Out-of-Order Simulator ***

Warmup Instructions: 50000000
Simulation Instructions: 100000000
Number of CPUs: 1
Small page size: 4096
Large page size: 2097152

CPU 0 Bimodal branch predictor
Basic BTB sets: 1024 ways: 8 indirect buffer size: 4096 RAS size: 64
Instruction page size distrubution: 0
Loading instruction page size distribution from /home/bsc/bsc018186/scratch/itp_asplos25_AE/dump/srv162_ap.pdst
Data page size distrubution: 0
Loading data page size distribution from /home/bsc/bsc018186/scratch/itp_asplos25_AE/dump/srv162_ap.pdst
cpu0_L2C IP-based stride prefetcher
cpu0_L2C is using PTP replacement policy:
	TLB_STRESS_THRESHOLD:0
	PTE_EVICTION_RATIO:0
cpu0_L1D next line prefetcher
cpu0_L1I next line prefetcher
Off-chip DRAM Size: 4 GiB Channels: 1 Width: 64-bit Data Rate: 3200 MT/s
Heartbeat CPU 0 instructions: 10000001 cycles: 2500125 heartbeat IPC: 3.99981 cumulative IPC: 3.99981 (Simulation time: 0 hr 0 min 39 sec) 
Heartbeat CPU 0 instructions: 20000000 cycles: 5001719 heartbeat IPC: 3.99746 cumulative IPC: 3.99863 (Simulation time: 0 hr 1 min 20 sec) 
Heartbeat CPU 0 instructions: 30000003 cycles: 7501758 heartbeat IPC: 3.99994 cumulative IPC: 3.99907 (Simulation time: 0 hr 2 min 2 sec) 
Heartbeat CPU 0 instructions: 40000000 cycles: 10001758 heartbeat IPC: 4 cumulative IPC: 3.9993 (Simulation time: 0 hr 2 min 44 sec) 
Heartbeat CPU 0 instructions: 50000003 cycles: 12501818 heartbeat IPC: 3.99991 cumulative IPC: 3.99942 (Simulation time: 0 hr 3 min 27 sec) 
Warmup finished CPU 0 instructions: 50000003 cycles: 12501819 cumulative IPC: 3.99942 (Simulation time: 0 hr 3 min 27 sec) 

Warmup complete CPU 0 instructions: 50000003 cycles: 12501819 (Simulation time: 0 hr 3 min 27 sec) 

Heartbeat CPU 0 instructions: 60000001 cycles: 26758040 heartbeat IPC: 0.701448 cumulative IPC: 0.701449 (Simulation time: 0 hr 4 min 34 sec) 
Heartbeat CPU 0 instructions: 70000004 cycles: 41064794 heartbeat IPC: 0.698971 cumulative IPC: 0.700208 (Simulation time: 0 hr 5 min 41 sec) 
Heartbeat CPU 0 instructions: 80000003 cycles: 55700709 heartbeat IPC: 0.683251 cumulative IPC: 0.694463 (Simulation time: 0 hr 6 min 50 sec) 
Heartbeat CPU 0 instructions: 90000000 cycles: 69874925 heartbeat IPC: 0.705507 cumulative IPC: 0.697191 (Simulation time: 0 hr 7 min 57 sec) 
Heartbeat CPU 0 instructions: 100000000 cycles: 83893036 heartbeat IPC: 0.713363 cumulative IPC: 0.700367 (Simulation time: 0 hr 9 min 4 sec) 
*** Reached end of trace: /gpfs/projects/bsc18/MN4/bsc18/romol/ChampSim/traces/qualcomm_srv/srv162_ap.champsimtrace.xz
Heartbeat CPU 0 instructions: 110000003 cycles: 97287004 heartbeat IPC: 0.746605 cumulative IPC: 0.707671 (Simulation time: 0 hr 10 min 9 sec) 
Heartbeat CPU 0 instructions: 120000000 cycles: 111765289 heartbeat IPC: 0.69069 cumulative IPC: 0.705194 (Simulation time: 0 hr 11 min 16 sec) 
Heartbeat CPU 0 instructions: 130000001 cycles: 125712446 heartbeat IPC: 0.716993 cumulative IPC: 0.706648 (Simulation time: 0 hr 12 min 22 sec) 
Heartbeat CPU 0 instructions: 140000004 cycles: 139170543 heartbeat IPC: 0.743048 cumulative IPC: 0.710515 (Simulation time: 0 hr 13 min 27 sec) 
Heartbeat CPU 0 instructions: 150000001 cycles: 153705905 heartbeat IPC: 0.687978 cumulative IPC: 0.708195 (Simulation time: 0 hr 14 min 35 sec) 
Simulation finished CPU 0 instructions: 100000000 cycles: 141204088 cumulative IPC: 0.708195 (Simulation time: 0 hr 14 min 35 sec) 

Simulation complete CPU 0 instructions: 100000000 cycles: 141204088 (Simulation time: 0 hr 14 min 35 sec) 


ChampSim completed all CPUs

Saving instructions large page distribution to /home/bsc/bsc018186/scratch/itp_asplos25_AE/dump/srv162_ap.pdst...
Saving data large page distribution to /home/bsc/bsc018186/scratch/itp_asplos25_AE/dump/srv162_ap.pdst...
=== Simulation ===
CPU 0 runs /gpfs/projects/bsc18/MN4/bsc18/romol/ChampSim/traces/qualcomm_srv/srv162_ap.champsimtrace.xz

Region of Interest Statistics

CPU 0 cumulative IPC: 0.708195 instructions: 100000000 cycles: 141204088
CPU 0 Branch Prediction Accuracy: 83.3515% MPKI: 29.89 Average ROB Occupancy at Mispredict: 12.2594
Branch type MPKI
BRANCH_DIRECT_JUMP: 0.958501
BRANCH_INDIRECT: 15.4862
BRANCH_CONDITIONAL: 9.78296
BRANCH_DIRECT_CALL: 1.8333
BRANCH_INDIRECT_CALL: 0.498451
BRANCH_RETURN: 1.33068

Instructions large pages: 0
Instructions small pages: 10372
Large page distribution for instructions: 0%

Data large pages: 0
Data small pages: 9441
Large page distribution for data: 0%

cpu0_L1I TOTAL       ACCESS:   35114754  HIT:   26483939  MISS:    8630815  iACCESS:   35114754  iHIT:   26483939  iMISS:    8630815  dACCESS:          0  dHIT:          0  dMISS:          0  itACCESS:          0  itHIT:          0  itMISS:          0  dtACCESS:          0  dtHIT:          0  dtMISS:          0
cpu0_L1I LOAD         ACCESS:   10221608  HIT:    7801298  MISS:    2420310  iACCESS:   10221608  iHIT:    7801298  iMISS:    2420310  dACCESS:          0  dHIT:          0  dMISS:          0  itACCESS:          0  itHIT:          0  itMISS:          0  dtACCESS:          0  dtHIT:          0  dtMISS:          0
cpu0_L1I RFO          ACCESS:          0  HIT:          0  MISS:          0  iACCESS:          0  iHIT:          0  iMISS:          0  dACCESS:          0  dHIT:          0  dMISS:          0  itACCESS:          0  itHIT:          0  itMISS:          0  dtACCESS:          0  dtHIT:          0  dtMISS:          0
cpu0_L1I PREFETCH     ACCESS:   24893146  HIT:   18682641  MISS:    6210505  iACCESS:   24893146  iHIT:   18682641  iMISS:    6210505  dACCESS:          0  dHIT:          0  dMISS:          0  itACCESS:          0  itHIT:          0  itMISS:          0  dtACCESS:          0  dtHIT:          0  dtMISS:          0
cpu0_L1I WRITE        ACCESS:          0  HIT:          0  MISS:          0  iACCESS:          0  iHIT:          0  iMISS:          0  dACCESS:          0  dHIT:          0  dMISS:          0  itACCESS:          0  itHIT:          0  itMISS:          0  dtACCESS:          0  dtHIT:          0  dtMISS:          0
cpu0_L1I TRANSLATION  ACCESS:          0  HIT:          0  MISS:          0  iACCESS:          0  iHIT:          0  iMISS:          0  dACCESS:          0  dHIT:          0  dMISS:          0  itACCESS:          0  itHIT:          0  itMISS:          0  dtACCESS:          0  dtHIT:          0  dtMISS:          0
cpu0_L1I PREFETCH  REQUESTED:   27098680  ISSUED:   27094943  CROSSED:          0  USEFUL:    1940298  USELESS:     637280
cpu0_L1I AVERAGE iMISS LATENCY: 13.8995 cycles
cpu0_L1I AVERAGE dMISS LATENCY: 0 cycles
cpu0_L1I AVERAGE itMISS LATENCY: 0 cycles
cpu0_L1I AVERAGE dtMISS LATENCY: 0 cycles
cpu0_L1I PAGE CROSSINGS (TLB HIT):         0 
cpu0_L1I PAGE CROSSINGS (TLB MISS):         0 
cpu0_L1I AVERAGE MISS LATENCY: 13.8995 cycles
cpu0_ITLB TOTAL       ACCESS:   29035802  HIT:   27038325  MISS:    1997477  iACCESS:   29035802  iHIT:   27038325  iMISS:    1997477  dACCESS:          0  dHIT:          0  dMISS:          0  itACCESS:          0  itHIT:          0  itMISS:          0  dtACCESS:          0  dtHIT:          0  dtMISS:          0
cpu0_ITLB LOAD         ACCESS:   29035802  HIT:   27038325  MISS:    1997477  iACCESS:   29035802  iHIT:   27038325  iMISS:    1997477  dACCESS:          0  dHIT:          0  dMISS:          0  itACCESS:          0  itHIT:          0  itMISS:          0  dtACCESS:          0  dtHIT:          0  dtMISS:          0
cpu0_ITLB RFO          ACCESS:          0  HIT:          0  MISS:          0  iACCESS:          0  iHIT:          0  iMISS:          0  dACCESS:          0  dHIT:          0  dMISS:          0  itACCESS:          0  itHIT:          0  itMISS:          0  dtACCESS:          0  dtHIT:          0  dtMISS:          0
cpu0_ITLB PREFETCH     ACCESS:          0  HIT:          0  MISS:          0  iACCESS:          0  iHIT:          0  iMISS:          0  dACCESS:          0  dHIT:          0  dMISS:          0  itACCESS:          0  itHIT:          0  itMISS:          0  dtACCESS:          0  dtHIT:          0  dtMISS:          0
cpu0_ITLB WRITE        ACCESS:          0  HIT:          0  MISS:          0  iACCESS:          0  iHIT:          0  iMISS:          0  dACCESS:          0  dHIT:          0  dMISS:          0  itACCESS:          0  itHIT:          0  itMISS:          0  dtACCESS:          0  dtHIT:          0  dtMISS:          0
cpu0_ITLB TRANSLATION  ACCESS:          0  HIT:          0  MISS:          0  iACCESS:          0  iHIT:          0  iMISS:          0  dACCESS:          0  dHIT:          0  dMISS:          0  itACCESS:          0  itHIT:          0  itMISS:          0  dtACCESS:          0  dtHIT:          0  dtMISS:          0
cpu0_ITLB PREFETCH  REQUESTED:          0  ISSUED:          0  CROSSED:          0  USEFUL:     326177  USELESS:      62769
cpu0_ITLB AVERAGE iMISS LATENCY: 2.71071 cycles
cpu0_ITLB AVERAGE dMISS LATENCY: 0 cycles
cpu0_ITLB AVERAGE itMISS LATENCY: 0 cycles
cpu0_ITLB AVERAGE dtMISS LATENCY: 0 cycles
cpu0_ITLB PAGE CROSSINGS (TLB HIT):         0 
cpu0_ITLB PAGE CROSSINGS (TLB MISS):         0 
cpu0_ITLB AVERAGE MISS LATENCY: 2.71071 cycles
cpu0_DTLB TOTAL       ACCESS:   27712223  HIT:   25880122  MISS:    1832101  iACCESS:          0  iHIT:          0  iMISS:          0  dACCESS:   27712223  dHIT:   25880122  dMISS:    1832101  itACCESS:          0  itHIT:          0  itMISS:          0  dtACCESS:          0  dtHIT:          0  dtMISS:          0
cpu0_DTLB LOAD         ACCESS:   27712223  HIT:   25880122  MISS:    1832101  iACCESS:          0  iHIT:          0  iMISS:          0  dACCESS:   27712223  dHIT:   25880122  dMISS:    1832101  itACCESS:          0  itHIT:          0  itMISS:          0  dtACCESS:          0  dtHIT:          0  dtMISS:          0
cpu0_DTLB RFO          ACCESS:          0  HIT:          0  MISS:          0  iACCESS:          0  iHIT:          0  iMISS:          0  dACCESS:          0  dHIT:          0  dMISS:          0  itACCESS:          0  itHIT:          0  itMISS:          0  dtACCESS:          0  dtHIT:          0  dtMISS:          0
cpu0_DTLB PREFETCH     ACCESS:          0  HIT:          0  MISS:          0  iACCESS:          0  iHIT:          0  iMISS:          0  dACCESS:          0  dHIT:          0  dMISS:          0  itACCESS:          0  itHIT:          0  itMISS:          0  dtACCESS:          0  dtHIT:          0  dtMISS:          0
cpu0_DTLB WRITE        ACCESS:          0  HIT:          0  MISS:          0  iACCESS:          0  iHIT:          0  iMISS:          0  dACCESS:          0  dHIT:          0  dMISS:          0  itACCESS:          0  itHIT:          0  itMISS:          0  dtACCESS:          0  dtHIT:          0  dtMISS:          0
cpu0_DTLB TRANSLATION  ACCESS:          0  HIT:          0  MISS:          0  iACCESS:          0  iHIT:          0  iMISS:          0  dACCESS:          0  dHIT:          0  dMISS:          0  itACCESS:          0  itHIT:          0  itMISS:          0  dtACCESS:          0  dtHIT:          0  dtMISS:          0
cpu0_DTLB PREFETCH  REQUESTED:          0  ISSUED:          0  CROSSED:          0  USEFUL:          0  USELESS:          0
cpu0_DTLB AVERAGE iMISS LATENCY: 0 cycles
cpu0_DTLB AVERAGE dMISS LATENCY: 9.19642 cycles
cpu0_DTLB AVERAGE itMISS LATENCY: 0 cycles
cpu0_DTLB AVERAGE dtMISS LATENCY: 0 cycles
cpu0_DTLB PAGE CROSSINGS (TLB HIT):         0 
cpu0_DTLB PAGE CROSSINGS (TLB MISS):         0 
cpu0_DTLB AVERAGE MISS LATENCY: 9.19642 cycles
cpu0_STLB TOTAL       ACCESS:    1514872  HIT:    1352063  MISS:     162809  iACCESS:     389104  iHIT:     332071  iMISS:      57033  dACCESS:    1125768  dHIT:    1019992  dMISS:     105776  itACCESS:          0  itHIT:          0  itMISS:          0  dtACCESS:          0  dtHIT:          0  dtMISS:          0
cpu0_STLB LOAD         ACCESS:    1514872  HIT:    1352063  MISS:     162809  iACCESS:     389104  iHIT:     332071  iMISS:      57033  dACCESS:    1125768  dHIT:    1019992  dMISS:     105776  itACCESS:          0  itHIT:          0  itMISS:          0  dtACCESS:          0  dtHIT:          0  dtMISS:          0
cpu0_STLB RFO          ACCESS:          0  HIT:          0  MISS:          0  iACCESS:          0  iHIT:          0  iMISS:          0  dACCESS:          0  dHIT:          0  dMISS:          0  itACCESS:          0  itHIT:          0  itMISS:          0  dtACCESS:          0  dtHIT:          0  dtMISS:          0
cpu0_STLB PREFETCH     ACCESS:          0  HIT:          0  MISS:          0  iACCESS:          0  iHIT:          0  iMISS:          0  dACCESS:          0  dHIT:          0  dMISS:          0  itACCESS:          0  itHIT:          0  itMISS:          0  dtACCESS:          0  dtHIT:          0  dtMISS:          0
cpu0_STLB WRITE        ACCESS:          0  HIT:          0  MISS:          0  iACCESS:          0  iHIT:          0  iMISS:          0  dACCESS:          0  dHIT:          0  dMISS:          0  itACCESS:          0  itHIT:          0  itMISS:          0  dtACCESS:          0  dtHIT:          0  dtMISS:          0
cpu0_STLB TRANSLATION  ACCESS:          0  HIT:          0  MISS:          0  iACCESS:          0  iHIT:          0  iMISS:          0  dACCESS:          0  dHIT:          0  dMISS:          0  itACCESS:          0  itHIT:          0  itMISS:          0  dtACCESS:          0  dtHIT:          0  dtMISS:          0
cpu0_STLB PREFETCH  REQUESTED:          0  ISSUED:          0  CROSSED:          0  USEFUL:          0  USELESS:          0
cpu0_STLB AVERAGE iMISS LATENCY: 14.3966 cycles
cpu0_STLB AVERAGE dMISS LATENCY: 48.3333 cycles
cpu0_STLB AVERAGE itMISS LATENCY: 0 cycles
cpu0_STLB AVERAGE dtMISS LATENCY: 0 cycles
cpu0_STLB PAGE CROSSINGS (TLB HIT):         0 
cpu0_STLB PAGE CROSSINGS (TLB MISS):         0 
cpu0_STLB AVERAGE MISS LATENCY: 62.7299 cycles
cpu0_L1D TOTAL       ACCESS:   41607404  HIT:   37909661  MISS:    3697743  iACCESS:          0  iHIT:          0  iMISS:          0  dACCESS:   41384218  dHIT:   37889899  dMISS:    3494319  itACCESS:      61692  itHIT:       8998  itMISS:      52694  dtACCESS:     161494  dtHIT:      10764  dtMISS:     150730
cpu0_L1D LOAD         ACCESS:   19017088  HIT:   17424192  MISS:    1592896  iACCESS:          0  iHIT:          0  iMISS:          0  dACCESS:   19017088  dHIT:   17424192  dMISS:    1592896  itACCESS:          0  itHIT:          0  itMISS:          0  dtACCESS:          0  dtHIT:          0  dtMISS:          0
cpu0_L1D RFO          ACCESS:          0  HIT:          0  MISS:          0  iACCESS:          0  iHIT:          0  iMISS:          0  dACCESS:          0  dHIT:          0  dMISS:          0  itACCESS:          0  itHIT:          0  itMISS:          0  dtACCESS:          0  dtHIT:          0  dtMISS:          0
cpu0_L1D PREFETCH     ACCESS:   12208763  HIT:   10759227  MISS:    1449536  iACCESS:          0  iHIT:          0  iMISS:          0  dACCESS:   12208763  dHIT:   10759227  dMISS:    1449536  itACCESS:          0  itHIT:          0  itMISS:          0  dtACCESS:          0  dtHIT:          0  dtMISS:          0
cpu0_L1D WRITE        ACCESS:   10158367  HIT:    9706480  MISS:     451887  iACCESS:          0  iHIT:          0  iMISS:          0  dACCESS:   10158367  dHIT:    9706480  dMISS:     451887  itACCESS:          0  itHIT:          0  itMISS:          0  dtACCESS:          0  dtHIT:          0  dtMISS:          0
cpu0_L1D TRANSLATION  ACCESS:     223186  HIT:      19762  MISS:     203424  iACCESS:          0  iHIT:          0  iMISS:          0  dACCESS:          0  dHIT:          0  dMISS:          0  itACCESS:      61692  itHIT:       8998  itMISS:      52694  dtACCESS:     161494  dtHIT:      10764  dtMISS:     150730
cpu0_L1D PREFETCH  REQUESTED:   19017088  ISSUED:   16977539  CROSSED:          0  USEFUL:     311613  USELESS:     710201
cpu0_L1D AVERAGE iMISS LATENCY: 0 cycles
cpu0_L1D AVERAGE dMISS LATENCY: 33.779 cycles
cpu0_L1D AVERAGE itMISS LATENCY: 0.500693 cycles
cpu0_L1D AVERAGE dtMISS LATENCY: 1.50183 cycles
cpu0_L1D PAGE CROSSINGS (TLB HIT):         0 
cpu0_L1D PAGE CROSSINGS (TLB MISS):         0 
cpu0_L1D AVERAGE MISS LATENCY: 35.7816 cycles
cpu0_L2C TOTAL       ACCESS:    7048970  HIT:    1219866  MISS:    5829104  iACCESS:    3332614  iHIT:     690263  iMISS:    2642351  dACCESS:    3524567  dHIT:     378647  dMISS:    3145920  itACCESS:      52694  itHIT:      40795  itMISS:      11899  dtACCESS:     139095  dtHIT:     110161  dtMISS:      28934
cpu0_L2C LOAD         ACCESS:    1740303  HIT:     143403  MISS:    1596900  iACCESS:     794058  iHIT:     101496  iMISS:     692562  dACCESS:     946245  dHIT:      41907  dMISS:     904338  itACCESS:          0  itHIT:          0  itMISS:          0  dtACCESS:          0  dtHIT:          0  dtMISS:          0
cpu0_L2C RFO          ACCESS:     157136  HIT:       7741  MISS:     149395  iACCESS:          0  iHIT:          0  iMISS:          0  dACCESS:     157136  dHIT:       7741  dMISS:     149395  itACCESS:          0  itHIT:          0  itMISS:          0  dtACCESS:          0  dtHIT:          0  dtMISS:          0
cpu0_L2C PREFETCH     ACCESS:    4672358  HIT:     858355  MISS:    3814003  iACCESS:    2538556  iHIT:     588767  iMISS:    1949789  dACCESS:    2133802  dHIT:     269588  dMISS:    1864214  itACCESS:          0  itHIT:          0  itMISS:          0  dtACCESS:          0  dtHIT:          0  dtMISS:          0
cpu0_L2C WRITE        ACCESS:     287384  HIT:      59411  MISS:     227973  iACCESS:          0  iHIT:          0  iMISS:          0  dACCESS:     287384  dHIT:      59411  dMISS:     227973  itACCESS:          0  itHIT:          0  itMISS:          0  dtACCESS:          0  dtHIT:          0  dtMISS:          0
cpu0_L2C TRANSLATION  ACCESS:     191789  HIT:     150956  MISS:      40833  iACCESS:          0  iHIT:          0  iMISS:          0  dACCESS:          0  dHIT:          0  dMISS:          0  itACCESS:      52694  itHIT:      40795  itMISS:      11899  dtACCESS:     139095  dtHIT:     110161  dtMISS:      28934
cpu0_L2C PREFETCH  REQUESTED:    1400693  ISSUED:    1400693  CROSSED:          0  USEFUL:     426446  USELESS:     398231
cpu0_L2C AVERAGE iMISS LATENCY: 15.3145 cycles
cpu0_L2C AVERAGE dMISS LATENCY: 24.6821 cycles
cpu0_L2C AVERAGE itMISS LATENCY: 0.234041 cycles
cpu0_L2C AVERAGE dtMISS LATENCY: 0.731882 cycles
cpu0_L2C PAGE CROSSINGS (TLB HIT):         0 
cpu0_L2C PAGE CROSSINGS (TLB MISS):         0 
cpu0_L2C AVERAGE MISS LATENCY: 40.9624 cycles
LLC TOTAL       ACCESS:    5750426  HIT:    4919962  MISS:     830464  iACCESS:    2585214  iHIT:    2320083  iMISS:     265131  dACCESS:    3124379  dHIT:    2586220  dMISS:     538159  itACCESS:      11899  itHIT:       5286  itMISS:       6613  dtACCESS:      28934  dtHIT:       8373  dtMISS:      20561
LLC LOAD         ACCESS:    1594056  HIT:    1400587  MISS:     193469  iACCESS:     690797  iHIT:     635002  iMISS:      55795  dACCESS:     903259  dHIT:     765585  dMISS:     137674  itACCESS:          0  itHIT:          0  itMISS:          0  dtACCESS:          0  dtHIT:          0  dtMISS:          0
LLC RFO          ACCESS:     149394  HIT:     109704  MISS:      39690  iACCESS:          0  iHIT:          0  iMISS:          0  dACCESS:     149394  dHIT:     109704  dMISS:      39690  itACCESS:          0  itHIT:          0  itMISS:          0  dtACCESS:          0  dtHIT:          0  dtMISS:          0
LLC PREFETCH     ACCESS:    3704715  HIT:    3134585  MISS:     570130  iACCESS:    1894417  iHIT:    1685081  iMISS:     209336  dACCESS:    1810298  dHIT:    1449504  dMISS:     360794  itACCESS:          0  itHIT:          0  itMISS:          0  dtACCESS:          0  dtHIT:          0  dtMISS:          0
LLC WRITE        ACCESS:     261428  HIT:     261427  MISS:          1  iACCESS:          0  iHIT:          0  iMISS:          0  dACCESS:     261428  dHIT:     261427  dMISS:          1  itACCESS:          0  itHIT:          0  itMISS:          0  dtACCESS:          0  dtHIT:          0  dtMISS:          0
LLC TRANSLATION  ACCESS:      40833  HIT:      13659  MISS:      27174  iACCESS:          0  iHIT:          0  iMISS:          0  dACCESS:          0  dHIT:          0  dMISS:          0  itACCESS:      11899  itHIT:       5286  itMISS:       6613  dtACCESS:      28934  dtHIT:       8373  dtMISS:      20561
LLC PREFETCH  REQUESTED:          0  ISSUED:          0  CROSSED:          0  USEFUL:          0  USELESS:          0
LLC AVERAGE iMISS LATENCY: 47.4265 cycles
LLC AVERAGE dMISS LATENCY: 106.803 cycles
LLC AVERAGE itMISS LATENCY: 1.36295 cycles
LLC AVERAGE dtMISS LATENCY: 4.45337 cycles
LLC PAGE CROSSINGS (TLB HIT):         0 
LLC PAGE CROSSINGS (TLB MISS):         0 
LLC AVERAGE MISS LATENCY: 160.046 cycles

PageTableWalker TOTAL       ACCESS:      80923  
PageTableWalker AVERAGE LATENCY: 4.13041 cycles
PageTableWalker TOTAL LATENCY: 334245 cycles

DRAM Statistics
Channel 0
 RQ ROW_BUFFER_HIT:     230657
  ROW_BUFFER_MISS:     599231
 AVG DBUS CONGESTED CYCLE:    3.63718
 WQ ROW_BUFFER_HIT:      21080
  ROW_BUFFER_MISS:      31202  FULL:          0

