last_page:0x200000000000000
VMEM_RES_CAP:0x100000
PAGE_SIZE:4096
LOG2_PAGE_SIZE:12
LOG2_PAGE_TABLE_SIZE:9
page_table_levels:5
WARNING: physical memory size is smaller than virtual memory size
FDiP enabled with aggresivity 16

*** ChampSim Multicore Out-of-Order Simulator ***

Warmup Instructions: 50000000
Simulation Instructions: 100000000
Number of CPUs: 1
Small page size: 4096
Large page size: 2097152

CPU 0 Bimodal branch predictor
Basic BTB sets: 1024 ways: 8 indirect buffer size: 4096 RAS size: 64
Instruction page size distrubution: 0
Loading instruction page size distribution from /home/bsc/bsc018186/scratch/itp_asplos25_AE/dump/srv111_ap.pdst
Data page size distrubution: 0
Loading data page size distribution from /home/bsc/bsc018186/scratch/itp_asplos25_AE/dump/srv111_ap.pdst
cpu0_L2C IP-based stride prefetcher
cpu0_L1D next line prefetcher
CHiRPing...
cpu0_L1I next line prefetcher
Off-chip DRAM Size: 4 GiB Channels: 1 Width: 64-bit Data Rate: 3200 MT/s
Heartbeat CPU 0 instructions: 10000003 cycles: 2500133 heartbeat IPC: 3.99979 cumulative IPC: 3.99979 (Simulation time: 0 hr 0 min 38 sec) 
Heartbeat CPU 0 instructions: 20000001 cycles: 5000150 heartbeat IPC: 3.99998 cumulative IPC: 3.99989 (Simulation time: 0 hr 1 min 19 sec) 
Heartbeat CPU 0 instructions: 30000003 cycles: 7500157 heartbeat IPC: 3.99999 cumulative IPC: 3.99992 (Simulation time: 0 hr 2 min 0 sec) 
Heartbeat CPU 0 instructions: 40000002 cycles: 10000199 heartbeat IPC: 3.99994 cumulative IPC: 3.99993 (Simulation time: 0 hr 2 min 42 sec) 
Heartbeat CPU 0 instructions: 50000001 cycles: 12500230 heartbeat IPC: 3.99996 cumulative IPC: 3.99993 (Simulation time: 0 hr 3 min 23 sec) 
Warmup finished CPU 0 instructions: 50000001 cycles: 12500231 cumulative IPC: 3.99993 (Simulation time: 0 hr 3 min 23 sec) 

Warmup complete CPU 0 instructions: 50000001 cycles: 12500231 (Simulation time: 0 hr 3 min 23 sec) 

Heartbeat CPU 0 instructions: 60000000 cycles: 28262011 heartbeat IPC: 0.634447 cumulative IPC: 0.634447 (Simulation time: 0 hr 4 min 30 sec) 
Heartbeat CPU 0 instructions: 70000002 cycles: 42621904 heartbeat IPC: 0.696385 cumulative IPC: 0.663974 (Simulation time: 0 hr 5 min 35 sec) 
Heartbeat CPU 0 instructions: 80000000 cycles: 56602278 heartbeat IPC: 0.715289 cumulative IPC: 0.680241 (Simulation time: 0 hr 6 min 40 sec) 
Heartbeat CPU 0 instructions: 90000001 cycles: 71233031 heartbeat IPC: 0.683492 cumulative IPC: 0.681051 (Simulation time: 0 hr 7 min 47 sec) 
Heartbeat CPU 0 instructions: 100000001 cycles: 85915992 heartbeat IPC: 0.681062 cumulative IPC: 0.681053 (Simulation time: 0 hr 8 min 55 sec) 
*** Reached end of trace: /gpfs/projects/bsc18/MN4/bsc18/romol/ChampSim/traces/qualcomm_srv/srv111_ap.champsimtrace.xz
Heartbeat CPU 0 instructions: 110000002 cycles: 99774782 heartbeat IPC: 0.721564 cumulative IPC: 0.687486 (Simulation time: 0 hr 10 min 1 sec) 
Heartbeat CPU 0 instructions: 120000001 cycles: 113525872 heartbeat IPC: 0.727216 cumulative IPC: 0.692894 (Simulation time: 0 hr 11 min 7 sec) 
Heartbeat CPU 0 instructions: 130000001 cycles: 127340603 heartbeat IPC: 0.723865 cumulative IPC: 0.69662 (Simulation time: 0 hr 12 min 13 sec) 
Heartbeat CPU 0 instructions: 140000000 cycles: 140981494 heartbeat IPC: 0.73309 cumulative IPC: 0.700492 (Simulation time: 0 hr 13 min 19 sec) 
Heartbeat CPU 0 instructions: 150000000 cycles: 155376896 heartbeat IPC: 0.694667 cumulative IPC: 0.699905 (Simulation time: 0 hr 14 min 26 sec) 
Simulation finished CPU 0 instructions: 100000000 cycles: 142876667 cumulative IPC: 0.699905 (Simulation time: 0 hr 14 min 26 sec) 

Simulation complete CPU 0 instructions: 100000000 cycles: 142876667 (Simulation time: 0 hr 14 min 26 sec) 


ChampSim completed all CPUs

Saving instructions large page distribution to /home/bsc/bsc018186/scratch/itp_asplos25_AE/dump/srv111_ap.pdst...
Saving data large page distribution to /home/bsc/bsc018186/scratch/itp_asplos25_AE/dump/srv111_ap.pdst...
=== Simulation ===
CPU 0 runs /gpfs/projects/bsc18/MN4/bsc18/romol/ChampSim/traces/qualcomm_srv/srv111_ap.champsimtrace.xz

Region of Interest Statistics

CPU 0 cumulative IPC: 0.699905 instructions: 100000000 cycles: 142876667
CPU 0 Branch Prediction Accuracy: 83.2832% MPKI: 29.8625 Average ROB Occupancy at Mispredict: 12.3026
Branch type MPKI
BRANCH_DIRECT_JUMP: 1.03537
BRANCH_INDIRECT: 15.3542
BRANCH_CONDITIONAL: 9.74703
BRANCH_DIRECT_CALL: 1.86593
BRANCH_INDIRECT_CALL: 0.506381
BRANCH_RETURN: 1.35362

Instructions large pages: 0
Instructions small pages: 1032
Large page distribution for instructions: 0%

Data large pages: 0
Data small pages: 10280
Large page distribution for data: 0%

cpu0_L1I TOTAL       ACCESS:   35039503  HIT:   26801642  MISS:    8237861  iACCESS:   35039503  iHIT:   26801642  iMISS:    8237861  dACCESS:          0  dHIT:          0  dMISS:          0  itACCESS:          0  itHIT:          0  itMISS:          0  dtACCESS:          0  dtHIT:          0  dtMISS:          0
cpu0_L1I LOAD         ACCESS:   10278466  HIT:    7972044  MISS:    2306422  iACCESS:   10278466  iHIT:    7972044  iMISS:    2306422  dACCESS:          0  dHIT:          0  dMISS:          0  itACCESS:          0  itHIT:          0  itMISS:          0  dtACCESS:          0  dtHIT:          0  dtMISS:          0
cpu0_L1I RFO          ACCESS:          0  HIT:          0  MISS:          0  iACCESS:          0  iHIT:          0  iMISS:          0  dACCESS:          0  dHIT:          0  dMISS:          0  itACCESS:          0  itHIT:          0  itMISS:          0  dtACCESS:          0  dtHIT:          0  dtMISS:          0
cpu0_L1I PREFETCH     ACCESS:   24761037  HIT:   18829598  MISS:    5931439  iACCESS:   24761037  iHIT:   18829598  iMISS:    5931439  dACCESS:          0  dHIT:          0  dMISS:          0  itACCESS:          0  itHIT:          0  itMISS:          0  dtACCESS:          0  dtHIT:          0  dtMISS:          0
cpu0_L1I WRITE        ACCESS:          0  HIT:          0  MISS:          0  iACCESS:          0  iHIT:          0  iMISS:          0  dACCESS:          0  dHIT:          0  dMISS:          0  itACCESS:          0  itHIT:          0  itMISS:          0  dtACCESS:          0  dtHIT:          0  dtMISS:          0
cpu0_L1I TRANSLATION  ACCESS:          0  HIT:          0  MISS:          0  iACCESS:          0  iHIT:          0  iMISS:          0  dACCESS:          0  dHIT:          0  dMISS:          0  itACCESS:          0  itHIT:          0  itMISS:          0  dtACCESS:          0  dtHIT:          0  dtMISS:          0
cpu0_L1I PREFETCH  REQUESTED:   27128659  ISSUED:   27127070  CROSSED:          0  USEFUL:    1890899  USELESS:     622486
cpu0_L1I AVERAGE iMISS LATENCY: 13.7292 cycles
cpu0_L1I AVERAGE dMISS LATENCY: 0 cycles
cpu0_L1I AVERAGE itMISS LATENCY: 0 cycles
cpu0_L1I AVERAGE dtMISS LATENCY: 0 cycles
cpu0_L1I PAGE CROSSINGS (TLB HIT):         0 
cpu0_L1I PAGE CROSSINGS (TLB MISS):         0 
cpu0_L1I AVERAGE MISS LATENCY: 13.7292 cycles
cpu0_ITLB TOTAL       ACCESS:   29040955  HIT:   27085192  MISS:    1955763  iACCESS:   29040955  iHIT:   27085192  iMISS:    1955763  dACCESS:          0  dHIT:          0  dMISS:          0  itACCESS:          0  itHIT:          0  itMISS:          0  dtACCESS:          0  dtHIT:          0  dtMISS:          0
cpu0_ITLB LOAD         ACCESS:   29040955  HIT:   27085192  MISS:    1955763  iACCESS:   29040955  iHIT:   27085192  iMISS:    1955763  dACCESS:          0  dHIT:          0  dMISS:          0  itACCESS:          0  itHIT:          0  itMISS:          0  dtACCESS:          0  dtHIT:          0  dtMISS:          0
cpu0_ITLB RFO          ACCESS:          0  HIT:          0  MISS:          0  iACCESS:          0  iHIT:          0  iMISS:          0  dACCESS:          0  dHIT:          0  dMISS:          0  itACCESS:          0  itHIT:          0  itMISS:          0  dtACCESS:          0  dtHIT:          0  dtMISS:          0
cpu0_ITLB PREFETCH     ACCESS:          0  HIT:          0  MISS:          0  iACCESS:          0  iHIT:          0  iMISS:          0  dACCESS:          0  dHIT:          0  dMISS:          0  itACCESS:          0  itHIT:          0  itMISS:          0  dtACCESS:          0  dtHIT:          0  dtMISS:          0
cpu0_ITLB WRITE        ACCESS:          0  HIT:          0  MISS:          0  iACCESS:          0  iHIT:          0  iMISS:          0  dACCESS:          0  dHIT:          0  dMISS:          0  itACCESS:          0  itHIT:          0  itMISS:          0  dtACCESS:          0  dtHIT:          0  dtMISS:          0
cpu0_ITLB TRANSLATION  ACCESS:          0  HIT:          0  MISS:          0  iACCESS:          0  iHIT:          0  iMISS:          0  dACCESS:          0  dHIT:          0  dMISS:          0  itACCESS:          0  itHIT:          0  itMISS:          0  dtACCESS:          0  dtHIT:          0  dtMISS:          0
cpu0_ITLB PREFETCH  REQUESTED:          0  ISSUED:          0  CROSSED:          0  USEFUL:     320573  USELESS:      66082
cpu0_ITLB AVERAGE iMISS LATENCY: 3.18555 cycles
cpu0_ITLB AVERAGE dMISS LATENCY: 0 cycles
cpu0_ITLB AVERAGE itMISS LATENCY: 0 cycles
cpu0_ITLB AVERAGE dtMISS LATENCY: 0 cycles
cpu0_ITLB PAGE CROSSINGS (TLB HIT):         0 
cpu0_ITLB PAGE CROSSINGS (TLB MISS):         0 
cpu0_ITLB AVERAGE MISS LATENCY: 3.18555 cycles
cpu0_DTLB TOTAL       ACCESS:   27740860  HIT:   25679553  MISS:    2061307  iACCESS:          0  iHIT:          0  iMISS:          0  dACCESS:   27740860  dHIT:   25679553  dMISS:    2061307  itACCESS:          0  itHIT:          0  itMISS:          0  dtACCESS:          0  dtHIT:          0  dtMISS:          0
cpu0_DTLB LOAD         ACCESS:   27740860  HIT:   25679553  MISS:    2061307  iACCESS:          0  iHIT:          0  iMISS:          0  dACCESS:   27740860  dHIT:   25679553  dMISS:    2061307  itACCESS:          0  itHIT:          0  itMISS:          0  dtACCESS:          0  dtHIT:          0  dtMISS:          0
cpu0_DTLB RFO          ACCESS:          0  HIT:          0  MISS:          0  iACCESS:          0  iHIT:          0  iMISS:          0  dACCESS:          0  dHIT:          0  dMISS:          0  itACCESS:          0  itHIT:          0  itMISS:          0  dtACCESS:          0  dtHIT:          0  dtMISS:          0
cpu0_DTLB PREFETCH     ACCESS:          0  HIT:          0  MISS:          0  iACCESS:          0  iHIT:          0  iMISS:          0  dACCESS:          0  dHIT:          0  dMISS:          0  itACCESS:          0  itHIT:          0  itMISS:          0  dtACCESS:          0  dtHIT:          0  dtMISS:          0
cpu0_DTLB WRITE        ACCESS:          0  HIT:          0  MISS:          0  iACCESS:          0  iHIT:          0  iMISS:          0  dACCESS:          0  dHIT:          0  dMISS:          0  itACCESS:          0  itHIT:          0  itMISS:          0  dtACCESS:          0  dtHIT:          0  dtMISS:          0
cpu0_DTLB TRANSLATION  ACCESS:          0  HIT:          0  MISS:          0  iACCESS:          0  iHIT:          0  iMISS:          0  dACCESS:          0  dHIT:          0  dMISS:          0  itACCESS:          0  itHIT:          0  itMISS:          0  dtACCESS:          0  dtHIT:          0  dtMISS:          0
cpu0_DTLB PREFETCH  REQUESTED:          0  ISSUED:          0  CROSSED:          0  USEFUL:          0  USELESS:          0
cpu0_DTLB AVERAGE iMISS LATENCY: 0 cycles
cpu0_DTLB AVERAGE dMISS LATENCY: 10.3443 cycles
cpu0_DTLB AVERAGE itMISS LATENCY: 0 cycles
cpu0_DTLB AVERAGE dtMISS LATENCY: 0 cycles
cpu0_DTLB PAGE CROSSINGS (TLB HIT):         0 
cpu0_DTLB PAGE CROSSINGS (TLB MISS):         0 
cpu0_DTLB AVERAGE MISS LATENCY: 10.3443 cycles
cpu0_STLB TOTAL       ACCESS:    1608996  HIT:    1432643  MISS:     176353  iACCESS:     386660  iHIT:     322038  iMISS:      64622  dACCESS:    1222336  dHIT:    1110605  dMISS:     111731  itACCESS:          0  itHIT:          0  itMISS:          0  dtACCESS:          0  dtHIT:          0  dtMISS:          0
cpu0_STLB LOAD         ACCESS:    1608996  HIT:    1432643  MISS:     176353  iACCESS:     386660  iHIT:     322038  iMISS:      64622  dACCESS:    1222336  dHIT:    1110605  dMISS:     111731  itACCESS:          0  itHIT:          0  itMISS:          0  dtACCESS:          0  dtHIT:          0  dtMISS:          0
cpu0_STLB RFO          ACCESS:          0  HIT:          0  MISS:          0  iACCESS:          0  iHIT:          0  iMISS:          0  dACCESS:          0  dHIT:          0  dMISS:          0  itACCESS:          0  itHIT:          0  itMISS:          0  dtACCESS:          0  dtHIT:          0  dtMISS:          0
cpu0_STLB PREFETCH     ACCESS:          0  HIT:          0  MISS:          0  iACCESS:          0  iHIT:          0  iMISS:          0  dACCESS:          0  dHIT:          0  dMISS:          0  itACCESS:          0  itHIT:          0  itMISS:          0  dtACCESS:          0  dtHIT:          0  dtMISS:          0
cpu0_STLB WRITE        ACCESS:          0  HIT:          0  MISS:          0  iACCESS:          0  iHIT:          0  iMISS:          0  dACCESS:          0  dHIT:          0  dMISS:          0  itACCESS:          0  itHIT:          0  itMISS:          0  dtACCESS:          0  dtHIT:          0  dtMISS:          0
cpu0_STLB TRANSLATION  ACCESS:          0  HIT:          0  MISS:          0  iACCESS:          0  iHIT:          0  iMISS:          0  dACCESS:          0  dHIT:          0  dMISS:          0  itACCESS:          0  itHIT:          0  itMISS:          0  dtACCESS:          0  dtHIT:          0  dtMISS:          0
cpu0_STLB PREFETCH  REQUESTED:          0  ISSUED:          0  CROSSED:          0  USEFUL:          0  USELESS:          0
cpu0_STLB AVERAGE iMISS LATENCY: 17.9752 cycles
cpu0_STLB AVERAGE dMISS LATENCY: 65.6496 cycles
cpu0_STLB AVERAGE itMISS LATENCY: 0 cycles
cpu0_STLB AVERAGE dtMISS LATENCY: 0 cycles
cpu0_STLB PAGE CROSSINGS (TLB HIT):         0 
cpu0_STLB PAGE CROSSINGS (TLB MISS):         0 
cpu0_STLB AVERAGE MISS LATENCY: 83.6248 cycles
cpu0_L1D TOTAL       ACCESS:   41801859  HIT:   38066492  MISS:    3735367  iACCESS:          0  iHIT:          0  iMISS:          0  dACCESS:   41560078  dHIT:   38044689  dMISS:    3515389  itACCESS:      70149  itHIT:      10329  itMISS:      59820  dtACCESS:     171632  dtHIT:      11474  dtMISS:     160158
cpu0_L1D LOAD         ACCESS:   18960515  HIT:   17465205  MISS:    1495310  iACCESS:          0  iHIT:          0  iMISS:          0  dACCESS:   18960515  dHIT:   17465205  dMISS:    1495310  itACCESS:          0  itHIT:          0  itMISS:          0  dtACCESS:          0  dtHIT:          0  dtMISS:          0
cpu0_L1D RFO          ACCESS:          0  HIT:          0  MISS:          0  iACCESS:          0  iHIT:          0  iMISS:          0  dACCESS:          0  dHIT:          0  dMISS:          0  itACCESS:          0  itHIT:          0  itMISS:          0  dtACCESS:          0  dtHIT:          0  dtMISS:          0
cpu0_L1D PREFETCH     ACCESS:   12214802  HIT:   10850420  MISS:    1364382  iACCESS:          0  iHIT:          0  iMISS:          0  dACCESS:   12214802  dHIT:   10850420  dMISS:    1364382  itACCESS:          0  itHIT:          0  itMISS:          0  dtACCESS:          0  dtHIT:          0  dtMISS:          0
cpu0_L1D WRITE        ACCESS:   10384761  HIT:    9729064  MISS:     655697  iACCESS:          0  iHIT:          0  iMISS:          0  dACCESS:   10384761  dHIT:    9729064  dMISS:     655697  itACCESS:          0  itHIT:          0  itMISS:          0  dtACCESS:          0  dtHIT:          0  dtMISS:          0
cpu0_L1D TRANSLATION  ACCESS:     241781  HIT:      21803  MISS:     219978  iACCESS:          0  iHIT:          0  iMISS:          0  dACCESS:          0  dHIT:          0  dMISS:          0  itACCESS:      70149  itHIT:      10329  itMISS:      59820  dtACCESS:     171632  dtHIT:      11474  dtMISS:     160158
cpu0_L1D PREFETCH  REQUESTED:   18960515  ISSUED:   17061301  CROSSED:          0  USEFUL:     303489  USELESS:     695280
cpu0_L1D AVERAGE iMISS LATENCY: 0 cycles
cpu0_L1D AVERAGE dMISS LATENCY: 32.4866 cycles
cpu0_L1D AVERAGE itMISS LATENCY: 0.699094 cycles
cpu0_L1D AVERAGE dtMISS LATENCY: 2.39677 cycles
cpu0_L1D PAGE CROSSINGS (TLB HIT):         0 
cpu0_L1D PAGE CROSSINGS (TLB MISS):         0 
cpu0_L1D AVERAGE MISS LATENCY: 35.5825 cycles
cpu0_L2C TOTAL       ACCESS:    6934592  HIT:    1680316  MISS:    5254276  iACCESS:    3257705  iHIT:     858237  iMISS:    2399468  dACCESS:    3469822  dHIT:     700535  dMISS:    2769287  itACCESS:      59820  itHIT:      43895  itMISS:      15925  dtACCESS:     147245  dtHIT:      77649  dtMISS:      69596
cpu0_L2C LOAD         ACCESS:    1699730  HIT:     291553  MISS:    1408177  iACCESS:     777762  iHIT:     146801  iMISS:     630961  dACCESS:     921968  dHIT:     144752  dMISS:     777216  itACCESS:          0  itHIT:          0  itMISS:          0  dtACCESS:          0  dtHIT:          0  dtMISS:          0
cpu0_L2C RFO          ACCESS:     172359  HIT:      49523  MISS:     122836  iACCESS:          0  iHIT:          0  iMISS:          0  dACCESS:     172359  dHIT:      49523  dMISS:     122836  itACCESS:          0  itHIT:          0  itMISS:          0  dtACCESS:          0  dtHIT:          0  dtMISS:          0
cpu0_L2C PREFETCH     ACCESS:    4557865  HIT:    1072522  MISS:    3485343  iACCESS:    2479943  iHIT:     711436  iMISS:    1768507  dACCESS:    2077922  dHIT:     361086  dMISS:    1716836  itACCESS:          0  itHIT:          0  itMISS:          0  dtACCESS:          0  dtHIT:          0  dtMISS:          0
cpu0_L2C WRITE        ACCESS:     297573  HIT:     145174  MISS:     152399  iACCESS:          0  iHIT:          0  iMISS:          0  dACCESS:     297573  dHIT:     145174  dMISS:     152399  itACCESS:          0  itHIT:          0  itMISS:          0  dtACCESS:          0  dtHIT:          0  dtMISS:          0
cpu0_L2C TRANSLATION  ACCESS:     207065  HIT:     121544  MISS:      85521  iACCESS:          0  iHIT:          0  iMISS:          0  dACCESS:          0  dHIT:          0  dMISS:          0  itACCESS:      59820  itHIT:      43895  itMISS:      15925  dtACCESS:     147245  dtHIT:      77649  dtMISS:      69596
cpu0_L2C PREFETCH  REQUESTED:    1330432  ISSUED:    1330432  CROSSED:          0  USEFUL:     390971  USELESS:     365453
cpu0_L2C AVERAGE iMISS LATENCY: 15.778 cycles
cpu0_L2C AVERAGE dMISS LATENCY: 26.7041 cycles
cpu0_L2C AVERAGE itMISS LATENCY: 0.391257 cycles
cpu0_L2C AVERAGE dtMISS LATENCY: 1.43691 cycles
cpu0_L2C PAGE CROSSINGS (TLB HIT):         0 
cpu0_L2C PAGE CROSSINGS (TLB MISS):         0 
cpu0_L2C AVERAGE MISS LATENCY: 44.3102 cycles
LLC TOTAL       ACCESS:    5147698  HIT:    4292226  MISS:     855472  iACCESS:    2345944  iHIT:    2094880  iMISS:     251064  dACCESS:    2716233  dHIT:    2156039  dMISS:     560194  itACCESS:      15925  itHIT:       6030  itMISS:       9895  dtACCESS:      69596  dtHIT:      35277  dtMISS:      34319
LLC LOAD         ACCESS:    1406551  HIT:    1219641  MISS:     186910  iACCESS:     629814  iHIT:     576390  iMISS:      53424  dACCESS:     776737  dHIT:     643251  dMISS:     133486  itACCESS:          0  itHIT:          0  itMISS:          0  dtACCESS:          0  dtHIT:          0  dtMISS:          0
LLC RFO          ACCESS:     122831  HIT:      70402  MISS:      52429  iACCESS:          0  iHIT:          0  iMISS:          0  dACCESS:     122831  dHIT:      70402  dMISS:      52429  itACCESS:          0  itHIT:          0  itMISS:          0  dtACCESS:          0  dtHIT:          0  dtMISS:          0
LLC PREFETCH     ACCESS:    3377514  HIT:    2815388  MISS:     562126  iACCESS:    1716130  iHIT:    1518490  iMISS:     197640  dACCESS:    1661384  dHIT:    1296898  dMISS:     364486  itACCESS:          0  itHIT:          0  itMISS:          0  dtACCESS:          0  dtHIT:          0  dtMISS:          0
LLC WRITE        ACCESS:     155281  HIT:     145488  MISS:       9793  iACCESS:          0  iHIT:          0  iMISS:          0  dACCESS:     155281  dHIT:     145488  dMISS:       9793  itACCESS:          0  itHIT:          0  itMISS:          0  dtACCESS:          0  dtHIT:          0  dtMISS:          0
LLC TRANSLATION  ACCESS:      85521  HIT:      41307  MISS:      44214  iACCESS:          0  iHIT:          0  iMISS:          0  dACCESS:          0  dHIT:          0  dMISS:          0  itACCESS:      15925  itHIT:       6030  itMISS:       9895  dtACCESS:      69596  dtHIT:      35277  dtMISS:      34319
LLC PREFETCH  REQUESTED:          0  ISSUED:          0  CROSSED:          0  USEFUL:          0  USELESS:          0
LLC AVERAGE iMISS LATENCY: 43.9784 cycles
LLC AVERAGE dMISS LATENCY: 106.308 cycles
LLC AVERAGE itMISS LATENCY: 2.03861 cycles
LLC AVERAGE dtMISS LATENCY: 7.24104 cycles
LLC PAGE CROSSINGS (TLB HIT):         0 
LLC PAGE CROSSINGS (TLB MISS):         0 
LLC AVERAGE MISS LATENCY: 159.566 cycles

PageTableWalker TOTAL       ACCESS:      87854  
PageTableWalker AVERAGE LATENCY: 4.51492 cycles
PageTableWalker TOTAL LATENCY: 396653 cycles

DRAM Statistics
Channel 0
 RQ ROW_BUFFER_HIT:     245983
  ROW_BUFFER_MISS:     599576
 AVG DBUS CONGESTED CYCLE:    3.67635
 WQ ROW_BUFFER_HIT:      18791
  ROW_BUFFER_MISS:      36817  FULL:          0

