last_page:0x200000000000000
VMEM_RES_CAP:0x100000
PAGE_SIZE:4096
LOG2_PAGE_SIZE:12
LOG2_PAGE_TABLE_SIZE:9
page_table_levels:5
WARNING: physical memory size is smaller than virtual memory size
FDiP enabled with aggresivity 16

*** ChampSim Multicore Out-of-Order Simulator ***

Warmup Instructions: 50000000
Simulation Instructions: 100000000
Number of CPUs: 1
Small page size: 4096
Large page size: 2097152

CPU 0 Bimodal branch predictor
Basic BTB sets: 1024 ways: 8 indirect buffer size: 4096 RAS size: 64
Instruction page size distrubution: 0
Loading instruction page size distribution from /home/bsc/bsc018186/scratch/itp_asplos25_AE/dump/srv111_ap.pdst
Data page size distrubution: 0
Loading data page size distribution from /home/bsc/bsc018186/scratch/itp_asplos25_AE/dump/srv111_ap.pdst
cpu0_L2C IP-based stride prefetcher
cpu0_L2C is using xPTP/LRU
	TLB_LOWER_STRESS_THRESHOLD:1
	TLB_UPPER_STRESS_THRESHOLD:9
	MIN_EVICTION_POSITION:4
cpu0_L1D next line prefetcher
cpu0_STLB using iTP with max lru@8
cpu0_STLB using iTP with instr@0 and data@2
Init sat counter with 3 bits (max:50).
cpu0_L1I next line prefetcher
Off-chip DRAM Size: 4 GiB Channels: 1 Width: 64-bit Data Rate: 3200 MT/s
Heartbeat CPU 0 instructions: 10000003 cycles: 2500133 heartbeat IPC: 3.99979 cumulative IPC: 3.99979 (Simulation time: 0 hr 0 min 41 sec) 
Heartbeat CPU 0 instructions: 20000001 cycles: 5000159 heartbeat IPC: 3.99996 cumulative IPC: 3.99988 (Simulation time: 0 hr 1 min 25 sec) 
Heartbeat CPU 0 instructions: 30000001 cycles: 7500159 heartbeat IPC: 4 cumulative IPC: 3.99992 (Simulation time: 0 hr 2 min 9 sec) 
Heartbeat CPU 0 instructions: 40000002 cycles: 10000216 heartbeat IPC: 3.99991 cumulative IPC: 3.99992 (Simulation time: 0 hr 2 min 54 sec) 
Heartbeat CPU 0 instructions: 50000002 cycles: 12500260 heartbeat IPC: 3.99993 cumulative IPC: 3.99992 (Simulation time: 0 hr 3 min 35 sec) 
Warmup finished CPU 0 instructions: 50000002 cycles: 12500261 cumulative IPC: 3.99992 (Simulation time: 0 hr 3 min 35 sec) 

Warmup complete CPU 0 instructions: 50000002 cycles: 12500261 (Simulation time: 0 hr 3 min 35 sec) 

Heartbeat CPU 0 instructions: 60000000 cycles: 26840691 heartbeat IPC: 0.697329 cumulative IPC: 0.69733 (Simulation time: 0 hr 4 min 41 sec) 
Heartbeat CPU 0 instructions: 70000002 cycles: 39781024 heartbeat IPC: 0.772778 cumulative IPC: 0.733118 (Simulation time: 0 hr 5 min 46 sec) 
Heartbeat CPU 0 instructions: 80000000 cycles: 52462438 heartbeat IPC: 0.788556 cumulative IPC: 0.75071 (Simulation time: 0 hr 6 min 58 sec) 
Heartbeat CPU 0 instructions: 90000001 cycles: 65638411 heartbeat IPC: 0.758958 cumulative IPC: 0.752755 (Simulation time: 0 hr 8 min 10 sec) 
Heartbeat CPU 0 instructions: 100000001 cycles: 79116956 heartbeat IPC: 0.74192 cumulative IPC: 0.750563 (Simulation time: 0 hr 9 min 23 sec) 
*** Reached end of trace: /gpfs/projects/bsc18/MN4/bsc18/romol/ChampSim/traces/qualcomm_srv/srv111_ap.champsimtrace.xz
Heartbeat CPU 0 instructions: 110000004 cycles: 91695541 heartbeat IPC: 0.795003 cumulative IPC: 0.757621 (Simulation time: 0 hr 10 min 34 sec) 
Heartbeat CPU 0 instructions: 120000002 cycles: 104274046 heartbeat IPC: 0.795007 cumulative IPC: 0.762746 (Simulation time: 0 hr 11 min 45 sec) 
Heartbeat CPU 0 instructions: 130000001 cycles: 116892683 heartbeat IPC: 0.792479 cumulative IPC: 0.76634 (Simulation time: 0 hr 12 min 56 sec) 
Heartbeat CPU 0 instructions: 140000001 cycles: 129324615 heartbeat IPC: 0.804381 cumulative IPC: 0.770388 (Simulation time: 0 hr 14 min 1 sec) 
Heartbeat CPU 0 instructions: 150000000 cycles: 142374646 heartbeat IPC: 0.766282 cumulative IPC: 0.769975 (Simulation time: 0 hr 15 min 11 sec) 
Simulation finished CPU 0 instructions: 100000000 cycles: 129874396 cumulative IPC: 0.769975 (Simulation time: 0 hr 15 min 11 sec) 

Simulation complete CPU 0 instructions: 100000000 cycles: 129874396 (Simulation time: 0 hr 15 min 11 sec) 


ChampSim completed all CPUs

Saving instructions large page distribution to /home/bsc/bsc018186/scratch/itp_asplos25_AE/dump/srv111_ap.pdst...
Saving data large page distribution to /home/bsc/bsc018186/scratch/itp_asplos25_AE/dump/srv111_ap.pdst...
=== Simulation ===
CPU 0 runs /gpfs/projects/bsc18/MN4/bsc18/romol/ChampSim/traces/qualcomm_srv/srv111_ap.champsimtrace.xz

Region of Interest Statistics

CPU 0 cumulative IPC: 0.769975 instructions: 100000000 cycles: 129874396
CPU 0 Branch Prediction Accuracy: 83.2832% MPKI: 29.8625 Average ROB Occupancy at Mispredict: 12.4261
Branch type MPKI
BRANCH_DIRECT_JUMP: 1.03537
BRANCH_INDIRECT: 15.3542
BRANCH_CONDITIONAL: 9.74703
BRANCH_DIRECT_CALL: 1.86593
BRANCH_INDIRECT_CALL: 0.506381
BRANCH_RETURN: 1.35362

Instructions large pages: 0
Instructions small pages: 1032
Large page distribution for instructions: 0%

Data large pages: 0
Data small pages: 10280
Large page distribution for data: 0%

cpu0_L1I TOTAL       ACCESS:   34816987  HIT:   26894482  MISS:    7922505  iACCESS:   34816987  iHIT:   26894482  iMISS:    7922505  dACCESS:          0  dHIT:          0  dMISS:          0  itACCESS:          0  itHIT:          0  itMISS:          0  dtACCESS:          0  dtHIT:          0  dtMISS:          0
cpu0_L1I LOAD         ACCESS:   10223516  HIT:    8002432  MISS:    2221084  iACCESS:   10223516  iHIT:    8002432  iMISS:    2221084  dACCESS:          0  dHIT:          0  dMISS:          0  itACCESS:          0  itHIT:          0  itMISS:          0  dtACCESS:          0  dtHIT:          0  dtMISS:          0
cpu0_L1I RFO          ACCESS:          0  HIT:          0  MISS:          0  iACCESS:          0  iHIT:          0  iMISS:          0  dACCESS:          0  dHIT:          0  dMISS:          0  itACCESS:          0  itHIT:          0  itMISS:          0  dtACCESS:          0  dtHIT:          0  dtMISS:          0
cpu0_L1I PREFETCH     ACCESS:   24593471  HIT:   18892050  MISS:    5701421  iACCESS:   24593471  iHIT:   18892050  iMISS:    5701421  dACCESS:          0  dHIT:          0  dMISS:          0  itACCESS:          0  itHIT:          0  itMISS:          0  dtACCESS:          0  dtHIT:          0  dtMISS:          0
cpu0_L1I WRITE        ACCESS:          0  HIT:          0  MISS:          0  iACCESS:          0  iHIT:          0  iMISS:          0  dACCESS:          0  dHIT:          0  dMISS:          0  itACCESS:          0  itHIT:          0  itMISS:          0  dtACCESS:          0  dtHIT:          0  dtMISS:          0
cpu0_L1I TRANSLATION  ACCESS:          0  HIT:          0  MISS:          0  iACCESS:          0  iHIT:          0  iMISS:          0  dACCESS:          0  dHIT:          0  dMISS:          0  itACCESS:          0  itHIT:          0  itMISS:          0  dtACCESS:          0  dtHIT:          0  dtMISS:          0
cpu0_L1I PREFETCH  REQUESTED:   27077785  ISSUED:   27077694  CROSSED:          0  USEFUL:    1891195  USELESS:     622733
cpu0_L1I AVERAGE iMISS LATENCY: 11.2295 cycles
cpu0_L1I AVERAGE dMISS LATENCY: 0 cycles
cpu0_L1I AVERAGE itMISS LATENCY: 0 cycles
cpu0_L1I AVERAGE dtMISS LATENCY: 0 cycles
cpu0_L1I PAGE CROSSINGS (TLB HIT):         0 
cpu0_L1I PAGE CROSSINGS (TLB MISS):         0 
cpu0_L1I AVERAGE MISS LATENCY: 11.2295 cycles
cpu0_ITLB TOTAL       ACCESS:   28994632  HIT:   27044004  MISS:    1950628  iACCESS:   28994632  iHIT:   27044004  iMISS:    1950628  dACCESS:          0  dHIT:          0  dMISS:          0  itACCESS:          0  itHIT:          0  itMISS:          0  dtACCESS:          0  dtHIT:          0  dtMISS:          0
cpu0_ITLB LOAD         ACCESS:   28994632  HIT:   27044004  MISS:    1950628  iACCESS:   28994632  iHIT:   27044004  iMISS:    1950628  dACCESS:          0  dHIT:          0  dMISS:          0  itACCESS:          0  itHIT:          0  itMISS:          0  dtACCESS:          0  dtHIT:          0  dtMISS:          0
cpu0_ITLB RFO          ACCESS:          0  HIT:          0  MISS:          0  iACCESS:          0  iHIT:          0  iMISS:          0  dACCESS:          0  dHIT:          0  dMISS:          0  itACCESS:          0  itHIT:          0  itMISS:          0  dtACCESS:          0  dtHIT:          0  dtMISS:          0
cpu0_ITLB PREFETCH     ACCESS:          0  HIT:          0  MISS:          0  iACCESS:          0  iHIT:          0  iMISS:          0  dACCESS:          0  dHIT:          0  dMISS:          0  itACCESS:          0  itHIT:          0  itMISS:          0  dtACCESS:          0  dtHIT:          0  dtMISS:          0
cpu0_ITLB WRITE        ACCESS:          0  HIT:          0  MISS:          0  iACCESS:          0  iHIT:          0  iMISS:          0  dACCESS:          0  dHIT:          0  dMISS:          0  itACCESS:          0  itHIT:          0  itMISS:          0  dtACCESS:          0  dtHIT:          0  dtMISS:          0
cpu0_ITLB TRANSLATION  ACCESS:          0  HIT:          0  MISS:          0  iACCESS:          0  iHIT:          0  iMISS:          0  dACCESS:          0  dHIT:          0  dMISS:          0  itACCESS:          0  itHIT:          0  itMISS:          0  dtACCESS:          0  dtHIT:          0  dtMISS:          0
cpu0_ITLB PREFETCH  REQUESTED:          0  ISSUED:          0  CROSSED:          0  USEFUL:     320473  USELESS:      66170
cpu0_ITLB AVERAGE iMISS LATENCY: 2.03137 cycles
cpu0_ITLB AVERAGE dMISS LATENCY: 0 cycles
cpu0_ITLB AVERAGE itMISS LATENCY: 0 cycles
cpu0_ITLB AVERAGE dtMISS LATENCY: 0 cycles
cpu0_ITLB PAGE CROSSINGS (TLB HIT):         0 
cpu0_ITLB PAGE CROSSINGS (TLB MISS):         0 
cpu0_ITLB AVERAGE MISS LATENCY: 2.03137 cycles
cpu0_DTLB TOTAL       ACCESS:   27730520  HIT:   25666651  MISS:    2063869  iACCESS:          0  iHIT:          0  iMISS:          0  dACCESS:   27730520  dHIT:   25666651  dMISS:    2063869  itACCESS:          0  itHIT:          0  itMISS:          0  dtACCESS:          0  dtHIT:          0  dtMISS:          0
cpu0_DTLB LOAD         ACCESS:   27730520  HIT:   25666651  MISS:    2063869  iACCESS:          0  iHIT:          0  iMISS:          0  dACCESS:   27730520  dHIT:   25666651  dMISS:    2063869  itACCESS:          0  itHIT:          0  itMISS:          0  dtACCESS:          0  dtHIT:          0  dtMISS:          0
cpu0_DTLB RFO          ACCESS:          0  HIT:          0  MISS:          0  iACCESS:          0  iHIT:          0  iMISS:          0  dACCESS:          0  dHIT:          0  dMISS:          0  itACCESS:          0  itHIT:          0  itMISS:          0  dtACCESS:          0  dtHIT:          0  dtMISS:          0
cpu0_DTLB PREFETCH     ACCESS:          0  HIT:          0  MISS:          0  iACCESS:          0  iHIT:          0  iMISS:          0  dACCESS:          0  dHIT:          0  dMISS:          0  itACCESS:          0  itHIT:          0  itMISS:          0  dtACCESS:          0  dtHIT:          0  dtMISS:          0
cpu0_DTLB WRITE        ACCESS:          0  HIT:          0  MISS:          0  iACCESS:          0  iHIT:          0  iMISS:          0  dACCESS:          0  dHIT:          0  dMISS:          0  itACCESS:          0  itHIT:          0  itMISS:          0  dtACCESS:          0  dtHIT:          0  dtMISS:          0
cpu0_DTLB TRANSLATION  ACCESS:          0  HIT:          0  MISS:          0  iACCESS:          0  iHIT:          0  iMISS:          0  dACCESS:          0  dHIT:          0  dMISS:          0  itACCESS:          0  itHIT:          0  itMISS:          0  dtACCESS:          0  dtHIT:          0  dtMISS:          0
cpu0_DTLB PREFETCH  REQUESTED:          0  ISSUED:          0  CROSSED:          0  USEFUL:          0  USELESS:          0
cpu0_DTLB AVERAGE iMISS LATENCY: 0 cycles
cpu0_DTLB AVERAGE dMISS LATENCY: 10.7348 cycles
cpu0_DTLB AVERAGE itMISS LATENCY: 0 cycles
cpu0_DTLB AVERAGE dtMISS LATENCY: 0 cycles
cpu0_DTLB PAGE CROSSINGS (TLB HIT):         0 
cpu0_DTLB PAGE CROSSINGS (TLB MISS):         0 
cpu0_DTLB AVERAGE MISS LATENCY: 10.7348 cycles
cpu0_STLB TOTAL       ACCESS:    1608819  HIT:    1461114  MISS:     147705  iACCESS:     386646  iHIT:     377547  iMISS:       9099  dACCESS:    1222173  dHIT:    1083567  dMISS:     138606  itACCESS:          0  itHIT:          0  itMISS:          0  dtACCESS:          0  dtHIT:          0  dtMISS:          0
cpu0_STLB LOAD         ACCESS:    1608819  HIT:    1461114  MISS:     147705  iACCESS:     386646  iHIT:     377547  iMISS:       9099  dACCESS:    1222173  dHIT:    1083567  dMISS:     138606  itACCESS:          0  itHIT:          0  itMISS:          0  dtACCESS:          0  dtHIT:          0  dtMISS:          0
cpu0_STLB RFO          ACCESS:          0  HIT:          0  MISS:          0  iACCESS:          0  iHIT:          0  iMISS:          0  dACCESS:          0  dHIT:          0  dMISS:          0  itACCESS:          0  itHIT:          0  itMISS:          0  dtACCESS:          0  dtHIT:          0  dtMISS:          0
cpu0_STLB PREFETCH     ACCESS:          0  HIT:          0  MISS:          0  iACCESS:          0  iHIT:          0  iMISS:          0  dACCESS:          0  dHIT:          0  dMISS:          0  itACCESS:          0  itHIT:          0  itMISS:          0  dtACCESS:          0  dtHIT:          0  dtMISS:          0
cpu0_STLB WRITE        ACCESS:          0  HIT:          0  MISS:          0  iACCESS:          0  iHIT:          0  iMISS:          0  dACCESS:          0  dHIT:          0  dMISS:          0  itACCESS:          0  itHIT:          0  itMISS:          0  dtACCESS:          0  dtHIT:          0  dtMISS:          0
cpu0_STLB TRANSLATION  ACCESS:          0  HIT:          0  MISS:          0  iACCESS:          0  iHIT:          0  iMISS:          0  dACCESS:          0  dHIT:          0  dMISS:          0  itACCESS:          0  itHIT:          0  itMISS:          0  dtACCESS:          0  dtHIT:          0  dtMISS:          0
cpu0_STLB PREFETCH  REQUESTED:          0  ISSUED:          0  CROSSED:          0  USEFUL:          0  USELESS:          0
cpu0_STLB AVERAGE iMISS LATENCY: 6.50452 cycles
cpu0_STLB AVERAGE dMISS LATENCY: 83.8478 cycles
cpu0_STLB AVERAGE itMISS LATENCY: 0 cycles
cpu0_STLB AVERAGE dtMISS LATENCY: 0 cycles
cpu0_STLB PAGE CROSSINGS (TLB HIT):         0 
cpu0_STLB PAGE CROSSINGS (TLB MISS):         0 
cpu0_STLB AVERAGE MISS LATENCY: 90.3523 cycles
cpu0_L1D TOTAL       ACCESS:   41785917  HIT:   38043377  MISS:    3742540  iACCESS:          0  iHIT:          0  iMISS:          0  dACCESS:   41567130  dHIT:   38029097  dMISS:    3538033  itACCESS:      11182  itHIT:       1248  itMISS:       9934  dtACCESS:     207605  dtHIT:      13032  dtMISS:     194573
cpu0_L1D LOAD         ACCESS:   18956437  HIT:   17459051  MISS:    1497386  iACCESS:          0  iHIT:          0  iMISS:          0  dACCESS:   18956437  dHIT:   17459051  dMISS:    1497386  itACCESS:          0  itHIT:          0  itMISS:          0  dtACCESS:          0  dtHIT:          0  dtMISS:          0
cpu0_L1D RFO          ACCESS:          0  HIT:          0  MISS:          0  iACCESS:          0  iHIT:          0  iMISS:          0  dACCESS:          0  dHIT:          0  dMISS:          0  itACCESS:          0  itHIT:          0  itMISS:          0  dtACCESS:          0  dtHIT:          0  dtMISS:          0
cpu0_L1D PREFETCH     ACCESS:   12191706  HIT:   10841307  MISS:    1350399  iACCESS:          0  iHIT:          0  iMISS:          0  dACCESS:   12191706  dHIT:   10841307  dMISS:    1350399  itACCESS:          0  itHIT:          0  itMISS:          0  dtACCESS:          0  dtHIT:          0  dtMISS:          0
cpu0_L1D WRITE        ACCESS:   10418987  HIT:    9728739  MISS:     690248  iACCESS:          0  iHIT:          0  iMISS:          0  dACCESS:   10418987  dHIT:    9728739  dMISS:     690248  itACCESS:          0  itHIT:          0  itMISS:          0  dtACCESS:          0  dtHIT:          0  dtMISS:          0
cpu0_L1D TRANSLATION  ACCESS:     218787  HIT:      14280  MISS:     204507  iACCESS:          0  iHIT:          0  iMISS:          0  dACCESS:          0  dHIT:          0  dMISS:          0  itACCESS:      11182  itHIT:       1248  itMISS:       9934  dtACCESS:     207605  dtHIT:      13032  dtMISS:     194573
cpu0_L1D PREFETCH  REQUESTED:   18956437  ISSUED:   17062492  CROSSED:          0  USEFUL:     303274  USELESS:     693984
cpu0_L1D AVERAGE iMISS LATENCY: 0 cycles
cpu0_L1D AVERAGE dMISS LATENCY: 28.269 cycles
cpu0_L1D AVERAGE itMISS LATENCY: 0.229894 cycles
cpu0_L1D AVERAGE dtMISS LATENCY: 2.53964 cycles
cpu0_L1D PAGE CROSSINGS (TLB HIT):         0 
cpu0_L1D PAGE CROSSINGS (TLB MISS):         0 
cpu0_L1D AVERAGE MISS LATENCY: 31.0386 cycles
cpu0_L2C TOTAL       ACCESS:    6911862  HIT:    2601642  MISS:    4310220  iACCESS:    3256453  iHIT:    1437868  iMISS:    1818585  dACCESS:    3461372  dHIT:    1029538  dMISS:    2431834  itACCESS:       9922  itHIT:       3786  itMISS:       6136  dtACCESS:     184115  dtHIT:     130450  dtMISS:      53665
cpu0_L2C LOAD         ACCESS:    1698352  HIT:     553531  MISS:    1144821  iACCESS:     777465  iHIT:     303182  iMISS:     474283  dACCESS:     920887  dHIT:     250349  dMISS:     670538  itACCESS:          0  itHIT:          0  itMISS:          0  dtACCESS:          0  dtHIT:          0  dtMISS:          0
cpu0_L2C RFO          ACCESS:     171923  HIT:      33817  MISS:     138106  iACCESS:          0  iHIT:          0  iMISS:          0  dACCESS:     171923  dHIT:      33817  dMISS:     138106  itACCESS:          0  itHIT:          0  itMISS:          0  dtACCESS:          0  dtHIT:          0  dtMISS:          0
cpu0_L2C PREFETCH     ACCESS:    4550630  HIT:    1740839  MISS:    2809791  iACCESS:    2478988  iHIT:    1134686  iMISS:    1344302  dACCESS:    2071642  dHIT:     606153  dMISS:    1465489  itACCESS:          0  itHIT:          0  itMISS:          0  dtACCESS:          0  dtHIT:          0  dtMISS:          0
cpu0_L2C WRITE        ACCESS:     296920  HIT:     139219  MISS:     157701  iACCESS:          0  iHIT:          0  iMISS:          0  dACCESS:     296920  dHIT:     139219  dMISS:     157701  itACCESS:          0  itHIT:          0  itMISS:          0  dtACCESS:          0  dtHIT:          0  dtMISS:          0
cpu0_L2C TRANSLATION  ACCESS:     194037  HIT:     134236  MISS:      59801  iACCESS:          0  iHIT:          0  iMISS:          0  dACCESS:          0  dHIT:          0  dMISS:          0  itACCESS:       9922  itHIT:       3786  itMISS:       6136  dtACCESS:     184115  dtHIT:     130450  dtMISS:      53665
cpu0_L2C PREFETCH  REQUESTED:    1323976  ISSUED:    1323976  CROSSED:          0  USEFUL:     349187  USELESS:     316775
cpu0_L2C AVERAGE iMISS LATENCY: 13.7262 cycles
cpu0_L2C AVERAGE dMISS LATENCY: 26.8405 cycles
cpu0_L2C AVERAGE itMISS LATENCY: 0.177427 cycles
cpu0_L2C AVERAGE dtMISS LATENCY: 1.80603 cycles
cpu0_L2C PAGE CROSSINGS (TLB HIT):         0 
cpu0_L2C PAGE CROSSINGS (TLB MISS):         0 
cpu0_L2C AVERAGE MISS LATENCY: 42.5502 cycles
LLC TOTAL       ACCESS:    4281048  HIT:    3647920  MISS:     633128  iACCESS:    1776509  iHIT:    1616957  iMISS:     159552  dACCESS:    2444738  dHIT:    2012945  dMISS:     431793  itACCESS:       6136  itHIT:       2475  itMISS:       3661  dtACCESS:      53665  dtHIT:      15543  dtMISS:      38122
LLC LOAD         ACCESS:    1143383  HIT:    1005555  MISS:     137828  iACCESS:     473197  iHIT:     439721  iMISS:      33476  dACCESS:     670186  dHIT:     565834  dMISS:     104352  itACCESS:          0  itHIT:          0  itMISS:          0  dtACCESS:          0  dtHIT:          0  dtMISS:          0
LLC RFO          ACCESS:     138103  HIT:      87303  MISS:      50800  iACCESS:          0  iHIT:          0  iMISS:          0  dACCESS:     138103  dHIT:      87303  dMISS:      50800  itACCESS:          0  itHIT:          0  itMISS:          0  dtACCESS:          0  dtHIT:          0  dtMISS:          0
LLC PREFETCH     ACCESS:    2726036  HIT:    2325223  MISS:     400813  iACCESS:    1303312  iHIT:    1177236  iMISS:     126076  dACCESS:    1422724  dHIT:    1147987  dMISS:     274737  itACCESS:          0  itHIT:          0  itMISS:          0  dtACCESS:          0  dtHIT:          0  dtMISS:          0
LLC WRITE        ACCESS:     213725  HIT:     211821  MISS:       1904  iACCESS:          0  iHIT:          0  iMISS:          0  dACCESS:     213725  dHIT:     211821  dMISS:       1904  itACCESS:          0  itHIT:          0  itMISS:          0  dtACCESS:          0  dtHIT:          0  dtMISS:          0
LLC TRANSLATION  ACCESS:      59801  HIT:      18018  MISS:      41783  iACCESS:          0  iHIT:          0  iMISS:          0  dACCESS:          0  dHIT:          0  dMISS:          0  itACCESS:       6136  itHIT:       2475  itMISS:       3661  dtACCESS:      53665  dtHIT:      15543  dtMISS:      38122
LLC PREFETCH  REQUESTED:          0  ISSUED:          0  CROSSED:          0  USEFUL:          0  USELESS:          0
LLC AVERAGE iMISS LATENCY: 39.3794 cycles
LLC AVERAGE dMISS LATENCY: 114.694 cycles
LLC AVERAGE itMISS LATENCY: 1.01843 cycles
LLC AVERAGE dtMISS LATENCY: 10.6283 cycles
LLC PAGE CROSSINGS (TLB HIT):         0 
LLC PAGE CROSSINGS (TLB MISS):         0 
LLC AVERAGE MISS LATENCY: 165.72 cycles

PageTableWalker TOTAL       ACCESS:      72035  
PageTableWalker AVERAGE LATENCY: 4.82258 cycles
PageTableWalker TOTAL LATENCY: 347394 cycles

DRAM Statistics
Channel 0
 RQ ROW_BUFFER_HIT:     168215
  ROW_BUFFER_MISS:     462931
 AVG DBUS CONGESTED CYCLE:    3.70665
 WQ ROW_BUFFER_HIT:      17530
  ROW_BUFFER_MISS:      42695  FULL:          0

