last_page:0x200000000000000
VMEM_RES_CAP:0x100000
PAGE_SIZE:4096
LOG2_PAGE_SIZE:12
LOG2_PAGE_TABLE_SIZE:9
page_table_levels:5
WARNING: physical memory size is smaller than virtual memory size
FDiP enabled with aggresivity 16

*** ChampSim Multicore Out-of-Order Simulator ***

Warmup Instructions: 50000000
Simulation Instructions: 100000000
Number of CPUs: 1
Small page size: 4096
Large page size: 2097152

CPU 0 Bimodal branch predictor
Basic BTB sets: 1024 ways: 8 indirect buffer size: 4096 RAS size: 64
Instruction page size distrubution: 0
Loading instruction page size distribution from /home/bsc/bsc018186/scratch/itp_asplos25_AE/dump/srv133_ap.pdst
Data page size distrubution: 0
Loading data page size distribution from /home/bsc/bsc018186/scratch/itp_asplos25_AE/dump/srv133_ap.pdst
cpu0_L2C IP-based stride prefetcher
cpu0_L1D next line prefetcher
cpu0_L1I next line prefetcher
Off-chip DRAM Size: 4 GiB Channels: 1 Width: 64-bit Data Rate: 3200 MT/s
Heartbeat CPU 0 instructions: 10000002 cycles: 2500202 heartbeat IPC: 3.99968 cumulative IPC: 3.99968 (Simulation time: 0 hr 0 min 35 sec) 
Heartbeat CPU 0 instructions: 20000001 cycles: 5000248 heartbeat IPC: 3.99993 cumulative IPC: 3.99981 (Simulation time: 0 hr 1 min 12 sec) 
Heartbeat CPU 0 instructions: 30000001 cycles: 7500248 heartbeat IPC: 4 cumulative IPC: 3.99987 (Simulation time: 0 hr 1 min 49 sec) 
Heartbeat CPU 0 instructions: 40000003 cycles: 10000267 heartbeat IPC: 3.99998 cumulative IPC: 3.9999 (Simulation time: 0 hr 2 min 27 sec) 
Heartbeat CPU 0 instructions: 50000003 cycles: 12500305 heartbeat IPC: 3.99994 cumulative IPC: 3.99991 (Simulation time: 0 hr 3 min 5 sec) 
Warmup finished CPU 0 instructions: 50000003 cycles: 12500306 cumulative IPC: 3.99991 (Simulation time: 0 hr 3 min 5 sec) 

Warmup complete CPU 0 instructions: 50000003 cycles: 12500306 (Simulation time: 0 hr 3 min 5 sec) 

Heartbeat CPU 0 instructions: 60000001 cycles: 26474910 heartbeat IPC: 0.715584 cumulative IPC: 0.715584 (Simulation time: 0 hr 4 min 4 sec) 
Heartbeat CPU 0 instructions: 70000003 cycles: 40719124 heartbeat IPC: 0.70204 cumulative IPC: 0.708747 (Simulation time: 0 hr 5 min 4 sec) 
Heartbeat CPU 0 instructions: 80000001 cycles: 55061330 heartbeat IPC: 0.697243 cumulative IPC: 0.704871 (Simulation time: 0 hr 6 min 4 sec) 
Heartbeat CPU 0 instructions: 90000004 cycles: 69317634 heartbeat IPC: 0.701445 cumulative IPC: 0.704011 (Simulation time: 0 hr 7 min 4 sec) 
Heartbeat CPU 0 instructions: 100000000 cycles: 83662245 heartbeat IPC: 0.697126 cumulative IPC: 0.702623 (Simulation time: 0 hr 8 min 5 sec) 
*** Reached end of trace: /gpfs/projects/bsc18/MN4/bsc18/romol/ChampSim/traces/qualcomm_srv/srv133_ap.champsimtrace.xz
Heartbeat CPU 0 instructions: 110000004 cycles: 98845784 heartbeat IPC: 0.658609 cumulative IPC: 0.694883 (Simulation time: 0 hr 9 min 6 sec) 
Heartbeat CPU 0 instructions: 120000003 cycles: 112886366 heartbeat IPC: 0.712222 cumulative IPC: 0.697308 (Simulation time: 0 hr 10 min 6 sec) 
Heartbeat CPU 0 instructions: 130000000 cycles: 126376709 heartbeat IPC: 0.741271 cumulative IPC: 0.702517 (Simulation time: 0 hr 11 min 5 sec) 
Heartbeat CPU 0 instructions: 140000003 cycles: 139909277 heartbeat IPC: 0.738959 cumulative IPC: 0.706387 (Simulation time: 0 hr 12 min 4 sec) 
Heartbeat CPU 0 instructions: 150000001 cycles: 153890557 heartbeat IPC: 0.715242 cumulative IPC: 0.707263 (Simulation time: 0 hr 13 min 4 sec) 
Simulation finished CPU 0 instructions: 100000002 cycles: 141390253 cumulative IPC: 0.707263 (Simulation time: 0 hr 13 min 4 sec) 

Simulation complete CPU 0 instructions: 100000002 cycles: 141390253 (Simulation time: 0 hr 13 min 4 sec) 


ChampSim completed all CPUs

Saving instructions large page distribution to /home/bsc/bsc018186/scratch/itp_asplos25_AE/dump/srv133_ap.pdst...
Saving data large page distribution to /home/bsc/bsc018186/scratch/itp_asplos25_AE/dump/srv133_ap.pdst...
=== Simulation ===
CPU 0 runs /gpfs/projects/bsc18/MN4/bsc18/romol/ChampSim/traces/qualcomm_srv/srv133_ap.champsimtrace.xz

Region of Interest Statistics

CPU 0 cumulative IPC: 0.707263 instructions: 100000002 cycles: 141390253
CPU 0 Branch Prediction Accuracy: 82.6476% MPKI: 31.112 Average ROB Occupancy at Mispredict: 12.7857
Branch type MPKI
BRANCH_DIRECT_JUMP: 1.04507
BRANCH_INDIRECT: 16.1102
BRANCH_CONDITIONAL: 10.1887
BRANCH_DIRECT_CALL: 1.89521
BRANCH_INDIRECT_CALL: 0.51874
BRANCH_RETURN: 1.35407

Instructions large pages: 0
Instructions small pages: 1119
Large page distribution for instructions: 0%

Data large pages: 0
Data small pages: 9274
Large page distribution for data: 0%

cpu0_L1I TOTAL       ACCESS:   35678566  HIT:   27321752  MISS:    8356814  iACCESS:   35678566  iHIT:   27321752  iMISS:    8356814  dACCESS:          0  dHIT:          0  dMISS:          0  itACCESS:          0  itHIT:          0  itMISS:          0  dtACCESS:          0  dtHIT:          0  dtMISS:          0
cpu0_L1I LOAD         ACCESS:   10457733  HIT:    8124789  MISS:    2332944  iACCESS:   10457733  iHIT:    8124789  iMISS:    2332944  dACCESS:          0  dHIT:          0  dMISS:          0  itACCESS:          0  itHIT:          0  itMISS:          0  dtACCESS:          0  dtHIT:          0  dtMISS:          0
cpu0_L1I RFO          ACCESS:          0  HIT:          0  MISS:          0  iACCESS:          0  iHIT:          0  iMISS:          0  dACCESS:          0  dHIT:          0  dMISS:          0  itACCESS:          0  itHIT:          0  itMISS:          0  dtACCESS:          0  dtHIT:          0  dtMISS:          0
cpu0_L1I PREFETCH     ACCESS:   25220833  HIT:   19196963  MISS:    6023870  iACCESS:   25220833  iHIT:   19196963  iMISS:    6023870  dACCESS:          0  dHIT:          0  dMISS:          0  itACCESS:          0  itHIT:          0  itMISS:          0  dtACCESS:          0  dtHIT:          0  dtMISS:          0
cpu0_L1I WRITE        ACCESS:          0  HIT:          0  MISS:          0  iACCESS:          0  iHIT:          0  iMISS:          0  dACCESS:          0  dHIT:          0  dMISS:          0  itACCESS:          0  itHIT:          0  itMISS:          0  dtACCESS:          0  dtHIT:          0  dtMISS:          0
cpu0_L1I TRANSLATION  ACCESS:          0  HIT:          0  MISS:          0  iACCESS:          0  iHIT:          0  iMISS:          0  dACCESS:          0  dHIT:          0  dMISS:          0  itACCESS:          0  itHIT:          0  itMISS:          0  dtACCESS:          0  dtHIT:          0  dtMISS:          0
cpu0_L1I PREFETCH  REQUESTED:   27547212  ISSUED:   27545687  CROSSED:          0  USEFUL:    1938488  USELESS:     626411
cpu0_L1I AVERAGE iMISS LATENCY: 13.1122 cycles
cpu0_L1I AVERAGE dMISS LATENCY: 0 cycles
cpu0_L1I AVERAGE itMISS LATENCY: 0 cycles
cpu0_L1I AVERAGE dtMISS LATENCY: 0 cycles
cpu0_L1I PAGE CROSSINGS (TLB HIT):         0 
cpu0_L1I PAGE CROSSINGS (TLB MISS):         0 
cpu0_L1I AVERAGE MISS LATENCY: 13.1122 cycles
cpu0_ITLB TOTAL       ACCESS:   29513780  HIT:   27591900  MISS:    1921880  iACCESS:   29513780  iHIT:   27591900  iMISS:    1921880  dACCESS:          0  dHIT:          0  dMISS:          0  itACCESS:          0  itHIT:          0  itMISS:          0  dtACCESS:          0  dtHIT:          0  dtMISS:          0
cpu0_ITLB LOAD         ACCESS:   29513780  HIT:   27591900  MISS:    1921880  iACCESS:   29513780  iHIT:   27591900  iMISS:    1921880  dACCESS:          0  dHIT:          0  dMISS:          0  itACCESS:          0  itHIT:          0  itMISS:          0  dtACCESS:          0  dtHIT:          0  dtMISS:          0
cpu0_ITLB RFO          ACCESS:          0  HIT:          0  MISS:          0  iACCESS:          0  iHIT:          0  iMISS:          0  dACCESS:          0  dHIT:          0  dMISS:          0  itACCESS:          0  itHIT:          0  itMISS:          0  dtACCESS:          0  dtHIT:          0  dtMISS:          0
cpu0_ITLB PREFETCH     ACCESS:          0  HIT:          0  MISS:          0  iACCESS:          0  iHIT:          0  iMISS:          0  dACCESS:          0  dHIT:          0  dMISS:          0  itACCESS:          0  itHIT:          0  itMISS:          0  dtACCESS:          0  dtHIT:          0  dtMISS:          0
cpu0_ITLB WRITE        ACCESS:          0  HIT:          0  MISS:          0  iACCESS:          0  iHIT:          0  iMISS:          0  dACCESS:          0  dHIT:          0  dMISS:          0  itACCESS:          0  itHIT:          0  itMISS:          0  dtACCESS:          0  dtHIT:          0  dtMISS:          0
cpu0_ITLB TRANSLATION  ACCESS:          0  HIT:          0  MISS:          0  iACCESS:          0  iHIT:          0  iMISS:          0  dACCESS:          0  dHIT:          0  dMISS:          0  itACCESS:          0  itHIT:          0  itMISS:          0  dtACCESS:          0  dtHIT:          0  dtMISS:          0
cpu0_ITLB PREFETCH  REQUESTED:          0  ISSUED:          0  CROSSED:          0  USEFUL:     316593  USELESS:      63621
cpu0_ITLB AVERAGE iMISS LATENCY: 3.24138 cycles
cpu0_ITLB AVERAGE dMISS LATENCY: 0 cycles
cpu0_ITLB AVERAGE itMISS LATENCY: 0 cycles
cpu0_ITLB AVERAGE dtMISS LATENCY: 0 cycles
cpu0_ITLB PAGE CROSSINGS (TLB HIT):         0 
cpu0_ITLB PAGE CROSSINGS (TLB MISS):         0 
cpu0_ITLB AVERAGE MISS LATENCY: 3.24138 cycles
cpu0_DTLB TOTAL       ACCESS:   27902552  HIT:   26083594  MISS:    1818958  iACCESS:          0  iHIT:          0  iMISS:          0  dACCESS:   27902552  dHIT:   26083594  dMISS:    1818958  itACCESS:          0  itHIT:          0  itMISS:          0  dtACCESS:          0  dtHIT:          0  dtMISS:          0
cpu0_DTLB LOAD         ACCESS:   27902552  HIT:   26083594  MISS:    1818958  iACCESS:          0  iHIT:          0  iMISS:          0  dACCESS:   27902552  dHIT:   26083594  dMISS:    1818958  itACCESS:          0  itHIT:          0  itMISS:          0  dtACCESS:          0  dtHIT:          0  dtMISS:          0
cpu0_DTLB RFO          ACCESS:          0  HIT:          0  MISS:          0  iACCESS:          0  iHIT:          0  iMISS:          0  dACCESS:          0  dHIT:          0  dMISS:          0  itACCESS:          0  itHIT:          0  itMISS:          0  dtACCESS:          0  dtHIT:          0  dtMISS:          0
cpu0_DTLB PREFETCH     ACCESS:          0  HIT:          0  MISS:          0  iACCESS:          0  iHIT:          0  iMISS:          0  dACCESS:          0  dHIT:          0  dMISS:          0  itACCESS:          0  itHIT:          0  itMISS:          0  dtACCESS:          0  dtHIT:          0  dtMISS:          0
cpu0_DTLB WRITE        ACCESS:          0  HIT:          0  MISS:          0  iACCESS:          0  iHIT:          0  iMISS:          0  dACCESS:          0  dHIT:          0  dMISS:          0  itACCESS:          0  itHIT:          0  itMISS:          0  dtACCESS:          0  dtHIT:          0  dtMISS:          0
cpu0_DTLB TRANSLATION  ACCESS:          0  HIT:          0  MISS:          0  iACCESS:          0  iHIT:          0  iMISS:          0  dACCESS:          0  dHIT:          0  dMISS:          0  itACCESS:          0  itHIT:          0  itMISS:          0  dtACCESS:          0  dtHIT:          0  dtMISS:          0
cpu0_DTLB PREFETCH  REQUESTED:          0  ISSUED:          0  CROSSED:          0  USEFUL:          0  USELESS:          0
cpu0_DTLB AVERAGE iMISS LATENCY: 0 cycles
cpu0_DTLB AVERAGE dMISS LATENCY: 10.741 cycles
cpu0_DTLB AVERAGE itMISS LATENCY: 0 cycles
cpu0_DTLB AVERAGE dtMISS LATENCY: 0 cycles
cpu0_DTLB PAGE CROSSINGS (TLB HIT):         0 
cpu0_DTLB PAGE CROSSINGS (TLB MISS):         0 
cpu0_DTLB AVERAGE MISS LATENCY: 10.741 cycles
cpu0_STLB TOTAL       ACCESS:    1506264  HIT:    1337295  MISS:     168969  iACCESS:     380225  iHIT:     321524  iMISS:      58701  dACCESS:    1126039  dHIT:    1015771  dMISS:     110268  itACCESS:          0  itHIT:          0  itMISS:          0  dtACCESS:          0  dtHIT:          0  dtMISS:          0
cpu0_STLB LOAD         ACCESS:    1506264  HIT:    1337295  MISS:     168969  iACCESS:     380225  iHIT:     321524  iMISS:      58701  dACCESS:    1126039  dHIT:    1015771  dMISS:     110268  itACCESS:          0  itHIT:          0  itMISS:          0  dtACCESS:          0  dtHIT:          0  dtMISS:          0
cpu0_STLB RFO          ACCESS:          0  HIT:          0  MISS:          0  iACCESS:          0  iHIT:          0  iMISS:          0  dACCESS:          0  dHIT:          0  dMISS:          0  itACCESS:          0  itHIT:          0  itMISS:          0  dtACCESS:          0  dtHIT:          0  dtMISS:          0
cpu0_STLB PREFETCH     ACCESS:          0  HIT:          0  MISS:          0  iACCESS:          0  iHIT:          0  iMISS:          0  dACCESS:          0  dHIT:          0  dMISS:          0  itACCESS:          0  itHIT:          0  itMISS:          0  dtACCESS:          0  dtHIT:          0  dtMISS:          0
cpu0_STLB WRITE        ACCESS:          0  HIT:          0  MISS:          0  iACCESS:          0  iHIT:          0  iMISS:          0  dACCESS:          0  dHIT:          0  dMISS:          0  itACCESS:          0  itHIT:          0  itMISS:          0  dtACCESS:          0  dtHIT:          0  dtMISS:          0
cpu0_STLB TRANSLATION  ACCESS:          0  HIT:          0  MISS:          0  iACCESS:          0  iHIT:          0  iMISS:          0  dACCESS:          0  dHIT:          0  dMISS:          0  itACCESS:          0  itHIT:          0  itMISS:          0  dtACCESS:          0  dtHIT:          0  dtMISS:          0
cpu0_STLB PREFETCH  REQUESTED:          0  ISSUED:          0  CROSSED:          0  USEFUL:          0  USELESS:          0
cpu0_STLB AVERAGE iMISS LATENCY: 19.1063 cycles
cpu0_STLB AVERAGE dMISS LATENCY: 62.4076 cycles
cpu0_STLB AVERAGE itMISS LATENCY: 0 cycles
cpu0_STLB AVERAGE dtMISS LATENCY: 0 cycles
cpu0_STLB PAGE CROSSINGS (TLB HIT):         0 
cpu0_STLB PAGE CROSSINGS (TLB MISS):         0 
cpu0_STLB AVERAGE MISS LATENCY: 81.5138 cycles
cpu0_L1D TOTAL       ACCESS:   41622196  HIT:   38183651  MISS:    3438545  iACCESS:          0  iHIT:          0  iMISS:          0  dACCESS:   41394940  dHIT:   38163964  dMISS:    3230976  itACCESS:      63585  itHIT:       9018  itMISS:      54567  dtACCESS:     163671  dtHIT:      10669  dtMISS:     153002
cpu0_L1D LOAD         ACCESS:   19098438  HIT:   17620925  MISS:    1477513  iACCESS:          0  iHIT:          0  iMISS:          0  dACCESS:   19098438  dHIT:   17620925  dMISS:    1477513  itACCESS:          0  itHIT:          0  itMISS:          0  dtACCESS:          0  dtHIT:          0  dtMISS:          0
cpu0_L1D RFO          ACCESS:          0  HIT:          0  MISS:          0  iACCESS:          0  iHIT:          0  iMISS:          0  dACCESS:          0  dHIT:          0  dMISS:          0  itACCESS:          0  itHIT:          0  itMISS:          0  dtACCESS:          0  dtHIT:          0  dtMISS:          0
cpu0_L1D PREFETCH     ACCESS:   12119152  HIT:   10789921  MISS:    1329231  iACCESS:          0  iHIT:          0  iMISS:          0  dACCESS:   12119152  dHIT:   10789921  dMISS:    1329231  itACCESS:          0  itHIT:          0  itMISS:          0  dtACCESS:          0  dtHIT:          0  dtMISS:          0
cpu0_L1D WRITE        ACCESS:   10177350  HIT:    9753118  MISS:     424232  iACCESS:          0  iHIT:          0  iMISS:          0  dACCESS:   10177350  dHIT:    9753118  dMISS:     424232  itACCESS:          0  itHIT:          0  itMISS:          0  dtACCESS:          0  dtHIT:          0  dtMISS:          0
cpu0_L1D TRANSLATION  ACCESS:     227256  HIT:      19687  MISS:     207569  iACCESS:          0  iHIT:          0  iMISS:          0  dACCESS:          0  dHIT:          0  dMISS:          0  itACCESS:      63585  itHIT:       9018  itMISS:      54567  dtACCESS:     163671  dtHIT:      10669  dtMISS:     153002
cpu0_L1D PREFETCH  REQUESTED:   19098438  ISSUED:   16907350  CROSSED:          0  USEFUL:     306609  USELESS:     702287
cpu0_L1D AVERAGE iMISS LATENCY: 0 cycles
cpu0_L1D AVERAGE dMISS LATENCY: 33.13 cycles
cpu0_L1D AVERAGE itMISS LATENCY: 0.792758 cycles
cpu0_L1D AVERAGE dtMISS LATENCY: 2.40955 cycles
cpu0_L1D PAGE CROSSINGS (TLB HIT):         0 
cpu0_L1D PAGE CROSSINGS (TLB MISS):         0 
cpu0_L1D AVERAGE MISS LATENCY: 36.3323 cycles
cpu0_L2C TOTAL       ACCESS:    7005872  HIT:    1715548  MISS:    5290324  iACCESS:    3301901  iHIT:     880544  iMISS:    2421357  dACCESS:    3503990  dHIT:     720316  dMISS:    2783674  itACCESS:      54567  itHIT:      37063  itMISS:      17504  dtACCESS:     145414  dtHIT:      77625  dtMISS:      67789
cpu0_L2C LOAD         ACCESS:    1705338  HIT:     300661  MISS:    1404677  iACCESS:     775506  iHIT:     149813  iMISS:     625693  dACCESS:     929832  dHIT:     150848  dMISS:     778984  itACCESS:          0  itHIT:          0  itMISS:          0  dtACCESS:          0  dtHIT:          0  dtMISS:          0
cpu0_L2C RFO          ACCESS:     158666  HIT:      52297  MISS:     106369  iACCESS:          0  iHIT:          0  iMISS:          0  dACCESS:     158666  dHIT:      52297  dMISS:     106369  itACCESS:          0  itHIT:          0  itMISS:          0  dtACCESS:          0  dtHIT:          0  dtMISS:          0
cpu0_L2C PREFETCH     ACCESS:    4660643  HIT:    1110130  MISS:    3550513  iACCESS:    2526395  iHIT:     730731  iMISS:    1795664  dACCESS:    2134248  dHIT:     379399  dMISS:    1754849  itACCESS:          0  itHIT:          0  itMISS:          0  dtACCESS:          0  dtHIT:          0  dtMISS:          0
cpu0_L2C WRITE        ACCESS:     281244  HIT:     137772  MISS:     143472  iACCESS:          0  iHIT:          0  iMISS:          0  dACCESS:     281244  dHIT:     137772  dMISS:     143472  itACCESS:          0  itHIT:          0  itMISS:          0  dtACCESS:          0  dtHIT:          0  dtMISS:          0
cpu0_L2C TRANSLATION  ACCESS:     199981  HIT:     114688  MISS:      85293  iACCESS:          0  iHIT:          0  iMISS:          0  dACCESS:          0  dHIT:          0  dMISS:          0  itACCESS:      54567  itHIT:      37063  itMISS:      17504  dtACCESS:     145414  dtHIT:      77625  dtMISS:      67789
cpu0_L2C PREFETCH  REQUESTED:    1387903  ISSUED:    1387903  CROSSED:          0  USEFUL:     412115  USELESS:     376391
cpu0_L2C AVERAGE iMISS LATENCY: 14.8852 cycles
cpu0_L2C AVERAGE dMISS LATENCY: 24.8727 cycles
cpu0_L2C AVERAGE itMISS LATENCY: 0.418887 cycles
cpu0_L2C AVERAGE dtMISS LATENCY: 1.3044 cycles
cpu0_L2C PAGE CROSSINGS (TLB HIT):         0 
cpu0_L2C PAGE CROSSINGS (TLB MISS):         0 
cpu0_L2C AVERAGE MISS LATENCY: 41.4811 cycles
LLC TOTAL       ACCESS:    5176565  HIT:    4397135  MISS:     779430  iACCESS:    2369655  iHIT:    2144855  iMISS:     224800  dACCESS:    2721617  dHIT:    2209607  dMISS:     512010  itACCESS:      17504  itHIT:       6530  itMISS:      10974  dtACCESS:      67789  dtHIT:      36143  dtMISS:      31646
LLC LOAD         ACCESS:    1402980  HIT:    1232986  MISS:     169994  iACCESS:     624431  iHIT:     576259  iMISS:      48172  dACCESS:     778549  dHIT:     656727  dMISS:     121822  itACCESS:          0  itHIT:          0  itMISS:          0  dtACCESS:          0  dtHIT:          0  dtMISS:          0
LLC RFO          ACCESS:     106324  HIT:      71553  MISS:      34771  iACCESS:          0  iHIT:          0  iMISS:          0  dACCESS:     106324  dHIT:      71553  dMISS:      34771  itACCESS:          0  itHIT:          0  itMISS:          0  dtACCESS:          0  dtHIT:          0  dtMISS:          0
LLC PREFETCH     ACCESS:    3448531  HIT:    2925499  MISS:     523032  iACCESS:    1745224  iHIT:    1568596  iMISS:     176628  dACCESS:    1703307  dHIT:    1356903  dMISS:     346404  itACCESS:          0  itHIT:          0  itMISS:          0  dtACCESS:          0  dtHIT:          0  dtMISS:          0
LLC WRITE        ACCESS:     133437  HIT:     124424  MISS:       9013  iACCESS:          0  iHIT:          0  iMISS:          0  dACCESS:     133437  dHIT:     124424  dMISS:       9013  itACCESS:          0  itHIT:          0  itMISS:          0  dtACCESS:          0  dtHIT:          0  dtMISS:          0
LLC TRANSLATION  ACCESS:      85293  HIT:      42673  MISS:      42620  iACCESS:          0  iHIT:          0  iMISS:          0  dACCESS:          0  dHIT:          0  dMISS:          0  itACCESS:      17504  itHIT:       6530  itMISS:      10974  dtACCESS:      67789  dtHIT:      36143  dtMISS:      31646
LLC PREFETCH  REQUESTED:          0  ISSUED:          0  CROSSED:          0  USEFUL:          0  USELESS:          0
LLC AVERAGE iMISS LATENCY: 42.4103 cycles
LLC AVERAGE dMISS LATENCY: 104.685 cycles
LLC AVERAGE itMISS LATENCY: 2.40308 cycles
LLC AVERAGE dtMISS LATENCY: 7.16175 cycles
LLC PAGE CROSSINGS (TLB HIT):         0 
LLC PAGE CROSSINGS (TLB MISS):         0 
LLC AVERAGE MISS LATENCY: 156.66 cycles

PageTableWalker TOTAL       ACCESS:      83198  
PageTableWalker AVERAGE LATENCY: 4.5651 cycles
PageTableWalker TOTAL LATENCY: 379807 cycles

DRAM Statistics
Channel 0
 RQ ROW_BUFFER_HIT:     212205
  ROW_BUFFER_MISS:     558170
 AVG DBUS CONGESTED CYCLE:    3.62878
 WQ ROW_BUFFER_HIT:      14955
  ROW_BUFFER_MISS:      21197  FULL:          0

