last_page:0x200000000000000
VMEM_RES_CAP:0x100000
PAGE_SIZE:4096
LOG2_PAGE_SIZE:12
LOG2_PAGE_TABLE_SIZE:9
page_table_levels:5
WARNING: physical memory size is smaller than virtual memory size
FDiP enabled with aggresivity 16

*** ChampSim Multicore Out-of-Order Simulator ***

Warmup Instructions: 50000000
Simulation Instructions: 100000000
Number of CPUs: 1
Small page size: 4096
Large page size: 2097152

CPU 0 Bimodal branch predictor
Basic BTB sets: 1024 ways: 8 indirect buffer size: 4096 RAS size: 64
Instruction page size distrubution: 0
Loading instruction page size distribution from /home/bsc/bsc018186/scratch/itp_asplos25_AE/dump/srv120_ap.pdst
Data page size distrubution: 0
Loading data page size distribution from /home/bsc/bsc018186/scratch/itp_asplos25_AE/dump/srv120_ap.pdst
cpu0_L2C IP-based stride prefetcher
cpu0_L2C is using PTP replacement policy:
	TLB_STRESS_THRESHOLD:0
	PTE_EVICTION_RATIO:0
cpu0_L1D next line prefetcher
CHiRPing...
cpu0_L1I next line prefetcher
Off-chip DRAM Size: 4 GiB Channels: 1 Width: 64-bit Data Rate: 3200 MT/s
Heartbeat CPU 0 instructions: 10000000 cycles: 2500096 heartbeat IPC: 3.99985 cumulative IPC: 3.99985 (Simulation time: 0 hr 0 min 38 sec) 
Heartbeat CPU 0 instructions: 20000002 cycles: 5000116 heartbeat IPC: 3.99997 cumulative IPC: 3.99991 (Simulation time: 0 hr 1 min 19 sec) 
Heartbeat CPU 0 instructions: 30000003 cycles: 7500134 heartbeat IPC: 3.99998 cumulative IPC: 3.99993 (Simulation time: 0 hr 2 min 0 sec) 
Heartbeat CPU 0 instructions: 40000002 cycles: 10000238 heartbeat IPC: 3.99984 cumulative IPC: 3.99991 (Simulation time: 0 hr 2 min 41 sec) 
Heartbeat CPU 0 instructions: 50000002 cycles: 12500321 heartbeat IPC: 3.99987 cumulative IPC: 3.9999 (Simulation time: 0 hr 3 min 22 sec) 
Warmup finished CPU 0 instructions: 50000002 cycles: 12500322 cumulative IPC: 3.9999 (Simulation time: 0 hr 3 min 22 sec) 

Warmup complete CPU 0 instructions: 50000002 cycles: 12500322 (Simulation time: 0 hr 3 min 22 sec) 

Heartbeat CPU 0 instructions: 60000001 cycles: 26116881 heartbeat IPC: 0.7344 cumulative IPC: 0.7344 (Simulation time: 0 hr 4 min 27 sec) 
Heartbeat CPU 0 instructions: 70000003 cycles: 40139045 heartbeat IPC: 0.713157 cumulative IPC: 0.723623 (Simulation time: 0 hr 5 min 30 sec) 
Heartbeat CPU 0 instructions: 80000001 cycles: 54440191 heartbeat IPC: 0.699245 cumulative IPC: 0.71531 (Simulation time: 0 hr 6 min 35 sec) 
Heartbeat CPU 0 instructions: 90000000 cycles: 68314458 heartbeat IPC: 0.720759 cumulative IPC: 0.716665 (Simulation time: 0 hr 7 min 38 sec) 
Heartbeat CPU 0 instructions: 100000003 cycles: 83129641 heartbeat IPC: 0.674984 cumulative IPC: 0.707922 (Simulation time: 0 hr 8 min 43 sec) 
*** Reached end of trace: /gpfs/projects/bsc18/MN4/bsc18/romol/ChampSim/traces/qualcomm_srv/srv120_ap.champsimtrace.xz
Heartbeat CPU 0 instructions: 110000002 cycles: 96933279 heartbeat IPC: 0.724447 cumulative IPC: 0.710623 (Simulation time: 0 hr 9 min 47 sec) 
Heartbeat CPU 0 instructions: 120000001 cycles: 110700076 heartbeat IPC: 0.726386 cumulative IPC: 0.712833 (Simulation time: 0 hr 10 min 50 sec) 
Heartbeat CPU 0 instructions: 130000000 cycles: 125010153 heartbeat IPC: 0.698809 cumulative IPC: 0.711049 (Simulation time: 0 hr 11 min 54 sec) 
Heartbeat CPU 0 instructions: 140000003 cycles: 139509663 heartbeat IPC: 0.689679 cumulative IPC: 0.70861 (Simulation time: 0 hr 12 min 59 sec) 
Heartbeat CPU 0 instructions: 150000000 cycles: 153579065 heartbeat IPC: 0.710763 cumulative IPC: 0.708824 (Simulation time: 0 hr 14 min 3 sec) 
Simulation finished CPU 0 instructions: 100000001 cycles: 141078745 cumulative IPC: 0.708825 (Simulation time: 0 hr 14 min 3 sec) 

Simulation complete CPU 0 instructions: 100000001 cycles: 141078745 (Simulation time: 0 hr 14 min 3 sec) 


ChampSim completed all CPUs

Saving instructions large page distribution to /home/bsc/bsc018186/scratch/itp_asplos25_AE/dump/srv120_ap.pdst...
Saving data large page distribution to /home/bsc/bsc018186/scratch/itp_asplos25_AE/dump/srv120_ap.pdst...
=== Simulation ===
CPU 0 runs /gpfs/projects/bsc18/MN4/bsc18/romol/ChampSim/traces/qualcomm_srv/srv120_ap.champsimtrace.xz

Region of Interest Statistics

CPU 0 cumulative IPC: 0.708825 instructions: 100000001 cycles: 141078745
CPU 0 Branch Prediction Accuracy: 83.4627% MPKI: 29.6919 Average ROB Occupancy at Mispredict: 12.5693
Branch type MPKI
BRANCH_DIRECT_JUMP: 0.94909
BRANCH_INDIRECT: 15.3879
BRANCH_CONDITIONAL: 9.73313
BRANCH_DIRECT_CALL: 1.81627
BRANCH_INDIRECT_CALL: 0.49029
BRANCH_RETURN: 1.31521

Instructions large pages: 0
Instructions small pages: 1007
Large page distribution for instructions: 0%

Data large pages: 0
Data small pages: 9374
Large page distribution for data: 0%

cpu0_L1I TOTAL       ACCESS:   35026646  HIT:   26489287  MISS:    8537359  iACCESS:   35026646  iHIT:   26489287  iMISS:    8537359  dACCESS:          0  dHIT:          0  dMISS:          0  itACCESS:          0  itHIT:          0  itMISS:          0  dtACCESS:          0  dtHIT:          0  dtMISS:          0
cpu0_L1I LOAD         ACCESS:   10193307  HIT:    7806195  MISS:    2387112  iACCESS:   10193307  iHIT:    7806195  iMISS:    2387112  dACCESS:          0  dHIT:          0  dMISS:          0  itACCESS:          0  itHIT:          0  itMISS:          0  dtACCESS:          0  dtHIT:          0  dtMISS:          0
cpu0_L1I RFO          ACCESS:          0  HIT:          0  MISS:          0  iACCESS:          0  iHIT:          0  iMISS:          0  dACCESS:          0  dHIT:          0  dMISS:          0  itACCESS:          0  itHIT:          0  itMISS:          0  dtACCESS:          0  dtHIT:          0  dtMISS:          0
cpu0_L1I PREFETCH     ACCESS:   24833339  HIT:   18683092  MISS:    6150247  iACCESS:   24833339  iHIT:   18683092  iMISS:    6150247  dACCESS:          0  dHIT:          0  dMISS:          0  itACCESS:          0  itHIT:          0  itMISS:          0  dtACCESS:          0  dtHIT:          0  dtMISS:          0
cpu0_L1I WRITE        ACCESS:          0  HIT:          0  MISS:          0  iACCESS:          0  iHIT:          0  iMISS:          0  dACCESS:          0  dHIT:          0  dMISS:          0  itACCESS:          0  itHIT:          0  itMISS:          0  dtACCESS:          0  dtHIT:          0  dtMISS:          0
cpu0_L1I TRANSLATION  ACCESS:          0  HIT:          0  MISS:          0  iACCESS:          0  iHIT:          0  iMISS:          0  dACCESS:          0  dHIT:          0  dMISS:          0  itACCESS:          0  itHIT:          0  itMISS:          0  dtACCESS:          0  dtHIT:          0  dtMISS:          0
cpu0_L1I PREFETCH  REQUESTED:   27064401  ISSUED:   27059852  CROSSED:          0  USEFUL:    1925211  USELESS:     632261
cpu0_L1I AVERAGE iMISS LATENCY: 14.0775 cycles
cpu0_L1I AVERAGE dMISS LATENCY: 0 cycles
cpu0_L1I AVERAGE itMISS LATENCY: 0 cycles
cpu0_L1I AVERAGE dtMISS LATENCY: 0 cycles
cpu0_L1I PAGE CROSSINGS (TLB HIT):         0 
cpu0_L1I PAGE CROSSINGS (TLB MISS):         0 
cpu0_L1I AVERAGE MISS LATENCY: 14.0775 cycles
cpu0_ITLB TOTAL       ACCESS:   28957663  HIT:   26965687  MISS:    1991976  iACCESS:   28957663  iHIT:   26965687  iMISS:    1991976  dACCESS:          0  dHIT:          0  dMISS:          0  itACCESS:          0  itHIT:          0  itMISS:          0  dtACCESS:          0  dtHIT:          0  dtMISS:          0
cpu0_ITLB LOAD         ACCESS:   28957663  HIT:   26965687  MISS:    1991976  iACCESS:   28957663  iHIT:   26965687  iMISS:    1991976  dACCESS:          0  dHIT:          0  dMISS:          0  itACCESS:          0  itHIT:          0  itMISS:          0  dtACCESS:          0  dtHIT:          0  dtMISS:          0
cpu0_ITLB RFO          ACCESS:          0  HIT:          0  MISS:          0  iACCESS:          0  iHIT:          0  iMISS:          0  dACCESS:          0  dHIT:          0  dMISS:          0  itACCESS:          0  itHIT:          0  itMISS:          0  dtACCESS:          0  dtHIT:          0  dtMISS:          0
cpu0_ITLB PREFETCH     ACCESS:          0  HIT:          0  MISS:          0  iACCESS:          0  iHIT:          0  iMISS:          0  dACCESS:          0  dHIT:          0  dMISS:          0  itACCESS:          0  itHIT:          0  itMISS:          0  dtACCESS:          0  dtHIT:          0  dtMISS:          0
cpu0_ITLB WRITE        ACCESS:          0  HIT:          0  MISS:          0  iACCESS:          0  iHIT:          0  iMISS:          0  dACCESS:          0  dHIT:          0  dMISS:          0  itACCESS:          0  itHIT:          0  itMISS:          0  dtACCESS:          0  dtHIT:          0  dtMISS:          0
cpu0_ITLB TRANSLATION  ACCESS:          0  HIT:          0  MISS:          0  iACCESS:          0  iHIT:          0  iMISS:          0  dACCESS:          0  dHIT:          0  dMISS:          0  itACCESS:          0  itHIT:          0  itMISS:          0  dtACCESS:          0  dtHIT:          0  dtMISS:          0
cpu0_ITLB PREFETCH  REQUESTED:          0  ISSUED:          0  CROSSED:          0  USEFUL:     324572  USELESS:      62406
cpu0_ITLB AVERAGE iMISS LATENCY: 2.73964 cycles
cpu0_ITLB AVERAGE dMISS LATENCY: 0 cycles
cpu0_ITLB AVERAGE itMISS LATENCY: 0 cycles
cpu0_ITLB AVERAGE dtMISS LATENCY: 0 cycles
cpu0_ITLB PAGE CROSSINGS (TLB HIT):         0 
cpu0_ITLB PAGE CROSSINGS (TLB MISS):         0 
cpu0_ITLB AVERAGE MISS LATENCY: 2.73964 cycles
cpu0_DTLB TOTAL       ACCESS:   27711699  HIT:   25657283  MISS:    2054416  iACCESS:          0  iHIT:          0  iMISS:          0  dACCESS:   27711699  dHIT:   25657283  dMISS:    2054416  itACCESS:          0  itHIT:          0  itMISS:          0  dtACCESS:          0  dtHIT:          0  dtMISS:          0
cpu0_DTLB LOAD         ACCESS:   27711699  HIT:   25657283  MISS:    2054416  iACCESS:          0  iHIT:          0  iMISS:          0  dACCESS:   27711699  dHIT:   25657283  dMISS:    2054416  itACCESS:          0  itHIT:          0  itMISS:          0  dtACCESS:          0  dtHIT:          0  dtMISS:          0
cpu0_DTLB RFO          ACCESS:          0  HIT:          0  MISS:          0  iACCESS:          0  iHIT:          0  iMISS:          0  dACCESS:          0  dHIT:          0  dMISS:          0  itACCESS:          0  itHIT:          0  itMISS:          0  dtACCESS:          0  dtHIT:          0  dtMISS:          0
cpu0_DTLB PREFETCH     ACCESS:          0  HIT:          0  MISS:          0  iACCESS:          0  iHIT:          0  iMISS:          0  dACCESS:          0  dHIT:          0  dMISS:          0  itACCESS:          0  itHIT:          0  itMISS:          0  dtACCESS:          0  dtHIT:          0  dtMISS:          0
cpu0_DTLB WRITE        ACCESS:          0  HIT:          0  MISS:          0  iACCESS:          0  iHIT:          0  iMISS:          0  dACCESS:          0  dHIT:          0  dMISS:          0  itACCESS:          0  itHIT:          0  itMISS:          0  dtACCESS:          0  dtHIT:          0  dtMISS:          0
cpu0_DTLB TRANSLATION  ACCESS:          0  HIT:          0  MISS:          0  iACCESS:          0  iHIT:          0  iMISS:          0  dACCESS:          0  dHIT:          0  dMISS:          0  itACCESS:          0  itHIT:          0  itMISS:          0  dtACCESS:          0  dtHIT:          0  dtMISS:          0
cpu0_DTLB PREFETCH  REQUESTED:          0  ISSUED:          0  CROSSED:          0  USEFUL:          0  USELESS:          0
cpu0_DTLB AVERAGE iMISS LATENCY: 0 cycles
cpu0_DTLB AVERAGE dMISS LATENCY: 8.59839 cycles
cpu0_DTLB AVERAGE itMISS LATENCY: 0 cycles
cpu0_DTLB AVERAGE dtMISS LATENCY: 0 cycles
cpu0_DTLB PAGE CROSSINGS (TLB HIT):         0 
cpu0_DTLB PAGE CROSSINGS (TLB MISS):         0 
cpu0_DTLB AVERAGE MISS LATENCY: 8.59839 cycles
cpu0_STLB TOTAL       ACCESS:    1646921  HIT:    1484543  MISS:     162378  iACCESS:     387052  iHIT:     330348  iMISS:      56704  dACCESS:    1259869  dHIT:    1154195  dMISS:     105674  itACCESS:          0  itHIT:          0  itMISS:          0  dtACCESS:          0  dtHIT:          0  dtMISS:          0
cpu0_STLB LOAD         ACCESS:    1646921  HIT:    1484543  MISS:     162378  iACCESS:     387052  iHIT:     330348  iMISS:      56704  dACCESS:    1259869  dHIT:    1154195  dMISS:     105674  itACCESS:          0  itHIT:          0  itMISS:          0  dtACCESS:          0  dtHIT:          0  dtMISS:          0
cpu0_STLB RFO          ACCESS:          0  HIT:          0  MISS:          0  iACCESS:          0  iHIT:          0  iMISS:          0  dACCESS:          0  dHIT:          0  dMISS:          0  itACCESS:          0  itHIT:          0  itMISS:          0  dtACCESS:          0  dtHIT:          0  dtMISS:          0
cpu0_STLB PREFETCH     ACCESS:          0  HIT:          0  MISS:          0  iACCESS:          0  iHIT:          0  iMISS:          0  dACCESS:          0  dHIT:          0  dMISS:          0  itACCESS:          0  itHIT:          0  itMISS:          0  dtACCESS:          0  dtHIT:          0  dtMISS:          0
cpu0_STLB WRITE        ACCESS:          0  HIT:          0  MISS:          0  iACCESS:          0  iHIT:          0  iMISS:          0  dACCESS:          0  dHIT:          0  dMISS:          0  itACCESS:          0  itHIT:          0  itMISS:          0  dtACCESS:          0  dtHIT:          0  dtMISS:          0
cpu0_STLB TRANSLATION  ACCESS:          0  HIT:          0  MISS:          0  iACCESS:          0  iHIT:          0  iMISS:          0  dACCESS:          0  dHIT:          0  dMISS:          0  itACCESS:          0  itHIT:          0  itMISS:          0  dtACCESS:          0  dtHIT:          0  dtMISS:          0
cpu0_STLB PREFETCH  REQUESTED:          0  ISSUED:          0  CROSSED:          0  USEFUL:          0  USELESS:          0
cpu0_STLB AVERAGE iMISS LATENCY: 14.8004 cycles
cpu0_STLB AVERAGE dMISS LATENCY: 47.0116 cycles
cpu0_STLB AVERAGE itMISS LATENCY: 0 cycles
cpu0_STLB AVERAGE dtMISS LATENCY: 0 cycles
cpu0_STLB PAGE CROSSINGS (TLB HIT):         0 
cpu0_STLB PAGE CROSSINGS (TLB MISS):         0 
cpu0_STLB AVERAGE MISS LATENCY: 61.8119 cycles
cpu0_L1D TOTAL       ACCESS:   41558044  HIT:   37879074  MISS:    3678970  iACCESS:          0  iHIT:          0  iMISS:          0  dACCESS:   41331430  dHIT:   37859270  dMISS:    3472160  itACCESS:      61470  itHIT:       8999  itMISS:      52471  dtACCESS:     165144  dtHIT:      10805  dtMISS:     154339
cpu0_L1D LOAD         ACCESS:   18965441  HIT:   17381859  MISS:    1583582  iACCESS:          0  iHIT:          0  iMISS:          0  dACCESS:   18965441  dHIT:   17381859  dMISS:    1583582  itACCESS:          0  itHIT:          0  itMISS:          0  dtACCESS:          0  dtHIT:          0  dtMISS:          0
cpu0_L1D RFO          ACCESS:          0  HIT:          0  MISS:          0  iACCESS:          0  iHIT:          0  iMISS:          0  dACCESS:          0  dHIT:          0  dMISS:          0  itACCESS:          0  itHIT:          0  itMISS:          0  dtACCESS:          0  dtHIT:          0  dtMISS:          0
cpu0_L1D PREFETCH     ACCESS:   12209843  HIT:   10774528  MISS:    1435315  iACCESS:          0  iHIT:          0  iMISS:          0  dACCESS:   12209843  dHIT:   10774528  dMISS:    1435315  itACCESS:          0  itHIT:          0  itMISS:          0  dtACCESS:          0  dtHIT:          0  dtMISS:          0
cpu0_L1D WRITE        ACCESS:   10156146  HIT:    9702883  MISS:     453263  iACCESS:          0  iHIT:          0  iMISS:          0  dACCESS:   10156146  dHIT:    9702883  dMISS:     453263  itACCESS:          0  itHIT:          0  itMISS:          0  dtACCESS:          0  dtHIT:          0  dtMISS:          0
cpu0_L1D TRANSLATION  ACCESS:     226614  HIT:      19804  MISS:     206810  iACCESS:          0  iHIT:          0  iMISS:          0  dACCESS:          0  dHIT:          0  dMISS:          0  itACCESS:      61470  itHIT:       8999  itMISS:      52471  dtACCESS:     165144  dtHIT:      10805  dtMISS:     154339
cpu0_L1D PREFETCH  REQUESTED:   18965441  ISSUED:   16975328  CROSSED:          0  USEFUL:     309005  USELESS:     706245
cpu0_L1D AVERAGE iMISS LATENCY: 0 cycles
cpu0_L1D AVERAGE dMISS LATENCY: 34.8618 cycles
cpu0_L1D AVERAGE itMISS LATENCY: 0.514464 cycles
cpu0_L1D AVERAGE dtMISS LATENCY: 1.45802 cycles
cpu0_L1D PAGE CROSSINGS (TLB HIT):         0 
cpu0_L1D PAGE CROSSINGS (TLB MISS):         0 
cpu0_L1D AVERAGE MISS LATENCY: 36.8343 cycles
cpu0_L2C TOTAL       ACCESS:    7010825  HIT:    1261078  MISS:    5749747  iACCESS:    3311545  iHIT:     740978  iMISS:    2570567  dACCESS:    3507396  dHIT:     364859  dMISS:    3142537  itACCESS:      52471  itHIT:      40909  itMISS:      11562  dtACCESS:     139413  dtHIT:     114332  dtMISS:      25081
cpu0_L2C LOAD         ACCESS:    1733612  HIT:     154599  MISS:    1579013  iACCESS:     792474  iHIT:     117484  iMISS:     674990  dACCESS:     941138  dHIT:      37115  dMISS:     904023  itACCESS:          0  itHIT:          0  itMISS:          0  dtACCESS:          0  dtHIT:          0  dtMISS:          0
cpu0_L2C RFO          ACCESS:     156927  HIT:       7588  MISS:     149339  iACCESS:          0  iHIT:          0  iMISS:          0  dACCESS:     156927  dHIT:       7588  dMISS:     149339  itACCESS:          0  itHIT:          0  itMISS:          0  dtACCESS:          0  dtHIT:          0  dtMISS:          0
cpu0_L2C PREFETCH     ACCESS:    4642244  HIT:     892044  MISS:    3750200  iACCESS:    2519071  iHIT:     623494  iMISS:    1895577  dACCESS:    2123173  dHIT:     268550  dMISS:    1854623  itACCESS:          0  itHIT:          0  itMISS:          0  dtACCESS:          0  dtHIT:          0  dtMISS:          0
cpu0_L2C WRITE        ACCESS:     286158  HIT:      51606  MISS:     234552  iACCESS:          0  iHIT:          0  iMISS:          0  dACCESS:     286158  dHIT:      51606  dMISS:     234552  itACCESS:          0  itHIT:          0  itMISS:          0  dtACCESS:          0  dtHIT:          0  dtMISS:          0
cpu0_L2C TRANSLATION  ACCESS:     191884  HIT:     155241  MISS:      36643  iACCESS:          0  iHIT:          0  iMISS:          0  dACCESS:          0  dHIT:          0  dMISS:          0  itACCESS:      52471  itHIT:      40909  itMISS:      11562  dtACCESS:     139413  dtHIT:     114332  dtMISS:      25081
cpu0_L2C PREFETCH  REQUESTED:    1393834  ISSUED:    1393834  CROSSED:          0  USEFUL:     415718  USELESS:     395407
cpu0_L2C AVERAGE iMISS LATENCY: 15.4944 cycles
cpu0_L2C AVERAGE dMISS LATENCY: 25.9079 cycles
cpu0_L2C AVERAGE itMISS LATENCY: 0.244845 cycles
cpu0_L2C AVERAGE dtMISS LATENCY: 0.709102 cycles
cpu0_L2C PAGE CROSSINGS (TLB HIT):         0 
cpu0_L2C PAGE CROSSINGS (TLB MISS):         0 
cpu0_L2C AVERAGE MISS LATENCY: 42.3562 cycles
LLC TOTAL       ACCESS:    5656805  HIT:    4793176  MISS:     863629  iACCESS:    2508917  iHIT:    2238877  iMISS:     270040  dACCESS:    3111245  dHIT:    2544401  dMISS:     566844  itACCESS:      11562  itHIT:       4825  itMISS:       6737  dtACCESS:      25081  dtHIT:       5073  dtMISS:      20008
LLC LOAD         ACCESS:    1576041  HIT:    1375330  MISS:     200711  iACCESS:     672988  iHIT:     616254  iMISS:      56734  dACCESS:     903053  dHIT:     759076  dMISS:     143977  itACCESS:          0  itHIT:          0  itMISS:          0  dtACCESS:          0  dtHIT:          0  dtMISS:          0
LLC RFO          ACCESS:     149337  HIT:     107025  MISS:      42312  iACCESS:          0  iHIT:          0  iMISS:          0  dACCESS:     149337  dHIT:     107025  dMISS:      42312  itACCESS:          0  itHIT:          0  itMISS:          0  dtACCESS:          0  dtHIT:          0  dtMISS:          0
LLC PREFETCH     ACCESS:    3632145  HIT:    3038284  MISS:     593861  iACCESS:    1835929  iHIT:    1622623  iMISS:     213306  dACCESS:    1796216  dHIT:    1415661  dMISS:     380555  itACCESS:          0  itHIT:          0  itMISS:          0  dtACCESS:          0  dtHIT:          0  dtMISS:          0
LLC WRITE        ACCESS:     262639  HIT:     262639  MISS:          0  iACCESS:          0  iHIT:          0  iMISS:          0  dACCESS:     262639  dHIT:     262639  dMISS:          0  itACCESS:          0  itHIT:          0  itMISS:          0  dtACCESS:          0  dtHIT:          0  dtMISS:          0
LLC TRANSLATION  ACCESS:      36643  HIT:       9898  MISS:      26745  iACCESS:          0  iHIT:          0  iMISS:          0  dACCESS:          0  dHIT:          0  dMISS:          0  itACCESS:      11562  itHIT:       4825  itMISS:       6737  dtACCESS:      25081  dtHIT:       5073  dtMISS:      20008
LLC PREFETCH  REQUESTED:          0  ISSUED:          0  CROSSED:          0  USEFUL:          0  USELESS:          0
LLC AVERAGE iMISS LATENCY: 47.0394 cycles
LLC AVERAGE dMISS LATENCY: 109.141 cycles
LLC AVERAGE itMISS LATENCY: 1.36844 cycles
LLC AVERAGE dtMISS LATENCY: 4.14875 cycles
LLC PAGE CROSSINGS (TLB HIT):         0 
LLC PAGE CROSSINGS (TLB MISS):         0 
LLC AVERAGE MISS LATENCY: 161.698 cycles

PageTableWalker TOTAL       ACCESS:      81725  
PageTableWalker AVERAGE LATENCY: 4.11421 cycles
PageTableWalker TOTAL LATENCY: 336233 cycles

DRAM Statistics
Channel 0
 RQ ROW_BUFFER_HIT:     235322
  ROW_BUFFER_MISS:     627765
 AVG DBUS CONGESTED CYCLE:    3.63718
 WQ ROW_BUFFER_HIT:      22427
  ROW_BUFFER_MISS:      32824  FULL:          0

