last_page:0x200000000000000
VMEM_RES_CAP:0x100000
PAGE_SIZE:4096
LOG2_PAGE_SIZE:12
LOG2_PAGE_TABLE_SIZE:9
page_table_levels:5
WARNING: physical memory size is smaller than virtual memory size
FDiP enabled with aggresivity 16

*** ChampSim Multicore Out-of-Order Simulator ***

Warmup Instructions: 50000000
Simulation Instructions: 100000000
Number of CPUs: 1
Small page size: 4096
Large page size: 2097152

CPU 0 Bimodal branch predictor
Basic BTB sets: 1024 ways: 8 indirect buffer size: 4096 RAS size: 64
Instruction page size distrubution: 0
Loading instruction page size distribution from /home/bsc/bsc018186/scratch/itp_asplos25_AE/dump/srv16_ap.pdst
Data page size distrubution: 0
Loading data page size distribution from /home/bsc/bsc018186/scratch/itp_asplos25_AE/dump/srv16_ap.pdst
cpu0_L2C IP-based stride prefetcher
cpu0_L2C is using PTP replacement policy:
	TLB_STRESS_THRESHOLD:0
	PTE_EVICTION_RATIO:0
cpu0_L1D next line prefetcher
CHiRPing...
cpu0_L1I next line prefetcher
Off-chip DRAM Size: 4 GiB Channels: 1 Width: 64-bit Data Rate: 3200 MT/s
Heartbeat CPU 0 instructions: 10000002 cycles: 2500246 heartbeat IPC: 3.99961 cumulative IPC: 3.99961 (Simulation time: 0 hr 0 min 39 sec) 
Heartbeat CPU 0 instructions: 20000003 cycles: 5000264 heartbeat IPC: 3.99998 cumulative IPC: 3.99979 (Simulation time: 0 hr 1 min 19 sec) 
Heartbeat CPU 0 instructions: 30000002 cycles: 7500345 heartbeat IPC: 3.99988 cumulative IPC: 3.99982 (Simulation time: 0 hr 2 min 0 sec) 
Heartbeat CPU 0 instructions: 40000002 cycles: 10000346 heartbeat IPC: 4 cumulative IPC: 3.99987 (Simulation time: 0 hr 2 min 41 sec) 
Heartbeat CPU 0 instructions: 50000001 cycles: 12500381 heartbeat IPC: 3.99995 cumulative IPC: 3.99988 (Simulation time: 0 hr 3 min 23 sec) 
Warmup finished CPU 0 instructions: 50000001 cycles: 12500382 cumulative IPC: 3.99988 (Simulation time: 0 hr 3 min 23 sec) 

Warmup complete CPU 0 instructions: 50000001 cycles: 12500382 (Simulation time: 0 hr 3 min 23 sec) 

Heartbeat CPU 0 instructions: 60000001 cycles: 26337405 heartbeat IPC: 0.722699 cumulative IPC: 0.722699 (Simulation time: 0 hr 4 min 27 sec) 
Heartbeat CPU 0 instructions: 70000004 cycles: 40328077 heartbeat IPC: 0.714763 cumulative IPC: 0.718709 (Simulation time: 0 hr 5 min 31 sec) 
Heartbeat CPU 0 instructions: 80000003 cycles: 54444350 heartbeat IPC: 0.708403 cumulative IPC: 0.71524 (Simulation time: 0 hr 6 min 35 sec) 
Heartbeat CPU 0 instructions: 90000000 cycles: 68546256 heartbeat IPC: 0.709124 cumulative IPC: 0.713702 (Simulation time: 0 hr 7 min 39 sec) 
Heartbeat CPU 0 instructions: 100000001 cycles: 82617023 heartbeat IPC: 0.710694 cumulative IPC: 0.713098 (Simulation time: 0 hr 8 min 43 sec) 
*** Reached end of trace: /gpfs/projects/bsc18/MN4/bsc18/romol/ChampSim/traces/qualcomm_srv/srv16_ap.champsimtrace.xz
Heartbeat CPU 0 instructions: 110000002 cycles: 96977870 heartbeat IPC: 0.696338 cumulative IPC: 0.710249 (Simulation time: 0 hr 9 min 47 sec) 
Heartbeat CPU 0 instructions: 120000002 cycles: 110594125 heartbeat IPC: 0.734417 cumulative IPC: 0.713604 (Simulation time: 0 hr 10 min 51 sec) 
Heartbeat CPU 0 instructions: 130000002 cycles: 124676978 heartbeat IPC: 0.710084 cumulative IPC: 0.713162 (Simulation time: 0 hr 11 min 55 sec) 
Heartbeat CPU 0 instructions: 140000000 cycles: 138204997 heartbeat IPC: 0.739207 cumulative IPC: 0.715965 (Simulation time: 0 hr 12 min 57 sec) 
Heartbeat CPU 0 instructions: 150000001 cycles: 152406436 heartbeat IPC: 0.704155 cumulative IPC: 0.714766 (Simulation time: 0 hr 13 min 59 sec) 
Simulation finished CPU 0 instructions: 100000000 cycles: 139906055 cumulative IPC: 0.714766 (Simulation time: 0 hr 13 min 59 sec) 

Simulation complete CPU 0 instructions: 100000000 cycles: 139906055 (Simulation time: 0 hr 13 min 59 sec) 


ChampSim completed all CPUs

Saving instructions large page distribution to /home/bsc/bsc018186/scratch/itp_asplos25_AE/dump/srv16_ap.pdst...
Saving data large page distribution to /home/bsc/bsc018186/scratch/itp_asplos25_AE/dump/srv16_ap.pdst...
=== Simulation ===
CPU 0 runs /gpfs/projects/bsc18/MN4/bsc18/romol/ChampSim/traces/qualcomm_srv/srv16_ap.champsimtrace.xz

Region of Interest Statistics

CPU 0 cumulative IPC: 0.714766 instructions: 100000000 cycles: 139906055
CPU 0 Branch Prediction Accuracy: 83.3333% MPKI: 29.9146 Average ROB Occupancy at Mispredict: 12.2573
Branch type MPKI
BRANCH_DIRECT_JUMP: 0.965031
BRANCH_INDIRECT: 15.5278
BRANCH_CONDITIONAL: 9.75805
BRANCH_DIRECT_CALL: 1.83743
BRANCH_INDIRECT_CALL: 0.492221
BRANCH_RETURN: 1.33412

Instructions large pages: 0
Instructions small pages: 9894
Large page distribution for instructions: 0%

Data large pages: 0
Data small pages: 9057
Large page distribution for data: 0%

cpu0_L1I TOTAL       ACCESS:   35170383  HIT:   26527140  MISS:    8643243  iACCESS:   35170383  iHIT:   26527140  iMISS:    8643243  dACCESS:          0  dHIT:          0  dMISS:          0  itACCESS:          0  itHIT:          0  itMISS:          0  dtACCESS:          0  dtHIT:          0  dtMISS:          0
cpu0_L1I LOAD         ACCESS:   10253730  HIT:    7830247  MISS:    2423483  iACCESS:   10253730  iHIT:    7830247  iMISS:    2423483  dACCESS:          0  dHIT:          0  dMISS:          0  itACCESS:          0  itHIT:          0  itMISS:          0  dtACCESS:          0  dtHIT:          0  dtMISS:          0
cpu0_L1I RFO          ACCESS:          0  HIT:          0  MISS:          0  iACCESS:          0  iHIT:          0  iMISS:          0  dACCESS:          0  dHIT:          0  dMISS:          0  itACCESS:          0  itHIT:          0  itMISS:          0  dtACCESS:          0  dtHIT:          0  dtMISS:          0
cpu0_L1I PREFETCH     ACCESS:   24916653  HIT:   18696893  MISS:    6219760  iACCESS:   24916653  iHIT:   18696893  iMISS:    6219760  dACCESS:          0  dHIT:          0  dMISS:          0  itACCESS:          0  itHIT:          0  itMISS:          0  dtACCESS:          0  dtHIT:          0  dtMISS:          0
cpu0_L1I WRITE        ACCESS:          0  HIT:          0  MISS:          0  iACCESS:          0  iHIT:          0  iMISS:          0  dACCESS:          0  dHIT:          0  dMISS:          0  itACCESS:          0  itHIT:          0  itMISS:          0  dtACCESS:          0  dtHIT:          0  dtMISS:          0
cpu0_L1I TRANSLATION  ACCESS:          0  HIT:          0  MISS:          0  iACCESS:          0  iHIT:          0  iMISS:          0  dACCESS:          0  dHIT:          0  dMISS:          0  itACCESS:          0  itHIT:          0  itMISS:          0  dtACCESS:          0  dtHIT:          0  dtMISS:          0
cpu0_L1I PREFETCH  REQUESTED:   27146466  ISSUED:   27141519  CROSSED:          0  USEFUL:    1942759  USELESS:     636887
cpu0_L1I AVERAGE iMISS LATENCY: 13.6746 cycles
cpu0_L1I AVERAGE dMISS LATENCY: 0 cycles
cpu0_L1I AVERAGE itMISS LATENCY: 0 cycles
cpu0_L1I AVERAGE dtMISS LATENCY: 0 cycles
cpu0_L1I PAGE CROSSINGS (TLB HIT):         0 
cpu0_L1I PAGE CROSSINGS (TLB MISS):         0 
cpu0_L1I AVERAGE MISS LATENCY: 13.6746 cycles
cpu0_ITLB TOTAL       ACCESS:   29065154  HIT:   27070853  MISS:    1994301  iACCESS:   29065154  iHIT:   27070853  iMISS:    1994301  dACCESS:          0  dHIT:          0  dMISS:          0  itACCESS:          0  itHIT:          0  itMISS:          0  dtACCESS:          0  dtHIT:          0  dtMISS:          0
cpu0_ITLB LOAD         ACCESS:   29065154  HIT:   27070853  MISS:    1994301  iACCESS:   29065154  iHIT:   27070853  iMISS:    1994301  dACCESS:          0  dHIT:          0  dMISS:          0  itACCESS:          0  itHIT:          0  itMISS:          0  dtACCESS:          0  dtHIT:          0  dtMISS:          0
cpu0_ITLB RFO          ACCESS:          0  HIT:          0  MISS:          0  iACCESS:          0  iHIT:          0  iMISS:          0  dACCESS:          0  dHIT:          0  dMISS:          0  itACCESS:          0  itHIT:          0  itMISS:          0  dtACCESS:          0  dtHIT:          0  dtMISS:          0
cpu0_ITLB PREFETCH     ACCESS:          0  HIT:          0  MISS:          0  iACCESS:          0  iHIT:          0  iMISS:          0  dACCESS:          0  dHIT:          0  dMISS:          0  itACCESS:          0  itHIT:          0  itMISS:          0  dtACCESS:          0  dtHIT:          0  dtMISS:          0
cpu0_ITLB WRITE        ACCESS:          0  HIT:          0  MISS:          0  iACCESS:          0  iHIT:          0  iMISS:          0  dACCESS:          0  dHIT:          0  dMISS:          0  itACCESS:          0  itHIT:          0  itMISS:          0  dtACCESS:          0  dtHIT:          0  dtMISS:          0
cpu0_ITLB TRANSLATION  ACCESS:          0  HIT:          0  MISS:          0  iACCESS:          0  iHIT:          0  iMISS:          0  dACCESS:          0  dHIT:          0  dMISS:          0  itACCESS:          0  itHIT:          0  itMISS:          0  dtACCESS:          0  dtHIT:          0  dtMISS:          0
cpu0_ITLB PREFETCH  REQUESTED:          0  ISSUED:          0  CROSSED:          0  USEFUL:     326944  USELESS:      61946
cpu0_ITLB AVERAGE iMISS LATENCY: 2.56102 cycles
cpu0_ITLB AVERAGE dMISS LATENCY: 0 cycles
cpu0_ITLB AVERAGE itMISS LATENCY: 0 cycles
cpu0_ITLB AVERAGE dtMISS LATENCY: 0 cycles
cpu0_ITLB PAGE CROSSINGS (TLB HIT):         0 
cpu0_ITLB PAGE CROSSINGS (TLB MISS):         0 
cpu0_ITLB AVERAGE MISS LATENCY: 2.56102 cycles
cpu0_DTLB TOTAL       ACCESS:   27736494  HIT:   25631324  MISS:    2105170  iACCESS:          0  iHIT:          0  iMISS:          0  dACCESS:   27736494  dHIT:   25631324  dMISS:    2105170  itACCESS:          0  itHIT:          0  itMISS:          0  dtACCESS:          0  dtHIT:          0  dtMISS:          0
cpu0_DTLB LOAD         ACCESS:   27736494  HIT:   25631324  MISS:    2105170  iACCESS:          0  iHIT:          0  iMISS:          0  dACCESS:   27736494  dHIT:   25631324  dMISS:    2105170  itACCESS:          0  itHIT:          0  itMISS:          0  dtACCESS:          0  dtHIT:          0  dtMISS:          0
cpu0_DTLB RFO          ACCESS:          0  HIT:          0  MISS:          0  iACCESS:          0  iHIT:          0  iMISS:          0  dACCESS:          0  dHIT:          0  dMISS:          0  itACCESS:          0  itHIT:          0  itMISS:          0  dtACCESS:          0  dtHIT:          0  dtMISS:          0
cpu0_DTLB PREFETCH     ACCESS:          0  HIT:          0  MISS:          0  iACCESS:          0  iHIT:          0  iMISS:          0  dACCESS:          0  dHIT:          0  dMISS:          0  itACCESS:          0  itHIT:          0  itMISS:          0  dtACCESS:          0  dtHIT:          0  dtMISS:          0
cpu0_DTLB WRITE        ACCESS:          0  HIT:          0  MISS:          0  iACCESS:          0  iHIT:          0  iMISS:          0  dACCESS:          0  dHIT:          0  dMISS:          0  itACCESS:          0  itHIT:          0  itMISS:          0  dtACCESS:          0  dtHIT:          0  dtMISS:          0
cpu0_DTLB TRANSLATION  ACCESS:          0  HIT:          0  MISS:          0  iACCESS:          0  iHIT:          0  iMISS:          0  dACCESS:          0  dHIT:          0  dMISS:          0  itACCESS:          0  itHIT:          0  itMISS:          0  dtACCESS:          0  dtHIT:          0  dtMISS:          0
cpu0_DTLB PREFETCH  REQUESTED:          0  ISSUED:          0  CROSSED:          0  USEFUL:          0  USELESS:          0
cpu0_DTLB AVERAGE iMISS LATENCY: 0 cycles
cpu0_DTLB AVERAGE dMISS LATENCY: 8.17591 cycles
cpu0_DTLB AVERAGE itMISS LATENCY: 0 cycles
cpu0_DTLB AVERAGE dtMISS LATENCY: 0 cycles
cpu0_DTLB PAGE CROSSINGS (TLB HIT):         0 
cpu0_DTLB PAGE CROSSINGS (TLB MISS):         0 
cpu0_DTLB AVERAGE MISS LATENCY: 8.17591 cycles
cpu0_STLB TOTAL       ACCESS:    1645685  HIT:    1483231  MISS:     162454  iACCESS:     388946  iHIT:     332272  iMISS:      56674  dACCESS:    1256739  dHIT:    1150959  dMISS:     105780  itACCESS:          0  itHIT:          0  itMISS:          0  dtACCESS:          0  dtHIT:          0  dtMISS:          0
cpu0_STLB LOAD         ACCESS:    1645685  HIT:    1483231  MISS:     162454  iACCESS:     388946  iHIT:     332272  iMISS:      56674  dACCESS:    1256739  dHIT:    1150959  dMISS:     105780  itACCESS:          0  itHIT:          0  itMISS:          0  dtACCESS:          0  dtHIT:          0  dtMISS:          0
cpu0_STLB RFO          ACCESS:          0  HIT:          0  MISS:          0  iACCESS:          0  iHIT:          0  iMISS:          0  dACCESS:          0  dHIT:          0  dMISS:          0  itACCESS:          0  itHIT:          0  itMISS:          0  dtACCESS:          0  dtHIT:          0  dtMISS:          0
cpu0_STLB PREFETCH     ACCESS:          0  HIT:          0  MISS:          0  iACCESS:          0  iHIT:          0  iMISS:          0  dACCESS:          0  dHIT:          0  dMISS:          0  itACCESS:          0  itHIT:          0  itMISS:          0  dtACCESS:          0  dtHIT:          0  dtMISS:          0
cpu0_STLB WRITE        ACCESS:          0  HIT:          0  MISS:          0  iACCESS:          0  iHIT:          0  iMISS:          0  dACCESS:          0  dHIT:          0  dMISS:          0  itACCESS:          0  itHIT:          0  itMISS:          0  dtACCESS:          0  dtHIT:          0  dtMISS:          0
cpu0_STLB TRANSLATION  ACCESS:          0  HIT:          0  MISS:          0  iACCESS:          0  iHIT:          0  iMISS:          0  dACCESS:          0  dHIT:          0  dMISS:          0  itACCESS:          0  itHIT:          0  itMISS:          0  dtACCESS:          0  dtHIT:          0  dtMISS:          0
cpu0_STLB PREFETCH  REQUESTED:          0  ISSUED:          0  CROSSED:          0  USEFUL:          0  USELESS:          0
cpu0_STLB AVERAGE iMISS LATENCY: 12.5638 cycles
cpu0_STLB AVERAGE dMISS LATENCY: 44.3451 cycles
cpu0_STLB AVERAGE itMISS LATENCY: 0 cycles
cpu0_STLB AVERAGE dtMISS LATENCY: 0 cycles
cpu0_STLB PAGE CROSSINGS (TLB HIT):         0 
cpu0_STLB PAGE CROSSINGS (TLB MISS):         0 
cpu0_STLB AVERAGE MISS LATENCY: 56.9089 cycles
cpu0_L1D TOTAL       ACCESS:   41552455  HIT:   37983179  MISS:    3569276  iACCESS:          0  iHIT:          0  iMISS:          0  dACCESS:   41329633  dHIT:   37963604  dMISS:    3366029  itACCESS:      61351  itHIT:       9011  itMISS:      52340  dtACCESS:     161471  dtHIT:      10564  dtMISS:     150907
cpu0_L1D LOAD         ACCESS:   18951469  HIT:   17417666  MISS:    1533803  iACCESS:          0  iHIT:          0  iMISS:          0  dACCESS:   18951469  dHIT:   17417666  dMISS:    1533803  itACCESS:          0  itHIT:          0  itMISS:          0  dtACCESS:          0  dtHIT:          0  dtMISS:          0
cpu0_L1D RFO          ACCESS:          0  HIT:          0  MISS:          0  iACCESS:          0  iHIT:          0  iMISS:          0  dACCESS:          0  dHIT:          0  dMISS:          0  itACCESS:          0  itHIT:          0  itMISS:          0  dtACCESS:          0  dtHIT:          0  dtMISS:          0
cpu0_L1D PREFETCH     ACCESS:   12230548  HIT:   10842387  MISS:    1388161  iACCESS:          0  iHIT:          0  iMISS:          0  dACCESS:   12230548  dHIT:   10842387  dMISS:    1388161  itACCESS:          0  itHIT:          0  itMISS:          0  dtACCESS:          0  dtHIT:          0  dtMISS:          0
cpu0_L1D WRITE        ACCESS:   10147616  HIT:    9703551  MISS:     444065  iACCESS:          0  iHIT:          0  iMISS:          0  dACCESS:   10147616  dHIT:    9703551  dMISS:     444065  itACCESS:          0  itHIT:          0  itMISS:          0  dtACCESS:          0  dtHIT:          0  dtMISS:          0
cpu0_L1D TRANSLATION  ACCESS:     222822  HIT:      19575  MISS:     203247  iACCESS:          0  iHIT:          0  iMISS:          0  dACCESS:          0  dHIT:          0  dMISS:          0  itACCESS:      61351  itHIT:       9011  itMISS:      52340  dtACCESS:     161471  dtHIT:      10564  dtMISS:     150907
cpu0_L1D PREFETCH  REQUESTED:   18951469  ISSUED:   17074351  CROSSED:          0  USEFUL:     309891  USELESS:     707842
cpu0_L1D AVERAGE iMISS LATENCY: 0 cycles
cpu0_L1D AVERAGE dMISS LATENCY: 34.1839 cycles
cpu0_L1D AVERAGE itMISS LATENCY: 0.434972 cycles
cpu0_L1D AVERAGE dtMISS LATENCY: 1.38348 cycles
cpu0_L1D PAGE CROSSINGS (TLB HIT):         0 
cpu0_L1D PAGE CROSSINGS (TLB MISS):         0 
cpu0_L1D AVERAGE MISS LATENCY: 36.0023 cycles
cpu0_L2C TOTAL       ACCESS:    7039075  HIT:    1236076  MISS:    5802999  iACCESS:    3332110  iHIT:     699485  iMISS:    2632625  dACCESS:    3514991  dHIT:     377514  dMISS:    3137477  itACCESS:      52340  itHIT:      43183  itMISS:       9157  dtACCESS:     139634  dtHIT:     115894  dtMISS:      23740
cpu0_L2C LOAD         ACCESS:    1732098  HIT:     146959  MISS:    1585139  iACCESS:     791854  iHIT:     106832  iMISS:     685022  dACCESS:     940244  dHIT:      40127  dMISS:     900117  itACCESS:          0  itHIT:          0  itMISS:          0  dtACCESS:          0  dtHIT:          0  dtMISS:          0
cpu0_L2C RFO          ACCESS:     156307  HIT:       8700  MISS:     147607  iACCESS:          0  iHIT:          0  iMISS:          0  dACCESS:     156307  dHIT:       8700  dMISS:     147607  itACCESS:          0  itHIT:          0  itMISS:          0  dtACCESS:          0  dtHIT:          0  dtMISS:          0
cpu0_L2C PREFETCH     ACCESS:    4672572  HIT:     862242  MISS:    3810330  iACCESS:    2540256  iHIT:     592653  iMISS:    1947603  dACCESS:    2132316  dHIT:     269589  dMISS:    1862727  itACCESS:          0  itHIT:          0  itMISS:          0  dtACCESS:          0  dtHIT:          0  dtMISS:          0
cpu0_L2C WRITE        ACCESS:     286124  HIT:      59098  MISS:     227026  iACCESS:          0  iHIT:          0  iMISS:          0  dACCESS:     286124  dHIT:      59098  dMISS:     227026  itACCESS:          0  itHIT:          0  itMISS:          0  dtACCESS:          0  dtHIT:          0  dtMISS:          0
cpu0_L2C TRANSLATION  ACCESS:     191974  HIT:     159077  MISS:      32897  iACCESS:          0  iHIT:          0  iMISS:          0  dACCESS:          0  dHIT:          0  dMISS:          0  itACCESS:      52340  itHIT:      43183  itMISS:       9157  dtACCESS:     139634  dtHIT:     115894  dtMISS:      23740
cpu0_L2C PREFETCH  REQUESTED:    1402317  ISSUED:    1402317  CROSSED:          0  USEFUL:     423226  USELESS:     401971
cpu0_L2C AVERAGE iMISS LATENCY: 14.9381 cycles
cpu0_L2C AVERAGE dMISS LATENCY: 24.4306 cycles
cpu0_L2C AVERAGE itMISS LATENCY: 0.184635 cycles
cpu0_L2C AVERAGE dtMISS LATENCY: 0.629066 cycles
cpu0_L2C PAGE CROSSINGS (TLB HIT):         0 
cpu0_L2C PAGE CROSSINGS (TLB MISS):         0 
cpu0_L2C AVERAGE MISS LATENCY: 40.1824 cycles
LLC TOTAL       ACCESS:    5721142  HIT:    4916808  MISS:     804334  iACCESS:    2573850  iHIT:    2324695  iMISS:     249155  dACCESS:    3114396  dHIT:    2582311  dMISS:     532085  itACCESS:       9157  itHIT:       3945  itMISS:       5212  dtACCESS:      23739  dtHIT:       5857  dtMISS:      17882
LLC LOAD         ACCESS:    1582820  HIT:    1394535  MISS:     188285  iACCESS:     683235  iHIT:     627519  iMISS:      55716  dACCESS:     899585  dHIT:     767016  dMISS:     132569  itACCESS:          0  itHIT:          0  itMISS:          0  dtACCESS:          0  dtHIT:          0  dtMISS:          0
LLC RFO          ACCESS:     147604  HIT:     107896  MISS:      39708  iACCESS:          0  iHIT:          0  iMISS:          0  dACCESS:     147604  dHIT:     107896  dMISS:      39708  itACCESS:          0  itHIT:          0  itMISS:          0  dtACCESS:          0  dtHIT:          0  dtMISS:          0
LLC PREFETCH     ACCESS:    3698902  HIT:    3145655  MISS:     553247  iACCESS:    1890615  iHIT:    1697176  iMISS:     193439  dACCESS:    1808287  dHIT:    1448479  dMISS:     359808  itACCESS:          0  itHIT:          0  itMISS:          0  dtACCESS:          0  dtHIT:          0  dtMISS:          0
LLC WRITE        ACCESS:     258920  HIT:     258920  MISS:          0  iACCESS:          0  iHIT:          0  iMISS:          0  dACCESS:     258920  dHIT:     258920  dMISS:          0  itACCESS:          0  itHIT:          0  itMISS:          0  dtACCESS:          0  dtHIT:          0  dtMISS:          0
LLC TRANSLATION  ACCESS:      32896  HIT:       9802  MISS:      23094  iACCESS:          0  iHIT:          0  iMISS:          0  dACCESS:          0  dHIT:          0  dMISS:          0  itACCESS:       9157  itHIT:       3945  itMISS:       5212  dtACCESS:      23739  dtHIT:       5857  dtMISS:      17882
LLC PREFETCH  REQUESTED:          0  ISSUED:          0  CROSSED:          0  USEFUL:          0  USELESS:          0
LLC AVERAGE iMISS LATENCY: 45.9816 cycles
LLC AVERAGE dMISS LATENCY: 107.627 cycles
LLC AVERAGE itMISS LATENCY: 1.10962 cycles
LLC AVERAGE dtMISS LATENCY: 3.95807 cycles
LLC PAGE CROSSINGS (TLB HIT):         0 
LLC PAGE CROSSINGS (TLB MISS):         0 
LLC AVERAGE MISS LATENCY: 158.677 cycles

PageTableWalker TOTAL       ACCESS:      81464  
PageTableWalker AVERAGE LATENCY: 4.08982 cycles
PageTableWalker TOTAL LATENCY: 333173 cycles

DRAM Statistics
Channel 0
 RQ ROW_BUFFER_HIT:     215501
  ROW_BUFFER_MISS:     588768
 AVG DBUS CONGESTED CYCLE:    3.62709
 WQ ROW_BUFFER_HIT:      21474
  ROW_BUFFER_MISS:      30107  FULL:          0

