last_page:0x200000000000000
VMEM_RES_CAP:0x100000
PAGE_SIZE:4096
LOG2_PAGE_SIZE:12
LOG2_PAGE_TABLE_SIZE:9
page_table_levels:5
WARNING: physical memory size is smaller than virtual memory size
FDiP enabled with aggresivity 16

*** ChampSim Multicore Out-of-Order Simulator ***

Warmup Instructions: 50000000
Simulation Instructions: 100000000
Number of CPUs: 1
Small page size: 4096
Large page size: 2097152

CPU 0 Bimodal branch predictor
Basic BTB sets: 1024 ways: 8 indirect buffer size: 4096 RAS size: 64
Instruction page size distrubution: 0
Loading instruction page size distribution from /home/bsc/bsc018186/scratch/itp_asplos25_AE/dump/srv171_ap.pdst
Data page size distrubution: 0
Loading data page size distribution from /home/bsc/bsc018186/scratch/itp_asplos25_AE/dump/srv171_ap.pdst
cpu0_L2C IP-based stride prefetcher
cpu0_L2C is using xPTP/LRU
	TLB_LOWER_STRESS_THRESHOLD:1
	TLB_UPPER_STRESS_THRESHOLD:9
	MIN_EVICTION_POSITION:4
cpu0_L1D next line prefetcher
cpu0_STLB using iTP with max lru@8
cpu0_STLB using iTP with instr@0 and data@2
Init sat counter with 3 bits (max:50).
cpu0_L1I next line prefetcher
Off-chip DRAM Size: 4 GiB Channels: 1 Width: 64-bit Data Rate: 3200 MT/s
Heartbeat CPU 0 instructions: 10000003 cycles: 2502262 heartbeat IPC: 3.99639 cumulative IPC: 3.99639 (Simulation time: 0 hr 0 min 44 sec) 
Heartbeat CPU 0 instructions: 20000001 cycles: 5002438 heartbeat IPC: 3.99972 cumulative IPC: 3.99806 (Simulation time: 0 hr 1 min 30 sec) 
Heartbeat CPU 0 instructions: 30000003 cycles: 7502612 heartbeat IPC: 3.99973 cumulative IPC: 3.99861 (Simulation time: 0 hr 2 min 13 sec) 
Heartbeat CPU 0 instructions: 40000001 cycles: 10002629 heartbeat IPC: 3.99998 cumulative IPC: 3.99895 (Simulation time: 0 hr 3 min 0 sec) 
Heartbeat CPU 0 instructions: 50000001 cycles: 12502629 heartbeat IPC: 4 cumulative IPC: 3.99916 (Simulation time: 0 hr 3 min 47 sec) 
Warmup finished CPU 0 instructions: 50000001 cycles: 12502630 cumulative IPC: 3.99916 (Simulation time: 0 hr 3 min 47 sec) 

Warmup complete CPU 0 instructions: 50000001 cycles: 12502630 (Simulation time: 0 hr 3 min 47 sec) 

Heartbeat CPU 0 instructions: 60000001 cycles: 25426651 heartbeat IPC: 0.773753 cumulative IPC: 0.773753 (Simulation time: 0 hr 4 min 58 sec) 
Heartbeat CPU 0 instructions: 70000004 cycles: 38257923 heartbeat IPC: 0.779347 cumulative IPC: 0.77654 (Simulation time: 0 hr 6 min 9 sec) 
Heartbeat CPU 0 instructions: 80000003 cycles: 51690855 heartbeat IPC: 0.74444 cumulative IPC: 0.765537 (Simulation time: 0 hr 7 min 19 sec) 
Heartbeat CPU 0 instructions: 90000000 cycles: 64694128 heartbeat IPC: 0.769037 cumulative IPC: 0.766409 (Simulation time: 0 hr 8 min 31 sec) 
Heartbeat CPU 0 instructions: 100000004 cycles: 77947524 heartbeat IPC: 0.754524 cumulative IPC: 0.764002 (Simulation time: 0 hr 9 min 43 sec) 
*** Reached end of trace: /gpfs/projects/bsc18/MN4/bsc18/romol/ChampSim/traces/qualcomm_srv/srv171_ap.champsimtrace.xz
Heartbeat CPU 0 instructions: 110000003 cycles: 91706201 heartbeat IPC: 0.726814 cumulative IPC: 0.757542 (Simulation time: 0 hr 10 min 53 sec) 
Heartbeat CPU 0 instructions: 120000003 cycles: 105774851 heartbeat IPC: 0.710801 cumulative IPC: 0.750492 (Simulation time: 0 hr 12 min 5 sec) 
Heartbeat CPU 0 instructions: 130000002 cycles: 119086447 heartbeat IPC: 0.751225 cumulative IPC: 0.750583 (Simulation time: 0 hr 13 min 17 sec) 
Heartbeat CPU 0 instructions: 140000004 cycles: 131646092 heartbeat IPC: 0.796202 cumulative IPC: 0.755392 (Simulation time: 0 hr 14 min 25 sec) 
Heartbeat CPU 0 instructions: 150000003 cycles: 144755710 heartbeat IPC: 0.762799 cumulative IPC: 0.756127 (Simulation time: 0 hr 15 min 29 sec) 
Simulation finished CPU 0 instructions: 100000002 cycles: 132253081 cumulative IPC: 0.756127 (Simulation time: 0 hr 15 min 29 sec) 

Simulation complete CPU 0 instructions: 100000002 cycles: 132253081 (Simulation time: 0 hr 15 min 29 sec) 


ChampSim completed all CPUs

Saving instructions large page distribution to /home/bsc/bsc018186/scratch/itp_asplos25_AE/dump/srv171_ap.pdst...
Saving data large page distribution to /home/bsc/bsc018186/scratch/itp_asplos25_AE/dump/srv171_ap.pdst...
=== Simulation ===
CPU 0 runs /gpfs/projects/bsc18/MN4/bsc18/romol/ChampSim/traces/qualcomm_srv/srv171_ap.champsimtrace.xz

Region of Interest Statistics

CPU 0 cumulative IPC: 0.756127 instructions: 100000002 cycles: 132253081
CPU 0 Branch Prediction Accuracy: 83.3635% MPKI: 29.7299 Average ROB Occupancy at Mispredict: 12.59
Branch type MPKI
BRANCH_DIRECT_JUMP: 1.02615
BRANCH_INDIRECT: 15.295
BRANCH_CONDITIONAL: 9.72302
BRANCH_DIRECT_CALL: 1.84627
BRANCH_INDIRECT_CALL: 0.506
BRANCH_RETURN: 1.33345

Instructions large pages: 0
Instructions small pages: 1107
Large page distribution for instructions: 0%

Data large pages: 0
Data small pages: 10526
Large page distribution for data: 0%

cpu0_L1I TOTAL       ACCESS:   34819991  HIT:   26894776  MISS:    7925215  iACCESS:   34819991  iHIT:   26894776  iMISS:    7925215  dACCESS:          0  dHIT:          0  dMISS:          0  itACCESS:          0  itHIT:          0  itMISS:          0  dtACCESS:          0  dtHIT:          0  dtMISS:          0
cpu0_L1I LOAD         ACCESS:   10220355  HIT:    7998544  MISS:    2221811  iACCESS:   10220355  iHIT:    7998544  iMISS:    2221811  dACCESS:          0  dHIT:          0  dMISS:          0  itACCESS:          0  itHIT:          0  itMISS:          0  dtACCESS:          0  dtHIT:          0  dtMISS:          0
cpu0_L1I RFO          ACCESS:          0  HIT:          0  MISS:          0  iACCESS:          0  iHIT:          0  iMISS:          0  dACCESS:          0  dHIT:          0  dMISS:          0  itACCESS:          0  itHIT:          0  itMISS:          0  dtACCESS:          0  dtHIT:          0  dtMISS:          0
cpu0_L1I PREFETCH     ACCESS:   24599636  HIT:   18896232  MISS:    5703404  iACCESS:   24599636  iHIT:   18896232  iMISS:    5703404  dACCESS:          0  dHIT:          0  dMISS:          0  itACCESS:          0  itHIT:          0  itMISS:          0  dtACCESS:          0  dtHIT:          0  dtMISS:          0
cpu0_L1I WRITE        ACCESS:          0  HIT:          0  MISS:          0  iACCESS:          0  iHIT:          0  iMISS:          0  dACCESS:          0  dHIT:          0  dMISS:          0  itACCESS:          0  itHIT:          0  itMISS:          0  dtACCESS:          0  dtHIT:          0  dtMISS:          0
cpu0_L1I TRANSLATION  ACCESS:          0  HIT:          0  MISS:          0  iACCESS:          0  iHIT:          0  iMISS:          0  dACCESS:          0  dHIT:          0  dMISS:          0  itACCESS:          0  itHIT:          0  itMISS:          0  dtACCESS:          0  dtHIT:          0  dtMISS:          0
cpu0_L1I PREFETCH  REQUESTED:   27082779  ISSUED:   27082528  CROSSED:          0  USEFUL:    1879695  USELESS:     618825
cpu0_L1I AVERAGE iMISS LATENCY: 11.5641 cycles
cpu0_L1I AVERAGE dMISS LATENCY: 0 cycles
cpu0_L1I AVERAGE itMISS LATENCY: 0 cycles
cpu0_L1I AVERAGE dtMISS LATENCY: 0 cycles
cpu0_L1I PAGE CROSSINGS (TLB HIT):         0 
cpu0_L1I PAGE CROSSINGS (TLB MISS):         0 
cpu0_L1I AVERAGE MISS LATENCY: 11.5641 cycles
cpu0_ITLB TOTAL       ACCESS:   28984980  HIT:   27036443  MISS:    1948537  iACCESS:   28984980  iHIT:   27036443  iMISS:    1948537  dACCESS:          0  dHIT:          0  dMISS:          0  itACCESS:          0  itHIT:          0  itMISS:          0  dtACCESS:          0  dtHIT:          0  dtMISS:          0
cpu0_ITLB LOAD         ACCESS:   28984980  HIT:   27036443  MISS:    1948537  iACCESS:   28984980  iHIT:   27036443  iMISS:    1948537  dACCESS:          0  dHIT:          0  dMISS:          0  itACCESS:          0  itHIT:          0  itMISS:          0  dtACCESS:          0  dtHIT:          0  dtMISS:          0
cpu0_ITLB RFO          ACCESS:          0  HIT:          0  MISS:          0  iACCESS:          0  iHIT:          0  iMISS:          0  dACCESS:          0  dHIT:          0  dMISS:          0  itACCESS:          0  itHIT:          0  itMISS:          0  dtACCESS:          0  dtHIT:          0  dtMISS:          0
cpu0_ITLB PREFETCH     ACCESS:          0  HIT:          0  MISS:          0  iACCESS:          0  iHIT:          0  iMISS:          0  dACCESS:          0  dHIT:          0  dMISS:          0  itACCESS:          0  itHIT:          0  itMISS:          0  dtACCESS:          0  dtHIT:          0  dtMISS:          0
cpu0_ITLB WRITE        ACCESS:          0  HIT:          0  MISS:          0  iACCESS:          0  iHIT:          0  iMISS:          0  dACCESS:          0  dHIT:          0  dMISS:          0  itACCESS:          0  itHIT:          0  itMISS:          0  dtACCESS:          0  dtHIT:          0  dtMISS:          0
cpu0_ITLB TRANSLATION  ACCESS:          0  HIT:          0  MISS:          0  iACCESS:          0  iHIT:          0  iMISS:          0  dACCESS:          0  dHIT:          0  dMISS:          0  itACCESS:          0  itHIT:          0  itMISS:          0  dtACCESS:          0  dtHIT:          0  dtMISS:          0
cpu0_ITLB PREFETCH  REQUESTED:          0  ISSUED:          0  CROSSED:          0  USEFUL:     318634  USELESS:      65151
cpu0_ITLB AVERAGE iMISS LATENCY: 1.99969 cycles
cpu0_ITLB AVERAGE dMISS LATENCY: 0 cycles
cpu0_ITLB AVERAGE itMISS LATENCY: 0 cycles
cpu0_ITLB AVERAGE dtMISS LATENCY: 0 cycles
cpu0_ITLB PAGE CROSSINGS (TLB HIT):         0 
cpu0_ITLB PAGE CROSSINGS (TLB MISS):         0 
cpu0_ITLB AVERAGE MISS LATENCY: 1.99969 cycles
cpu0_DTLB TOTAL       ACCESS:   27718559  HIT:   25649735  MISS:    2068824  iACCESS:          0  iHIT:          0  iMISS:          0  dACCESS:   27718559  dHIT:   25649735  dMISS:    2068824  itACCESS:          0  itHIT:          0  itMISS:          0  dtACCESS:          0  dtHIT:          0  dtMISS:          0
cpu0_DTLB LOAD         ACCESS:   27718559  HIT:   25649735  MISS:    2068824  iACCESS:          0  iHIT:          0  iMISS:          0  dACCESS:   27718559  dHIT:   25649735  dMISS:    2068824  itACCESS:          0  itHIT:          0  itMISS:          0  dtACCESS:          0  dtHIT:          0  dtMISS:          0
cpu0_DTLB RFO          ACCESS:          0  HIT:          0  MISS:          0  iACCESS:          0  iHIT:          0  iMISS:          0  dACCESS:          0  dHIT:          0  dMISS:          0  itACCESS:          0  itHIT:          0  itMISS:          0  dtACCESS:          0  dtHIT:          0  dtMISS:          0
cpu0_DTLB PREFETCH     ACCESS:          0  HIT:          0  MISS:          0  iACCESS:          0  iHIT:          0  iMISS:          0  dACCESS:          0  dHIT:          0  dMISS:          0  itACCESS:          0  itHIT:          0  itMISS:          0  dtACCESS:          0  dtHIT:          0  dtMISS:          0
cpu0_DTLB WRITE        ACCESS:          0  HIT:          0  MISS:          0  iACCESS:          0  iHIT:          0  iMISS:          0  dACCESS:          0  dHIT:          0  dMISS:          0  itACCESS:          0  itHIT:          0  itMISS:          0  dtACCESS:          0  dtHIT:          0  dtMISS:          0
cpu0_DTLB TRANSLATION  ACCESS:          0  HIT:          0  MISS:          0  iACCESS:          0  iHIT:          0  iMISS:          0  dACCESS:          0  dHIT:          0  dMISS:          0  itACCESS:          0  itHIT:          0  itMISS:          0  dtACCESS:          0  dtHIT:          0  dtMISS:          0
cpu0_DTLB PREFETCH  REQUESTED:          0  ISSUED:          0  CROSSED:          0  USEFUL:          0  USELESS:          0
cpu0_DTLB AVERAGE iMISS LATENCY: 0 cycles
cpu0_DTLB AVERAGE dMISS LATENCY: 11.0698 cycles
cpu0_DTLB AVERAGE itMISS LATENCY: 0 cycles
cpu0_DTLB AVERAGE dtMISS LATENCY: 0 cycles
cpu0_DTLB PAGE CROSSINGS (TLB HIT):         0 
cpu0_DTLB PAGE CROSSINGS (TLB MISS):         0 
cpu0_DTLB AVERAGE MISS LATENCY: 11.0698 cycles
cpu0_STLB TOTAL       ACCESS:    1609810  HIT:    1461765  MISS:     148045  iACCESS:     383796  iHIT:     375206  iMISS:       8590  dACCESS:    1226014  dHIT:    1086559  dMISS:     139455  itACCESS:          0  itHIT:          0  itMISS:          0  dtACCESS:          0  dtHIT:          0  dtMISS:          0
cpu0_STLB LOAD         ACCESS:    1609810  HIT:    1461765  MISS:     148045  iACCESS:     383796  iHIT:     375206  iMISS:       8590  dACCESS:    1226014  dHIT:    1086559  dMISS:     139455  itACCESS:          0  itHIT:          0  itMISS:          0  dtACCESS:          0  dtHIT:          0  dtMISS:          0
cpu0_STLB RFO          ACCESS:          0  HIT:          0  MISS:          0  iACCESS:          0  iHIT:          0  iMISS:          0  dACCESS:          0  dHIT:          0  dMISS:          0  itACCESS:          0  itHIT:          0  itMISS:          0  dtACCESS:          0  dtHIT:          0  dtMISS:          0
cpu0_STLB PREFETCH     ACCESS:          0  HIT:          0  MISS:          0  iACCESS:          0  iHIT:          0  iMISS:          0  dACCESS:          0  dHIT:          0  dMISS:          0  itACCESS:          0  itHIT:          0  itMISS:          0  dtACCESS:          0  dtHIT:          0  dtMISS:          0
cpu0_STLB WRITE        ACCESS:          0  HIT:          0  MISS:          0  iACCESS:          0  iHIT:          0  iMISS:          0  dACCESS:          0  dHIT:          0  dMISS:          0  itACCESS:          0  itHIT:          0  itMISS:          0  dtACCESS:          0  dtHIT:          0  dtMISS:          0
cpu0_STLB TRANSLATION  ACCESS:          0  HIT:          0  MISS:          0  iACCESS:          0  iHIT:          0  iMISS:          0  dACCESS:          0  dHIT:          0  dMISS:          0  itACCESS:          0  itHIT:          0  itMISS:          0  dtACCESS:          0  dtHIT:          0  dtMISS:          0
cpu0_STLB PREFETCH  REQUESTED:          0  ISSUED:          0  CROSSED:          0  USEFUL:          0  USELESS:          0
cpu0_STLB AVERAGE iMISS LATENCY: 6.19483 cycles
cpu0_STLB AVERAGE dMISS LATENCY: 88.4935 cycles
cpu0_STLB AVERAGE itMISS LATENCY: 0 cycles
cpu0_STLB AVERAGE dtMISS LATENCY: 0 cycles
cpu0_STLB PAGE CROSSINGS (TLB HIT):         0 
cpu0_STLB PAGE CROSSINGS (TLB MISS):         0 
cpu0_STLB AVERAGE MISS LATENCY: 94.6883 cycles
cpu0_L1D TOTAL       ACCESS:   41569579  HIT:   38025992  MISS:    3543587  iACCESS:          0  iHIT:          0  iMISS:          0  dACCESS:   41348195  dHIT:   38011022  dMISS:    3337173  itACCESS:      10738  itHIT:       1189  itMISS:       9549  dtACCESS:     210646  dtHIT:      13781  dtMISS:     196865
cpu0_L1D LOAD         ACCESS:   18963180  HIT:   17445907  MISS:    1517273  iACCESS:          0  iHIT:          0  iMISS:          0  dACCESS:   18963180  dHIT:   17445907  dMISS:    1517273  itACCESS:          0  itHIT:          0  itMISS:          0  dtACCESS:          0  dtHIT:          0  dtMISS:          0
cpu0_L1D RFO          ACCESS:          0  HIT:          0  MISS:          0  iACCESS:          0  iHIT:          0  iMISS:          0  dACCESS:          0  dHIT:          0  dMISS:          0  itACCESS:          0  itHIT:          0  itMISS:          0  dtACCESS:          0  dtHIT:          0  dtMISS:          0
cpu0_L1D PREFETCH     ACCESS:   12202699  HIT:   10820874  MISS:    1381825  iACCESS:          0  iHIT:          0  iMISS:          0  dACCESS:   12202699  dHIT:   10820874  dMISS:    1381825  itACCESS:          0  itHIT:          0  itMISS:          0  dtACCESS:          0  dtHIT:          0  dtMISS:          0
cpu0_L1D WRITE        ACCESS:   10182316  HIT:    9744241  MISS:     438075  iACCESS:          0  iHIT:          0  iMISS:          0  dACCESS:   10182316  dHIT:    9744241  dMISS:     438075  itACCESS:          0  itHIT:          0  itMISS:          0  dtACCESS:          0  dtHIT:          0  dtMISS:          0
cpu0_L1D TRANSLATION  ACCESS:     221384  HIT:      14970  MISS:     206414  iACCESS:          0  iHIT:          0  iMISS:          0  dACCESS:          0  dHIT:          0  dMISS:          0  itACCESS:      10738  itHIT:       1189  itMISS:       9549  dtACCESS:     210646  dtHIT:      13781  dtMISS:     196865
cpu0_L1D PREFETCH  REQUESTED:   18963180  ISSUED:   17066318  CROSSED:          0  USEFUL:     305259  USELESS:     692622
cpu0_L1D AVERAGE iMISS LATENCY: 0 cycles
cpu0_L1D AVERAGE dMISS LATENCY: 29.8772 cycles
cpu0_L1D AVERAGE itMISS LATENCY: 0.232913 cycles
cpu0_L1D AVERAGE dtMISS LATENCY: 2.88075 cycles
cpu0_L1D PAGE CROSSINGS (TLB HIT):         0 
cpu0_L1D PAGE CROSSINGS (TLB MISS):         0 
cpu0_L1D AVERAGE MISS LATENCY: 32.9908 cycles
cpu0_L2C TOTAL       ACCESS:    6866147  HIT:    2510994  MISS:    4355153  iACCESS:    3241024  iHIT:    1385795  iMISS:    1855229  dACCESS:    3429632  dHIT:     993209  dMISS:    2436423  itACCESS:       9288  itHIT:       3439  itMISS:       5849  dtACCESS:     186203  dtHIT:     128551  dtMISS:      57652
cpu0_L2C LOAD         ACCESS:    1697861  HIT:     556388  MISS:    1141473  iACCESS:     776236  iHIT:     308391  iMISS:     467845  dACCESS:     921625  dHIT:     247997  dMISS:     673628  itACCESS:          0  itHIT:          0  itMISS:          0  dtACCESS:          0  dtHIT:          0  dtMISS:          0
cpu0_L2C RFO          ACCESS:     156108  HIT:      33577  MISS:     122531  iACCESS:          0  iHIT:          0  iMISS:          0  dACCESS:     156108  dHIT:      33577  dMISS:     122531  itACCESS:          0  itHIT:          0  itMISS:          0  dtACCESS:          0  dtHIT:          0  dtMISS:          0
cpu0_L2C PREFETCH     ACCESS:    4536645  HIT:    1666956  MISS:    2869689  iACCESS:    2464788  iHIT:    1077404  iMISS:    1387384  dACCESS:    2071857  dHIT:     589552  dMISS:    1482305  itACCESS:          0  itHIT:          0  itMISS:          0  dtACCESS:          0  dtHIT:          0  dtMISS:          0
cpu0_L2C WRITE        ACCESS:     280042  HIT:     122083  MISS:     157959  iACCESS:          0  iHIT:          0  iMISS:          0  dACCESS:     280042  dHIT:     122083  dMISS:     157959  itACCESS:          0  itHIT:          0  itMISS:          0  dtACCESS:          0  dtHIT:          0  dtMISS:          0
cpu0_L2C TRANSLATION  ACCESS:     195491  HIT:     131990  MISS:      63501  iACCESS:          0  iHIT:          0  iMISS:          0  dACCESS:          0  dHIT:          0  dMISS:          0  itACCESS:       9288  itHIT:       3439  itMISS:       5849  dtACCESS:     186203  dtHIT:     128551  dtMISS:      57652
cpu0_L2C PREFETCH  REQUESTED:    1321590  ISSUED:    1321590  CROSSED:          0  USEFUL:     338761  USELESS:     320653
cpu0_L2C AVERAGE iMISS LATENCY: 14.292 cycles
cpu0_L2C AVERAGE dMISS LATENCY: 26.9521 cycles
cpu0_L2C AVERAGE itMISS LATENCY: 0.16894 cycles
cpu0_L2C AVERAGE dtMISS LATENCY: 1.94358 cycles
cpu0_L2C PAGE CROSSINGS (TLB HIT):         0 
cpu0_L2C PAGE CROSSINGS (TLB MISS):         0 
cpu0_L2C AVERAGE MISS LATENCY: 43.3566 cycles
LLC TOTAL       ACCESS:    4302880  HIT:    3618711  MISS:     684169  iACCESS:    1809290  iHIT:    1627452  iMISS:     181838  dACCESS:    2430090  dHIT:    1973219  dMISS:     456871  itACCESS:       5849  itHIT:       2292  itMISS:       3557  dtACCESS:      57651  dtHIT:      15748  dtMISS:      41903
LLC LOAD         ACCESS:    1139182  HIT:     981709  MISS:     157473  iACCESS:     466691  iHIT:     427169  iMISS:      39522  dACCESS:     672491  dHIT:     554540  dMISS:     117951  itACCESS:          0  itHIT:          0  itMISS:          0  dtACCESS:          0  dtHIT:          0  dtMISS:          0
LLC RFO          ACCESS:     122530  HIT:      87818  MISS:      34712  iACCESS:          0  iHIT:          0  iMISS:          0  dACCESS:     122530  dHIT:      87818  dMISS:      34712  itACCESS:          0  itHIT:          0  itMISS:          0  dtACCESS:          0  dtHIT:          0  dtMISS:          0
LLC PREFETCH     ACCESS:    2779495  HIT:    2334879  MISS:     444616  iACCESS:    1342599  iHIT:    1200283  iMISS:     142316  dACCESS:    1436896  dHIT:    1134596  dMISS:     302300  itACCESS:          0  itHIT:          0  itMISS:          0  dtACCESS:          0  dtHIT:          0  dtMISS:          0
LLC WRITE        ACCESS:     198173  HIT:     196265  MISS:       1908  iACCESS:          0  iHIT:          0  iMISS:          0  dACCESS:     198173  dHIT:     196265  dMISS:       1908  itACCESS:          0  itHIT:          0  itMISS:          0  dtACCESS:          0  dtHIT:          0  dtMISS:          0
LLC TRANSLATION  ACCESS:      63500  HIT:      18040  MISS:      45460  iACCESS:          0  iHIT:          0  iMISS:          0  dACCESS:          0  dHIT:          0  dMISS:          0  itACCESS:       5849  itHIT:       2292  itMISS:       3557  dtACCESS:      57651  dtHIT:      15748  dtMISS:      41903
LLC PREFETCH  REQUESTED:          0  ISSUED:          0  CROSSED:          0  USEFUL:          0  USELESS:          0
LLC AVERAGE iMISS LATENCY: 40.0158 cycles
LLC AVERAGE dMISS LATENCY: 108.764 cycles
LLC AVERAGE itMISS LATENCY: 0.908108 cycles
LLC AVERAGE dtMISS LATENCY: 10.7141 cycles
LLC PAGE CROSSINGS (TLB HIT):         0 
LLC PAGE CROSSINGS (TLB MISS):         0 
LLC AVERAGE MISS LATENCY: 160.402 cycles

PageTableWalker TOTAL       ACCESS:      72343  
PageTableWalker AVERAGE LATENCY: 4.891 cycles
PageTableWalker TOTAL LATENCY: 353829 cycles

DRAM Statistics
Channel 0
 RQ ROW_BUFFER_HIT:     178326
  ROW_BUFFER_MISS:     503200
 AVG DBUS CONGESTED CYCLE:    3.64084
 WQ ROW_BUFFER_HIT:      16844
  ROW_BUFFER_MISS:      27660  FULL:          0

