last_page:0x200000000000000
VMEM_RES_CAP:0x100000
PAGE_SIZE:4096
LOG2_PAGE_SIZE:12
LOG2_PAGE_TABLE_SIZE:9
page_table_levels:5
WARNING: physical memory size is smaller than virtual memory size
FDiP enabled with aggresivity 16

*** ChampSim Multicore Out-of-Order Simulator ***

Warmup Instructions: 50000000
Simulation Instructions: 100000000
Number of CPUs: 1
Small page size: 4096
Large page size: 2097152

CPU 0 Bimodal branch predictor
Basic BTB sets: 1024 ways: 8 indirect buffer size: 4096 RAS size: 64
Instruction page size distrubution: 0
Loading instruction page size distribution from /home/bsc/bsc018186/scratch/itp_asplos25_AE/dump/srv111_ap.pdst
Data page size distrubution: 0
Loading data page size distribution from /home/bsc/bsc018186/scratch/itp_asplos25_AE/dump/srv111_ap.pdst
cpu0_L2C IP-based stride prefetcher
cpu0_L2C is using PTP replacement policy:
	TLB_STRESS_THRESHOLD:0
	PTE_EVICTION_RATIO:0
cpu0_L1D next line prefetcher
CHiRPing...
cpu0_L1I next line prefetcher
Off-chip DRAM Size: 4 GiB Channels: 1 Width: 64-bit Data Rate: 3200 MT/s
Heartbeat CPU 0 instructions: 10000001 cycles: 2500145 heartbeat IPC: 3.99977 cumulative IPC: 3.99977 (Simulation time: 0 hr 0 min 38 sec) 
Heartbeat CPU 0 instructions: 20000002 cycles: 5000204 heartbeat IPC: 3.99991 cumulative IPC: 3.99984 (Simulation time: 0 hr 1 min 17 sec) 
Heartbeat CPU 0 instructions: 30000002 cycles: 7500237 heartbeat IPC: 3.99995 cumulative IPC: 3.99988 (Simulation time: 0 hr 1 min 58 sec) 
Heartbeat CPU 0 instructions: 40000003 cycles: 10000276 heartbeat IPC: 3.99994 cumulative IPC: 3.99989 (Simulation time: 0 hr 2 min 38 sec) 
Heartbeat CPU 0 instructions: 50000003 cycles: 12500347 heartbeat IPC: 3.99989 cumulative IPC: 3.99989 (Simulation time: 0 hr 3 min 19 sec) 
Warmup finished CPU 0 instructions: 50000003 cycles: 12500348 cumulative IPC: 3.99989 (Simulation time: 0 hr 3 min 19 sec) 

Warmup complete CPU 0 instructions: 50000003 cycles: 12500348 (Simulation time: 0 hr 3 min 19 sec) 

Heartbeat CPU 0 instructions: 60000000 cycles: 28343455 heartbeat IPC: 0.63119 cumulative IPC: 0.63119 (Simulation time: 0 hr 4 min 25 sec) 
Heartbeat CPU 0 instructions: 70000002 cycles: 42797013 heartbeat IPC: 0.691872 cumulative IPC: 0.660139 (Simulation time: 0 hr 5 min 30 sec) 
Heartbeat CPU 0 instructions: 80000000 cycles: 56876138 heartbeat IPC: 0.710272 cumulative IPC: 0.676045 (Simulation time: 0 hr 6 min 34 sec) 
Heartbeat CPU 0 instructions: 90000001 cycles: 71700561 heartbeat IPC: 0.674563 cumulative IPC: 0.675674 (Simulation time: 0 hr 7 min 40 sec) 
Heartbeat CPU 0 instructions: 100000001 cycles: 86493851 heartbeat IPC: 0.675983 cumulative IPC: 0.675735 (Simulation time: 0 hr 8 min 46 sec) 
*** Reached end of trace: /gpfs/projects/bsc18/MN4/bsc18/romol/ChampSim/traces/qualcomm_srv/srv111_ap.champsimtrace.xz
Heartbeat CPU 0 instructions: 110000002 cycles: 100379701 heartbeat IPC: 0.720158 cumulative IPC: 0.682755 (Simulation time: 0 hr 9 min 52 sec) 
Heartbeat CPU 0 instructions: 120000001 cycles: 114184969 heartbeat IPC: 0.724362 cumulative IPC: 0.688403 (Simulation time: 0 hr 10 min 57 sec) 
Heartbeat CPU 0 instructions: 130000001 cycles: 128074267 heartbeat IPC: 0.719979 cumulative IPC: 0.692198 (Simulation time: 0 hr 12 min 2 sec) 
Heartbeat CPU 0 instructions: 140000000 cycles: 141885050 heartbeat IPC: 0.724072 cumulative IPC: 0.6956 (Simulation time: 0 hr 13 min 7 sec) 
Heartbeat CPU 0 instructions: 150000000 cycles: 156436506 heartbeat IPC: 0.687217 cumulative IPC: 0.694753 (Simulation time: 0 hr 14 min 13 sec) 
Simulation finished CPU 0 instructions: 100000002 cycles: 143936173 cumulative IPC: 0.694753 (Simulation time: 0 hr 14 min 13 sec) 

Simulation complete CPU 0 instructions: 100000002 cycles: 143936173 (Simulation time: 0 hr 14 min 13 sec) 


ChampSim completed all CPUs

Saving instructions large page distribution to /home/bsc/bsc018186/scratch/itp_asplos25_AE/dump/srv111_ap.pdst...
Saving data large page distribution to /home/bsc/bsc018186/scratch/itp_asplos25_AE/dump/srv111_ap.pdst...
=== Simulation ===
CPU 0 runs /gpfs/projects/bsc18/MN4/bsc18/romol/ChampSim/traces/qualcomm_srv/srv111_ap.champsimtrace.xz

Region of Interest Statistics

CPU 0 cumulative IPC: 0.694753 instructions: 100000002 cycles: 143936173
CPU 0 Branch Prediction Accuracy: 83.2832% MPKI: 29.8625 Average ROB Occupancy at Mispredict: 12.3044
Branch type MPKI
BRANCH_DIRECT_JUMP: 1.03536
BRANCH_INDIRECT: 15.3542
BRANCH_CONDITIONAL: 9.74702
BRANCH_DIRECT_CALL: 1.86592
BRANCH_INDIRECT_CALL: 0.50638
BRANCH_RETURN: 1.35361

Instructions large pages: 0
Instructions small pages: 1032
Large page distribution for instructions: 0%

Data large pages: 0
Data small pages: 10280
Large page distribution for data: 0%

cpu0_L1I TOTAL       ACCESS:   35149996  HIT:   26793241  MISS:    8356755  iACCESS:   35149996  iHIT:   26793241  iMISS:    8356755  dACCESS:          0  dHIT:          0  dMISS:          0  itACCESS:          0  itHIT:          0  itMISS:          0  dtACCESS:          0  dtHIT:          0  dtMISS:          0
cpu0_L1I LOAD         ACCESS:   10302922  HIT:    7965973  MISS:    2336949  iACCESS:   10302922  iHIT:    7965973  iMISS:    2336949  dACCESS:          0  dHIT:          0  dMISS:          0  itACCESS:          0  itHIT:          0  itMISS:          0  dtACCESS:          0  dtHIT:          0  dtMISS:          0
cpu0_L1I RFO          ACCESS:          0  HIT:          0  MISS:          0  iACCESS:          0  iHIT:          0  iMISS:          0  dACCESS:          0  dHIT:          0  dMISS:          0  itACCESS:          0  itHIT:          0  itMISS:          0  dtACCESS:          0  dtHIT:          0  dtMISS:          0
cpu0_L1I PREFETCH     ACCESS:   24847074  HIT:   18827268  MISS:    6019806  iACCESS:   24847074  iHIT:   18827268  iMISS:    6019806  dACCESS:          0  dHIT:          0  dMISS:          0  itACCESS:          0  itHIT:          0  itMISS:          0  dtACCESS:          0  dtHIT:          0  dtMISS:          0
cpu0_L1I WRITE        ACCESS:          0  HIT:          0  MISS:          0  iACCESS:          0  iHIT:          0  iMISS:          0  dACCESS:          0  dHIT:          0  dMISS:          0  itACCESS:          0  itHIT:          0  itMISS:          0  dtACCESS:          0  dtHIT:          0  dtMISS:          0
cpu0_L1I TRANSLATION  ACCESS:          0  HIT:          0  MISS:          0  iACCESS:          0  iHIT:          0  iMISS:          0  dACCESS:          0  dHIT:          0  dMISS:          0  itACCESS:          0  itHIT:          0  itMISS:          0  dtACCESS:          0  dtHIT:          0  dtMISS:          0
cpu0_L1I PREFETCH  REQUESTED:   27153616  ISSUED:   27150052  CROSSED:          0  USEFUL:    1891471  USELESS:     622567
cpu0_L1I AVERAGE iMISS LATENCY: 14.3243 cycles
cpu0_L1I AVERAGE dMISS LATENCY: 0 cycles
cpu0_L1I AVERAGE itMISS LATENCY: 0 cycles
cpu0_L1I AVERAGE dtMISS LATENCY: 0 cycles
cpu0_L1I PAGE CROSSINGS (TLB HIT):         0 
cpu0_L1I PAGE CROSSINGS (TLB MISS):         0 
cpu0_L1I AVERAGE MISS LATENCY: 14.3243 cycles
cpu0_ITLB TOTAL       ACCESS:   29061541  HIT:   27101993  MISS:    1959548  iACCESS:   29061541  iHIT:   27101993  iMISS:    1959548  dACCESS:          0  dHIT:          0  dMISS:          0  itACCESS:          0  itHIT:          0  itMISS:          0  dtACCESS:          0  dtHIT:          0  dtMISS:          0
cpu0_ITLB LOAD         ACCESS:   29061541  HIT:   27101993  MISS:    1959548  iACCESS:   29061541  iHIT:   27101993  iMISS:    1959548  dACCESS:          0  dHIT:          0  dMISS:          0  itACCESS:          0  itHIT:          0  itMISS:          0  dtACCESS:          0  dtHIT:          0  dtMISS:          0
cpu0_ITLB RFO          ACCESS:          0  HIT:          0  MISS:          0  iACCESS:          0  iHIT:          0  iMISS:          0  dACCESS:          0  dHIT:          0  dMISS:          0  itACCESS:          0  itHIT:          0  itMISS:          0  dtACCESS:          0  dtHIT:          0  dtMISS:          0
cpu0_ITLB PREFETCH     ACCESS:          0  HIT:          0  MISS:          0  iACCESS:          0  iHIT:          0  iMISS:          0  dACCESS:          0  dHIT:          0  dMISS:          0  itACCESS:          0  itHIT:          0  itMISS:          0  dtACCESS:          0  dtHIT:          0  dtMISS:          0
cpu0_ITLB WRITE        ACCESS:          0  HIT:          0  MISS:          0  iACCESS:          0  iHIT:          0  iMISS:          0  dACCESS:          0  dHIT:          0  dMISS:          0  itACCESS:          0  itHIT:          0  itMISS:          0  dtACCESS:          0  dtHIT:          0  dtMISS:          0
cpu0_ITLB TRANSLATION  ACCESS:          0  HIT:          0  MISS:          0  iACCESS:          0  iHIT:          0  iMISS:          0  dACCESS:          0  dHIT:          0  dMISS:          0  itACCESS:          0  itHIT:          0  itMISS:          0  dtACCESS:          0  dtHIT:          0  dtMISS:          0
cpu0_ITLB PREFETCH  REQUESTED:          0  ISSUED:          0  CROSSED:          0  USEFUL:     320549  USELESS:      66076
cpu0_ITLB AVERAGE iMISS LATENCY: 2.89642 cycles
cpu0_ITLB AVERAGE dMISS LATENCY: 0 cycles
cpu0_ITLB AVERAGE itMISS LATENCY: 0 cycles
cpu0_ITLB AVERAGE dtMISS LATENCY: 0 cycles
cpu0_ITLB PAGE CROSSINGS (TLB HIT):         0 
cpu0_ITLB PAGE CROSSINGS (TLB MISS):         0 
cpu0_ITLB AVERAGE MISS LATENCY: 2.89642 cycles
cpu0_DTLB TOTAL       ACCESS:   27736335  HIT:   25680931  MISS:    2055404  iACCESS:          0  iHIT:          0  iMISS:          0  dACCESS:   27736335  dHIT:   25680931  dMISS:    2055404  itACCESS:          0  itHIT:          0  itMISS:          0  dtACCESS:          0  dtHIT:          0  dtMISS:          0
cpu0_DTLB LOAD         ACCESS:   27736335  HIT:   25680931  MISS:    2055404  iACCESS:          0  iHIT:          0  iMISS:          0  dACCESS:   27736335  dHIT:   25680931  dMISS:    2055404  itACCESS:          0  itHIT:          0  itMISS:          0  dtACCESS:          0  dtHIT:          0  dtMISS:          0
cpu0_DTLB RFO          ACCESS:          0  HIT:          0  MISS:          0  iACCESS:          0  iHIT:          0  iMISS:          0  dACCESS:          0  dHIT:          0  dMISS:          0  itACCESS:          0  itHIT:          0  itMISS:          0  dtACCESS:          0  dtHIT:          0  dtMISS:          0
cpu0_DTLB PREFETCH     ACCESS:          0  HIT:          0  MISS:          0  iACCESS:          0  iHIT:          0  iMISS:          0  dACCESS:          0  dHIT:          0  dMISS:          0  itACCESS:          0  itHIT:          0  itMISS:          0  dtACCESS:          0  dtHIT:          0  dtMISS:          0
cpu0_DTLB WRITE        ACCESS:          0  HIT:          0  MISS:          0  iACCESS:          0  iHIT:          0  iMISS:          0  dACCESS:          0  dHIT:          0  dMISS:          0  itACCESS:          0  itHIT:          0  itMISS:          0  dtACCESS:          0  dtHIT:          0  dtMISS:          0
cpu0_DTLB TRANSLATION  ACCESS:          0  HIT:          0  MISS:          0  iACCESS:          0  iHIT:          0  iMISS:          0  dACCESS:          0  dHIT:          0  dMISS:          0  itACCESS:          0  itHIT:          0  itMISS:          0  dtACCESS:          0  dtHIT:          0  dtMISS:          0
cpu0_DTLB PREFETCH  REQUESTED:          0  ISSUED:          0  CROSSED:          0  USEFUL:          0  USELESS:          0
cpu0_DTLB AVERAGE iMISS LATENCY: 0 cycles
cpu0_DTLB AVERAGE dMISS LATENCY: 8.92219 cycles
cpu0_DTLB AVERAGE itMISS LATENCY: 0 cycles
cpu0_DTLB AVERAGE dtMISS LATENCY: 0 cycles
cpu0_DTLB PAGE CROSSINGS (TLB HIT):         0 
cpu0_DTLB PAGE CROSSINGS (TLB MISS):         0 
cpu0_DTLB AVERAGE MISS LATENCY: 8.92219 cycles
cpu0_STLB TOTAL       ACCESS:    1608803  HIT:    1432454  MISS:     176349  iACCESS:     386644  iHIT:     322028  iMISS:      64616  dACCESS:    1222159  dHIT:    1110426  dMISS:     111733  itACCESS:          0  itHIT:          0  itMISS:          0  dtACCESS:          0  dtHIT:          0  dtMISS:          0
cpu0_STLB LOAD         ACCESS:    1608803  HIT:    1432454  MISS:     176349  iACCESS:     386644  iHIT:     322028  iMISS:      64616  dACCESS:    1222159  dHIT:    1110426  dMISS:     111733  itACCESS:          0  itHIT:          0  itMISS:          0  dtACCESS:          0  dtHIT:          0  dtMISS:          0
cpu0_STLB RFO          ACCESS:          0  HIT:          0  MISS:          0  iACCESS:          0  iHIT:          0  iMISS:          0  dACCESS:          0  dHIT:          0  dMISS:          0  itACCESS:          0  itHIT:          0  itMISS:          0  dtACCESS:          0  dtHIT:          0  dtMISS:          0
cpu0_STLB PREFETCH     ACCESS:          0  HIT:          0  MISS:          0  iACCESS:          0  iHIT:          0  iMISS:          0  dACCESS:          0  dHIT:          0  dMISS:          0  itACCESS:          0  itHIT:          0  itMISS:          0  dtACCESS:          0  dtHIT:          0  dtMISS:          0
cpu0_STLB WRITE        ACCESS:          0  HIT:          0  MISS:          0  iACCESS:          0  iHIT:          0  iMISS:          0  dACCESS:          0  dHIT:          0  dMISS:          0  itACCESS:          0  itHIT:          0  itMISS:          0  dtACCESS:          0  dtHIT:          0  dtMISS:          0
cpu0_STLB TRANSLATION  ACCESS:          0  HIT:          0  MISS:          0  iACCESS:          0  iHIT:          0  iMISS:          0  dACCESS:          0  dHIT:          0  dMISS:          0  itACCESS:          0  itHIT:          0  itMISS:          0  dtACCESS:          0  dtHIT:          0  dtMISS:          0
cpu0_STLB PREFETCH  REQUESTED:          0  ISSUED:          0  CROSSED:          0  USEFUL:          0  USELESS:          0
cpu0_STLB AVERAGE iMISS LATENCY: 14.8361 cycles
cpu0_STLB AVERAGE dMISS LATENCY: 48.7372 cycles
cpu0_STLB AVERAGE itMISS LATENCY: 0 cycles
cpu0_STLB AVERAGE dtMISS LATENCY: 0 cycles
cpu0_STLB PAGE CROSSINGS (TLB HIT):         0 
cpu0_STLB PAGE CROSSINGS (TLB MISS):         0 
cpu0_STLB AVERAGE MISS LATENCY: 63.5732 cycles
cpu0_L1D TOTAL       ACCESS:   41864842  HIT:   38040339  MISS:    3824503  iACCESS:          0  iHIT:          0  iMISS:          0  dACCESS:   41623221  dHIT:   38018443  dMISS:    3604778  itACCESS:      70140  itHIT:      10329  itMISS:      59811  dtACCESS:     171481  dtHIT:      11567  dtMISS:     159914
cpu0_L1D LOAD         ACCESS:   18967172  HIT:   17449259  MISS:    1517913  iACCESS:          0  iHIT:          0  iMISS:          0  dACCESS:   18967172  dHIT:   17449259  dMISS:    1517913  itACCESS:          0  itHIT:          0  itMISS:          0  dtACCESS:          0  dtHIT:          0  dtMISS:          0
cpu0_L1D RFO          ACCESS:          0  HIT:          0  MISS:          0  iACCESS:          0  iHIT:          0  iMISS:          0  dACCESS:          0  dHIT:          0  dMISS:          0  itACCESS:          0  itHIT:          0  itMISS:          0  dtACCESS:          0  dtHIT:          0  dtMISS:          0
cpu0_L1D PREFETCH     ACCESS:   12229151  HIT:   10842344  MISS:    1386807  iACCESS:          0  iHIT:          0  iMISS:          0  dACCESS:   12229151  dHIT:   10842344  dMISS:    1386807  itACCESS:          0  itHIT:          0  itMISS:          0  dtACCESS:          0  dtHIT:          0  dtMISS:          0
cpu0_L1D WRITE        ACCESS:   10426898  HIT:    9726840  MISS:     700058  iACCESS:          0  iHIT:          0  iMISS:          0  dACCESS:   10426898  dHIT:    9726840  dMISS:     700058  itACCESS:          0  itHIT:          0  itMISS:          0  dtACCESS:          0  dtHIT:          0  dtMISS:          0
cpu0_L1D TRANSLATION  ACCESS:     241621  HIT:      21896  MISS:     219725  iACCESS:          0  iHIT:          0  iMISS:          0  dACCESS:          0  dHIT:          0  dMISS:          0  itACCESS:      70140  itHIT:      10329  itMISS:      59811  dtACCESS:     171481  dtHIT:      11567  dtMISS:     159914
cpu0_L1D PREFETCH  REQUESTED:   18967172  ISSUED:   17072661  CROSSED:          0  USEFUL:     303549  USELESS:     695229
cpu0_L1D AVERAGE iMISS LATENCY: 0 cycles
cpu0_L1D AVERAGE dMISS LATENCY: 34.6862 cycles
cpu0_L1D AVERAGE itMISS LATENCY: 0.53777 cycles
cpu0_L1D AVERAGE dtMISS LATENCY: 1.57029 cycles
cpu0_L1D PAGE CROSSINGS (TLB HIT):         0 
cpu0_L1D PAGE CROSSINGS (TLB MISS):         0 
cpu0_L1D AVERAGE MISS LATENCY: 36.7943 cycles
cpu0_L2C TOTAL       ACCESS:    6935039  HIT:    1225533  MISS:    5709506  iACCESS:    3258031  iHIT:     679319  iMISS:    2578712  dACCESS:    3470025  dHIT:     381249  dMISS:    3088776  itACCESS:      59811  itHIT:      47747  itMISS:      12064  dtACCESS:     147172  dtHIT:     117218  dtMISS:      29954
cpu0_L2C LOAD         ACCESS:    1699247  HIT:     132414  MISS:    1566833  iACCESS:     777304  iHIT:      96628  iMISS:     680676  dACCESS:     921943  dHIT:      35786  dMISS:     886157  itACCESS:          0  itHIT:          0  itMISS:          0  dtACCESS:          0  dtHIT:          0  dtMISS:          0
cpu0_L2C RFO          ACCESS:     172331  HIT:       9752  MISS:     162579  iACCESS:          0  iHIT:          0  iMISS:          0  dACCESS:     172331  dHIT:       9752  dMISS:     162579  itACCESS:          0  itHIT:          0  itMISS:          0  dtACCESS:          0  dtHIT:          0  dtMISS:          0
cpu0_L2C PREFETCH     ACCESS:    4558637  HIT:     848050  MISS:    3710587  iACCESS:    2480727  iHIT:     582691  iMISS:    1898036  dACCESS:    2077910  dHIT:     265359  dMISS:    1812551  itACCESS:          0  itHIT:          0  itMISS:          0  dtACCESS:          0  dtHIT:          0  dtMISS:          0
cpu0_L2C WRITE        ACCESS:     297841  HIT:      70352  MISS:     227489  iACCESS:          0  iHIT:          0  iMISS:          0  dACCESS:     297841  dHIT:      70352  dMISS:     227489  itACCESS:          0  itHIT:          0  itMISS:          0  dtACCESS:          0  dtHIT:          0  dtMISS:          0
cpu0_L2C TRANSLATION  ACCESS:     206983  HIT:     164965  MISS:      42018  iACCESS:          0  iHIT:          0  iMISS:          0  dACCESS:          0  dHIT:          0  dMISS:          0  itACCESS:      59811  itHIT:      47747  itMISS:      12064  dtACCESS:     147172  dtHIT:     117218  dtMISS:      29954
cpu0_L2C PREFETCH  REQUESTED:    1330000  ISSUED:    1330000  CROSSED:          0  USEFUL:     406786  USELESS:     380357
cpu0_L2C AVERAGE iMISS LATENCY: 15.6664 cycles
cpu0_L2C AVERAGE dMISS LATENCY: 26.8346 cycles
cpu0_L2C AVERAGE itMISS LATENCY: 0.263604 cycles
cpu0_L2C AVERAGE dtMISS LATENCY: 0.81338 cycles
cpu0_L2C PAGE CROSSINGS (TLB HIT):         0 
cpu0_L2C PAGE CROSSINGS (TLB MISS):         0 
cpu0_L2C AVERAGE MISS LATENCY: 43.5779 cycles
LLC TOTAL       ACCESS:    5640513  HIT:    4757548  MISS:     882965  iACCESS:    2523914  iHIT:    2257920  iMISS:     265994  dACCESS:    3074581  dHIT:    2487439  dMISS:     587142  itACCESS:      12064  itHIT:       4723  itMISS:       7341  dtACCESS:      29954  dtHIT:       7466  dtMISS:      22488
LLC LOAD         ACCESS:    1565005  HIT:    1359906  MISS:     205099  iACCESS:     679431  iHIT:     622108  iMISS:      57323  dACCESS:     885574  dHIT:     737798  dMISS:     147776  itACCESS:          0  itHIT:          0  itMISS:          0  dtACCESS:          0  dtHIT:          0  dtMISS:          0
LLC RFO          ACCESS:     162575  HIT:     104346  MISS:      58229  iACCESS:          0  iHIT:          0  iMISS:          0  dACCESS:     162575  dHIT:     104346  dMISS:      58229  itACCESS:          0  itHIT:          0  itMISS:          0  dtACCESS:          0  dtHIT:          0  dtMISS:          0
LLC PREFETCH     ACCESS:    3598169  HIT:    3008362  MISS:     589807  iACCESS:    1844483  iHIT:    1635812  iMISS:     208671  dACCESS:    1753686  dHIT:    1372550  dMISS:     381136  itACCESS:          0  itHIT:          0  itMISS:          0  dtACCESS:          0  dtHIT:          0  dtMISS:          0
LLC WRITE        ACCESS:     272746  HIT:     272745  MISS:          1  iACCESS:          0  iHIT:          0  iMISS:          0  dACCESS:     272746  dHIT:     272745  dMISS:          1  itACCESS:          0  itHIT:          0  itMISS:          0  dtACCESS:          0  dtHIT:          0  dtMISS:          0
LLC TRANSLATION  ACCESS:      42018  HIT:      12189  MISS:      29829  iACCESS:          0  iHIT:          0  iMISS:          0  dACCESS:          0  dHIT:          0  dMISS:          0  itACCESS:      12064  itHIT:       4723  itMISS:       7341  dtACCESS:      29954  dtHIT:       7466  dtMISS:      22488
LLC PREFETCH  REQUESTED:          0  ISSUED:          0  CROSSED:          0  USEFUL:          0  USELESS:          0
LLC AVERAGE iMISS LATENCY: 46.1266 cycles
LLC AVERAGE dMISS LATENCY: 112.376 cycles
LLC AVERAGE itMISS LATENCY: 1.4371 cycles
LLC AVERAGE dtMISS LATENCY: 4.59235 cycles
LLC PAGE CROSSINGS (TLB HIT):         0 
LLC PAGE CROSSINGS (TLB MISS):         0 
LLC AVERAGE MISS LATENCY: 164.532 cycles

PageTableWalker TOTAL       ACCESS:      87860  
PageTableWalker AVERAGE LATENCY: 4.1398 cycles
PageTableWalker TOTAL LATENCY: 363722 cycles

DRAM Statistics
Channel 0
 RQ ROW_BUFFER_HIT:     251032
  ROW_BUFFER_MISS:     631850
 AVG DBUS CONGESTED CYCLE:    3.67731
 WQ ROW_BUFFER_HIT:      25167
  ROW_BUFFER_MISS:      47776  FULL:          0

