last_page:0x200000000000000
VMEM_RES_CAP:0x100000
PAGE_SIZE:4096
LOG2_PAGE_SIZE:12
LOG2_PAGE_TABLE_SIZE:9
page_table_levels:5
WARNING: physical memory size is smaller than virtual memory size
FDiP enabled with aggresivity 16

*** ChampSim Multicore Out-of-Order Simulator ***

Warmup Instructions: 50000000
Simulation Instructions: 100000000
Number of CPUs: 1
Small page size: 4096
Large page size: 2097152

CPU 0 Bimodal branch predictor
Basic BTB sets: 1024 ways: 8 indirect buffer size: 4096 RAS size: 64
Instruction page size distrubution: 0
Loading instruction page size distribution from /home/bsc/bsc018186/scratch/itp_asplos25_AE/dump/srv111_ap.pdst
Data page size distrubution: 0
Loading data page size distribution from /home/bsc/bsc018186/scratch/itp_asplos25_AE/dump/srv111_ap.pdst
cpu0_L2C IP-based stride prefetcher
cpu0_L1D next line prefetcher
cpu0_L1I next line prefetcher
Off-chip DRAM Size: 4 GiB Channels: 1 Width: 64-bit Data Rate: 3200 MT/s
Heartbeat CPU 0 instructions: 10000003 cycles: 2500139 heartbeat IPC: 3.99978 cumulative IPC: 3.99978 (Simulation time: 0 hr 0 min 35 sec) 
Heartbeat CPU 0 instructions: 20000002 cycles: 5000152 heartbeat IPC: 3.99998 cumulative IPC: 3.99988 (Simulation time: 0 hr 1 min 12 sec) 
Heartbeat CPU 0 instructions: 30000002 cycles: 7500155 heartbeat IPC: 4 cumulative IPC: 3.99992 (Simulation time: 0 hr 1 min 49 sec) 
Heartbeat CPU 0 instructions: 40000001 cycles: 10000187 heartbeat IPC: 3.99995 cumulative IPC: 3.99993 (Simulation time: 0 hr 2 min 27 sec) 
Heartbeat CPU 0 instructions: 50000003 cycles: 12500201 heartbeat IPC: 3.99998 cumulative IPC: 3.99994 (Simulation time: 0 hr 3 min 5 sec) 
Warmup finished CPU 0 instructions: 50000003 cycles: 12500202 cumulative IPC: 3.99994 (Simulation time: 0 hr 3 min 5 sec) 

Warmup complete CPU 0 instructions: 50000003 cycles: 12500202 (Simulation time: 0 hr 3 min 5 sec) 

Heartbeat CPU 0 instructions: 60000000 cycles: 28270143 heartbeat IPC: 0.634118 cumulative IPC: 0.634118 (Simulation time: 0 hr 4 min 7 sec) 
Heartbeat CPU 0 instructions: 70000002 cycles: 42637004 heartbeat IPC: 0.696047 cumulative IPC: 0.663641 (Simulation time: 0 hr 5 min 7 sec) 
Heartbeat CPU 0 instructions: 80000000 cycles: 56569418 heartbeat IPC: 0.717751 cumulative IPC: 0.680748 (Simulation time: 0 hr 6 min 6 sec) 
Heartbeat CPU 0 instructions: 90000001 cycles: 71188508 heartbeat IPC: 0.684038 cumulative IPC: 0.681567 (Simulation time: 0 hr 7 min 7 sec) 
Heartbeat CPU 0 instructions: 100000001 cycles: 85888240 heartbeat IPC: 0.680285 cumulative IPC: 0.68131 (Simulation time: 0 hr 8 min 7 sec) 
*** Reached end of trace: /gpfs/projects/bsc18/MN4/bsc18/romol/ChampSim/traces/qualcomm_srv/srv111_ap.champsimtrace.xz
Heartbeat CPU 0 instructions: 110000002 cycles: 99750642 heartbeat IPC: 0.721376 cumulative IPC: 0.687676 (Simulation time: 0 hr 9 min 7 sec) 
Heartbeat CPU 0 instructions: 120000004 cycles: 113487983 heartbeat IPC: 0.727944 cumulative IPC: 0.693154 (Simulation time: 0 hr 10 min 6 sec) 
Heartbeat CPU 0 instructions: 130000001 cycles: 127318223 heartbeat IPC: 0.723054 cumulative IPC: 0.696755 (Simulation time: 0 hr 11 min 6 sec) 
Heartbeat CPU 0 instructions: 140000000 cycles: 141003951 heartbeat IPC: 0.730689 cumulative IPC: 0.700369 (Simulation time: 0 hr 12 min 5 sec) 
Heartbeat CPU 0 instructions: 150000000 cycles: 155462336 heartbeat IPC: 0.691641 cumulative IPC: 0.699486 (Simulation time: 0 hr 13 min 5 sec) 
Simulation finished CPU 0 instructions: 100000002 cycles: 142962149 cumulative IPC: 0.699486 (Simulation time: 0 hr 13 min 5 sec) 

Simulation complete CPU 0 instructions: 100000002 cycles: 142962149 (Simulation time: 0 hr 13 min 5 sec) 


ChampSim completed all CPUs

Saving instructions large page distribution to /home/bsc/bsc018186/scratch/itp_asplos25_AE/dump/srv111_ap.pdst...
Saving data large page distribution to /home/bsc/bsc018186/scratch/itp_asplos25_AE/dump/srv111_ap.pdst...
=== Simulation ===
CPU 0 runs /gpfs/projects/bsc18/MN4/bsc18/romol/ChampSim/traces/qualcomm_srv/srv111_ap.champsimtrace.xz

Region of Interest Statistics

CPU 0 cumulative IPC: 0.699486 instructions: 100000002 cycles: 142962149
CPU 0 Branch Prediction Accuracy: 83.2832% MPKI: 29.8625 Average ROB Occupancy at Mispredict: 12.3124
Branch type MPKI
BRANCH_DIRECT_JUMP: 1.03536
BRANCH_INDIRECT: 15.3542
BRANCH_CONDITIONAL: 9.74702
BRANCH_DIRECT_CALL: 1.86592
BRANCH_INDIRECT_CALL: 0.50638
BRANCH_RETURN: 1.35361

Instructions large pages: 0
Instructions small pages: 1032
Large page distribution for instructions: 0%

Data large pages: 0
Data small pages: 10280
Large page distribution for data: 0%

cpu0_L1I TOTAL       ACCESS:   35040765  HIT:   26797748  MISS:    8243017  iACCESS:   35040765  iHIT:   26797748  iMISS:    8243017  dACCESS:          0  dHIT:          0  dMISS:          0  itACCESS:          0  itHIT:          0  itMISS:          0  dtACCESS:          0  dtHIT:          0  dtMISS:          0
cpu0_L1I LOAD         ACCESS:   10279652  HIT:    7970911  MISS:    2308741  iACCESS:   10279652  iHIT:    7970911  iMISS:    2308741  dACCESS:          0  dHIT:          0  dMISS:          0  itACCESS:          0  itHIT:          0  itMISS:          0  dtACCESS:          0  dtHIT:          0  dtMISS:          0
cpu0_L1I RFO          ACCESS:          0  HIT:          0  MISS:          0  iACCESS:          0  iHIT:          0  iMISS:          0  dACCESS:          0  dHIT:          0  dMISS:          0  itACCESS:          0  itHIT:          0  itMISS:          0  dtACCESS:          0  dtHIT:          0  dtMISS:          0
cpu0_L1I PREFETCH     ACCESS:   24761113  HIT:   18826837  MISS:    5934276  iACCESS:   24761113  iHIT:   18826837  iMISS:    5934276  dACCESS:          0  dHIT:          0  dMISS:          0  itACCESS:          0  itHIT:          0  itMISS:          0  dtACCESS:          0  dtHIT:          0  dtMISS:          0
cpu0_L1I WRITE        ACCESS:          0  HIT:          0  MISS:          0  iACCESS:          0  iHIT:          0  iMISS:          0  dACCESS:          0  dHIT:          0  dMISS:          0  itACCESS:          0  itHIT:          0  itMISS:          0  dtACCESS:          0  dtHIT:          0  dtMISS:          0
cpu0_L1I TRANSLATION  ACCESS:          0  HIT:          0  MISS:          0  iACCESS:          0  iHIT:          0  iMISS:          0  dACCESS:          0  dHIT:          0  dMISS:          0  itACCESS:          0  itHIT:          0  itMISS:          0  dtACCESS:          0  dtHIT:          0  dtMISS:          0
cpu0_L1I PREFETCH  REQUESTED:   27129370  ISSUED:   27127568  CROSSED:          0  USEFUL:    1890970  USELESS:     622512
cpu0_L1I AVERAGE iMISS LATENCY: 13.7258 cycles
cpu0_L1I AVERAGE dMISS LATENCY: 0 cycles
cpu0_L1I AVERAGE itMISS LATENCY: 0 cycles
cpu0_L1I AVERAGE dtMISS LATENCY: 0 cycles
cpu0_L1I PAGE CROSSINGS (TLB HIT):         0 
cpu0_L1I PAGE CROSSINGS (TLB MISS):         0 
cpu0_L1I AVERAGE MISS LATENCY: 13.7258 cycles
cpu0_ITLB TOTAL       ACCESS:   29043602  HIT:   27086389  MISS:    1957213  iACCESS:   29043602  iHIT:   27086389  iMISS:    1957213  dACCESS:          0  dHIT:          0  dMISS:          0  itACCESS:          0  itHIT:          0  itMISS:          0  dtACCESS:          0  dtHIT:          0  dtMISS:          0
cpu0_ITLB LOAD         ACCESS:   29043602  HIT:   27086389  MISS:    1957213  iACCESS:   29043602  iHIT:   27086389  iMISS:    1957213  dACCESS:          0  dHIT:          0  dMISS:          0  itACCESS:          0  itHIT:          0  itMISS:          0  dtACCESS:          0  dtHIT:          0  dtMISS:          0
cpu0_ITLB RFO          ACCESS:          0  HIT:          0  MISS:          0  iACCESS:          0  iHIT:          0  iMISS:          0  dACCESS:          0  dHIT:          0  dMISS:          0  itACCESS:          0  itHIT:          0  itMISS:          0  dtACCESS:          0  dtHIT:          0  dtMISS:          0
cpu0_ITLB PREFETCH     ACCESS:          0  HIT:          0  MISS:          0  iACCESS:          0  iHIT:          0  iMISS:          0  dACCESS:          0  dHIT:          0  dMISS:          0  itACCESS:          0  itHIT:          0  itMISS:          0  dtACCESS:          0  dtHIT:          0  dtMISS:          0
cpu0_ITLB WRITE        ACCESS:          0  HIT:          0  MISS:          0  iACCESS:          0  iHIT:          0  iMISS:          0  dACCESS:          0  dHIT:          0  dMISS:          0  itACCESS:          0  itHIT:          0  itMISS:          0  dtACCESS:          0  dtHIT:          0  dtMISS:          0
cpu0_ITLB TRANSLATION  ACCESS:          0  HIT:          0  MISS:          0  iACCESS:          0  iHIT:          0  iMISS:          0  dACCESS:          0  dHIT:          0  dMISS:          0  itACCESS:          0  itHIT:          0  itMISS:          0  dtACCESS:          0  dtHIT:          0  dtMISS:          0
cpu0_ITLB PREFETCH  REQUESTED:          0  ISSUED:          0  CROSSED:          0  USEFUL:     320383  USELESS:      66282
cpu0_ITLB AVERAGE iMISS LATENCY: 3.17857 cycles
cpu0_ITLB AVERAGE dMISS LATENCY: 0 cycles
cpu0_ITLB AVERAGE itMISS LATENCY: 0 cycles
cpu0_ITLB AVERAGE dtMISS LATENCY: 0 cycles
cpu0_ITLB PAGE CROSSINGS (TLB HIT):         0 
cpu0_ITLB PAGE CROSSINGS (TLB MISS):         0 
cpu0_ITLB AVERAGE MISS LATENCY: 3.17857 cycles
cpu0_DTLB TOTAL       ACCESS:   27742863  HIT:   25681518  MISS:    2061345  iACCESS:          0  iHIT:          0  iMISS:          0  dACCESS:   27742863  dHIT:   25681518  dMISS:    2061345  itACCESS:          0  itHIT:          0  itMISS:          0  dtACCESS:          0  dtHIT:          0  dtMISS:          0
cpu0_DTLB LOAD         ACCESS:   27742863  HIT:   25681518  MISS:    2061345  iACCESS:          0  iHIT:          0  iMISS:          0  dACCESS:   27742863  dHIT:   25681518  dMISS:    2061345  itACCESS:          0  itHIT:          0  itMISS:          0  dtACCESS:          0  dtHIT:          0  dtMISS:          0
cpu0_DTLB RFO          ACCESS:          0  HIT:          0  MISS:          0  iACCESS:          0  iHIT:          0  iMISS:          0  dACCESS:          0  dHIT:          0  dMISS:          0  itACCESS:          0  itHIT:          0  itMISS:          0  dtACCESS:          0  dtHIT:          0  dtMISS:          0
cpu0_DTLB PREFETCH     ACCESS:          0  HIT:          0  MISS:          0  iACCESS:          0  iHIT:          0  iMISS:          0  dACCESS:          0  dHIT:          0  dMISS:          0  itACCESS:          0  itHIT:          0  itMISS:          0  dtACCESS:          0  dtHIT:          0  dtMISS:          0
cpu0_DTLB WRITE        ACCESS:          0  HIT:          0  MISS:          0  iACCESS:          0  iHIT:          0  iMISS:          0  dACCESS:          0  dHIT:          0  dMISS:          0  itACCESS:          0  itHIT:          0  itMISS:          0  dtACCESS:          0  dtHIT:          0  dtMISS:          0
cpu0_DTLB TRANSLATION  ACCESS:          0  HIT:          0  MISS:          0  iACCESS:          0  iHIT:          0  iMISS:          0  dACCESS:          0  dHIT:          0  dMISS:          0  itACCESS:          0  itHIT:          0  itMISS:          0  dtACCESS:          0  dtHIT:          0  dtMISS:          0
cpu0_DTLB PREFETCH  REQUESTED:          0  ISSUED:          0  CROSSED:          0  USEFUL:          0  USELESS:          0
cpu0_DTLB AVERAGE iMISS LATENCY: 0 cycles
cpu0_DTLB AVERAGE dMISS LATENCY: 10.4064 cycles
cpu0_DTLB AVERAGE itMISS LATENCY: 0 cycles
cpu0_DTLB AVERAGE dtMISS LATENCY: 0 cycles
cpu0_DTLB PAGE CROSSINGS (TLB HIT):         0 
cpu0_DTLB PAGE CROSSINGS (TLB MISS):         0 
cpu0_DTLB AVERAGE MISS LATENCY: 10.4064 cycles
cpu0_STLB TOTAL       ACCESS:    1608941  HIT:    1432600  MISS:     176341  iACCESS:     386668  iHIT:     322053  iMISS:      64615  dACCESS:    1222273  dHIT:    1110547  dMISS:     111726  itACCESS:          0  itHIT:          0  itMISS:          0  dtACCESS:          0  dtHIT:          0  dtMISS:          0
cpu0_STLB LOAD         ACCESS:    1608941  HIT:    1432600  MISS:     176341  iACCESS:     386668  iHIT:     322053  iMISS:      64615  dACCESS:    1222273  dHIT:    1110547  dMISS:     111726  itACCESS:          0  itHIT:          0  itMISS:          0  dtACCESS:          0  dtHIT:          0  dtMISS:          0
cpu0_STLB RFO          ACCESS:          0  HIT:          0  MISS:          0  iACCESS:          0  iHIT:          0  iMISS:          0  dACCESS:          0  dHIT:          0  dMISS:          0  itACCESS:          0  itHIT:          0  itMISS:          0  dtACCESS:          0  dtHIT:          0  dtMISS:          0
cpu0_STLB PREFETCH     ACCESS:          0  HIT:          0  MISS:          0  iACCESS:          0  iHIT:          0  iMISS:          0  dACCESS:          0  dHIT:          0  dMISS:          0  itACCESS:          0  itHIT:          0  itMISS:          0  dtACCESS:          0  dtHIT:          0  dtMISS:          0
cpu0_STLB WRITE        ACCESS:          0  HIT:          0  MISS:          0  iACCESS:          0  iHIT:          0  iMISS:          0  dACCESS:          0  dHIT:          0  dMISS:          0  itACCESS:          0  itHIT:          0  itMISS:          0  dtACCESS:          0  dtHIT:          0  dtMISS:          0
cpu0_STLB TRANSLATION  ACCESS:          0  HIT:          0  MISS:          0  iACCESS:          0  iHIT:          0  iMISS:          0  dACCESS:          0  dHIT:          0  dMISS:          0  itACCESS:          0  itHIT:          0  itMISS:          0  dtACCESS:          0  dtHIT:          0  dtMISS:          0
cpu0_STLB PREFETCH  REQUESTED:          0  ISSUED:          0  CROSSED:          0  USEFUL:          0  USELESS:          0
cpu0_STLB AVERAGE iMISS LATENCY: 17.9281 cycles
cpu0_STLB AVERAGE dMISS LATENCY: 66.3883 cycles
cpu0_STLB AVERAGE itMISS LATENCY: 0 cycles
cpu0_STLB AVERAGE dtMISS LATENCY: 0 cycles
cpu0_STLB PAGE CROSSINGS (TLB HIT):         0 
cpu0_STLB PAGE CROSSINGS (TLB MISS):         0 
cpu0_STLB AVERAGE MISS LATENCY: 84.3164 cycles
cpu0_L1D TOTAL       ACCESS:   41799144  HIT:   38067531  MISS:    3731613  iACCESS:          0  iHIT:          0  iMISS:          0  dACCESS:   41558767  dHIT:   38045736  dMISS:    3513031  itACCESS:      70135  itHIT:      10315  itMISS:      59820  dtACCESS:     170242  dtHIT:      11480  dtMISS:     158762
cpu0_L1D LOAD         ACCESS:   18962861  HIT:   17466066  MISS:    1496795  iACCESS:          0  iHIT:          0  iMISS:          0  dACCESS:   18962861  dHIT:   17466066  dMISS:    1496795  itACCESS:          0  itHIT:          0  itMISS:          0  dtACCESS:          0  dtHIT:          0  dtMISS:          0
cpu0_L1D RFO          ACCESS:          0  HIT:          0  MISS:          0  iACCESS:          0  iHIT:          0  iMISS:          0  dACCESS:          0  dHIT:          0  dMISS:          0  itACCESS:          0  itHIT:          0  itMISS:          0  dtACCESS:          0  dtHIT:          0  dtMISS:          0
cpu0_L1D PREFETCH     ACCESS:   12213375  HIT:   10850418  MISS:    1362957  iACCESS:          0  iHIT:          0  iMISS:          0  dACCESS:   12213375  dHIT:   10850418  dMISS:    1362957  itACCESS:          0  itHIT:          0  itMISS:          0  dtACCESS:          0  dtHIT:          0  dtMISS:          0
cpu0_L1D WRITE        ACCESS:   10382531  HIT:    9729252  MISS:     653279  iACCESS:          0  iHIT:          0  iMISS:          0  dACCESS:   10382531  dHIT:    9729252  dMISS:     653279  itACCESS:          0  itHIT:          0  itMISS:          0  dtACCESS:          0  dtHIT:          0  dtMISS:          0
cpu0_L1D TRANSLATION  ACCESS:     240377  HIT:      21795  MISS:     218582  iACCESS:          0  iHIT:          0  iMISS:          0  dACCESS:          0  dHIT:          0  dMISS:          0  itACCESS:      70135  itHIT:      10315  itMISS:      59820  dtACCESS:     170242  dtHIT:      11480  dtMISS:     158762
cpu0_L1D PREFETCH  REQUESTED:   18962861  ISSUED:   17065873  CROSSED:          0  USEFUL:     303319  USELESS:     695261
cpu0_L1D AVERAGE iMISS LATENCY: 0 cycles
cpu0_L1D AVERAGE dMISS LATENCY: 32.4643 cycles
cpu0_L1D AVERAGE itMISS LATENCY: 0.69719 cycles
cpu0_L1D AVERAGE dtMISS LATENCY: 2.43399 cycles
cpu0_L1D PAGE CROSSINGS (TLB HIT):         0 
cpu0_L1D PAGE CROSSINGS (TLB MISS):         0 
cpu0_L1D AVERAGE MISS LATENCY: 35.5954 cycles
cpu0_L2C TOTAL       ACCESS:    6934464  HIT:    1677335  MISS:    5257129  iACCESS:    3257743  iHIT:     854082  iMISS:    2403661  dACCESS:    3469680  dHIT:     702377  dMISS:    2767303  itACCESS:      59820  itHIT:      44162  itMISS:      15658  dtACCESS:     147221  dtHIT:      76714  dtMISS:      70507
cpu0_L2C LOAD         ACCESS:    1699898  HIT:     290620  MISS:    1409278  iACCESS:     777707  iHIT:     145331  iMISS:     632376  dACCESS:     922191  dHIT:     145289  dMISS:     776902  itACCESS:          0  itHIT:          0  itMISS:          0  dtACCESS:          0  dtHIT:          0  dtMISS:          0
cpu0_L2C RFO          ACCESS:     172376  HIT:      50456  MISS:     121920  iACCESS:          0  iHIT:          0  iMISS:          0  dACCESS:     172376  dHIT:      50456  dMISS:     121920  itACCESS:          0  itHIT:          0  itMISS:          0  dtACCESS:          0  dtHIT:          0  dtMISS:          0
cpu0_L2C PREFETCH     ACCESS:    4557665  HIT:    1068877  MISS:    3488788  iACCESS:    2480036  iHIT:     708751  iMISS:    1771285  dACCESS:    2077629  dHIT:     360126  dMISS:    1717503  itACCESS:          0  itHIT:          0  itMISS:          0  dtACCESS:          0  dtHIT:          0  dtMISS:          0
cpu0_L2C WRITE        ACCESS:     297484  HIT:     146506  MISS:     150978  iACCESS:          0  iHIT:          0  iMISS:          0  dACCESS:     297484  dHIT:     146506  dMISS:     150978  itACCESS:          0  itHIT:          0  itMISS:          0  dtACCESS:          0  dtHIT:          0  dtMISS:          0
cpu0_L2C TRANSLATION  ACCESS:     207041  HIT:     120876  MISS:      86165  iACCESS:          0  iHIT:          0  iMISS:          0  dACCESS:          0  dHIT:          0  dMISS:          0  itACCESS:      59820  itHIT:      44162  itMISS:      15658  dtACCESS:     147221  dtHIT:      76714  dtMISS:      70507
cpu0_L2C PREFETCH  REQUESTED:    1329793  ISSUED:    1329793  CROSSED:          0  USEFUL:     390874  USELESS:     365382
cpu0_L2C AVERAGE iMISS LATENCY: 15.7861 cycles
cpu0_L2C AVERAGE dMISS LATENCY: 26.6172 cycles
cpu0_L2C AVERAGE itMISS LATENCY: 0.389254 cycles
cpu0_L2C AVERAGE dtMISS LATENCY: 1.46072 cycles
cpu0_L2C PAGE CROSSINGS (TLB HIT):         0 
cpu0_L2C PAGE CROSSINGS (TLB MISS):         0 
cpu0_L2C AVERAGE MISS LATENCY: 44.2532 cycles
LLC TOTAL       ACCESS:    5151065  HIT:    4296266  MISS:     854799  iACCESS:    2350351  iHIT:    2099220  iMISS:     251131  dACCESS:    2714549  dHIT:    2155635  dMISS:     558914  itACCESS:      15658  itHIT:       5792  itMISS:       9866  dtACCESS:      70507  dtHIT:      35619  dtMISS:      34888
LLC LOAD         ACCESS:    1407588  HIT:    1220417  MISS:     187171  iACCESS:     631207  iHIT:     577880  iMISS:      53327  dACCESS:     776381  dHIT:     642537  dMISS:     133844  itACCESS:          0  itHIT:          0  itMISS:          0  dtACCESS:          0  dtHIT:          0  dtMISS:          0
LLC RFO          ACCESS:     121917  HIT:      70185  MISS:      51732  iACCESS:          0  iHIT:          0  iMISS:          0  dACCESS:     121917  dHIT:      70185  dMISS:      51732  itACCESS:          0  itHIT:          0  itMISS:          0  dtACCESS:          0  dtHIT:          0  dtMISS:          0
LLC PREFETCH     ACCESS:    3380974  HIT:    2819644  MISS:     561330  iACCESS:    1719144  iHIT:    1521340  iMISS:     197804  dACCESS:    1661830  dHIT:    1298304  dMISS:     363526  itACCESS:          0  itHIT:          0  itMISS:          0  dtACCESS:          0  dtHIT:          0  dtMISS:          0
LLC WRITE        ACCESS:     154421  HIT:     144609  MISS:       9812  iACCESS:          0  iHIT:          0  iMISS:          0  dACCESS:     154421  dHIT:     144609  dMISS:       9812  itACCESS:          0  itHIT:          0  itMISS:          0  dtACCESS:          0  dtHIT:          0  dtMISS:          0
LLC TRANSLATION  ACCESS:      86165  HIT:      41411  MISS:      44754  iACCESS:          0  iHIT:          0  iMISS:          0  dACCESS:          0  dHIT:          0  dMISS:          0  itACCESS:      15658  itHIT:       5792  itMISS:       9866  dtACCESS:      70507  dtHIT:      35619  dtMISS:      34888
LLC PREFETCH  REQUESTED:          0  ISSUED:          0  CROSSED:          0  USEFUL:          0  USELESS:          0
LLC AVERAGE iMISS LATENCY: 44.0184 cycles
LLC AVERAGE dMISS LATENCY: 105.971 cycles
LLC AVERAGE itMISS LATENCY: 2.03517 cycles
LLC AVERAGE dtMISS LATENCY: 7.37731 cycles
LLC PAGE CROSSINGS (TLB HIT):         0 
LLC PAGE CROSSINGS (TLB MISS):         0 
LLC AVERAGE MISS LATENCY: 159.402 cycles

PageTableWalker TOTAL       ACCESS:      87847  
PageTableWalker AVERAGE LATENCY: 4.51011 cycles
PageTableWalker TOTAL LATENCY: 396199 cycles

DRAM Statistics
Channel 0
 RQ ROW_BUFFER_HIT:     245967
  ROW_BUFFER_MISS:     598946
 AVG DBUS CONGESTED CYCLE:    3.67542
 WQ ROW_BUFFER_HIT:      18333
  ROW_BUFFER_MISS:      36583  FULL:          0

