last_page:0x200000000000000
VMEM_RES_CAP:0x100000
PAGE_SIZE:4096
LOG2_PAGE_SIZE:12
LOG2_PAGE_TABLE_SIZE:9
page_table_levels:5
WARNING: physical memory size is smaller than virtual memory size
FDiP enabled with aggresivity 16

*** ChampSim Multicore Out-of-Order Simulator ***

Warmup Instructions: 50000000
Simulation Instructions: 100000000
Number of CPUs: 1
Small page size: 4096
Large page size: 2097152

CPU 0 Bimodal branch predictor
Basic BTB sets: 1024 ways: 8 indirect buffer size: 4096 RAS size: 64
Instruction page size distrubution: 0
Loading instruction page size distribution from /home/bsc/bsc018186/scratch/itp_asplos25_AE/dump/srv105_ap.pdst
Data page size distrubution: 0
Loading data page size distribution from /home/bsc/bsc018186/scratch/itp_asplos25_AE/dump/srv105_ap.pdst
cpu0_L2C IP-based stride prefetcher
cpu0_L1D next line prefetcher
cpu0_L1I next line prefetcher
Off-chip DRAM Size: 4 GiB Channels: 1 Width: 64-bit Data Rate: 3200 MT/s
Heartbeat CPU 0 instructions: 10000001 cycles: 2500238 heartbeat IPC: 3.99962 cumulative IPC: 3.99962 (Simulation time: 0 hr 0 min 35 sec) 
Heartbeat CPU 0 instructions: 20000000 cycles: 5000265 heartbeat IPC: 3.99996 cumulative IPC: 3.99979 (Simulation time: 0 hr 1 min 12 sec) 
Heartbeat CPU 0 instructions: 30000002 cycles: 7500381 heartbeat IPC: 3.99982 cumulative IPC: 3.9998 (Simulation time: 0 hr 1 min 49 sec) 
Heartbeat CPU 0 instructions: 40000001 cycles: 10000386 heartbeat IPC: 4 cumulative IPC: 3.99985 (Simulation time: 0 hr 2 min 27 sec) 
Heartbeat CPU 0 instructions: 50000000 cycles: 12502307 heartbeat IPC: 3.99693 cumulative IPC: 3.99927 (Simulation time: 0 hr 3 min 4 sec) 
Warmup finished CPU 0 instructions: 50000000 cycles: 12502308 cumulative IPC: 3.99927 (Simulation time: 0 hr 3 min 4 sec) 

Warmup complete CPU 0 instructions: 50000000 cycles: 12502308 (Simulation time: 0 hr 3 min 4 sec) 

Heartbeat CPU 0 instructions: 60000002 cycles: 26190364 heartbeat IPC: 0.730565 cumulative IPC: 0.730565 (Simulation time: 0 hr 4 min 3 sec) 
Heartbeat CPU 0 instructions: 70000003 cycles: 40340583 heartbeat IPC: 0.706703 cumulative IPC: 0.718436 (Simulation time: 0 hr 5 min 3 sec) 
Heartbeat CPU 0 instructions: 80000001 cycles: 53705736 heartbeat IPC: 0.748215 cumulative IPC: 0.728095 (Simulation time: 0 hr 6 min 2 sec) 
Heartbeat CPU 0 instructions: 90000001 cycles: 67178683 heartbeat IPC: 0.742229 cumulative IPC: 0.731578 (Simulation time: 0 hr 7 min 1 sec) 
Heartbeat CPU 0 instructions: 100000001 cycles: 81652796 heartbeat IPC: 0.690889 cumulative IPC: 0.723061 (Simulation time: 0 hr 8 min 1 sec) 
*** Reached end of trace: /gpfs/projects/bsc18/MN4/bsc18/romol/ChampSim/traces/qualcomm_srv/srv105_ap.champsimtrace.xz
Heartbeat CPU 0 instructions: 110000000 cycles: 95439441 heartbeat IPC: 0.72534 cumulative IPC: 0.72344 (Simulation time: 0 hr 9 min 1 sec) 
Heartbeat CPU 0 instructions: 120000002 cycles: 109053568 heartbeat IPC: 0.734532 cumulative IPC: 0.725004 (Simulation time: 0 hr 10 min 0 sec) 
Heartbeat CPU 0 instructions: 130000004 cycles: 123129480 heartbeat IPC: 0.710434 cumulative IPC: 0.72315 (Simulation time: 0 hr 11 min 0 sec) 
Heartbeat CPU 0 instructions: 140000001 cycles: 136808671 heartbeat IPC: 0.731038 cumulative IPC: 0.724018 (Simulation time: 0 hr 11 min 59 sec) 
Heartbeat CPU 0 instructions: 150000002 cycles: 151369148 heartbeat IPC: 0.686791 cumulative IPC: 0.720115 (Simulation time: 0 hr 13 min 0 sec) 
Simulation finished CPU 0 instructions: 100000002 cycles: 138866841 cumulative IPC: 0.720115 (Simulation time: 0 hr 13 min 0 sec) 

Simulation complete CPU 0 instructions: 100000002 cycles: 138866841 (Simulation time: 0 hr 13 min 0 sec) 


ChampSim completed all CPUs

Saving instructions large page distribution to /home/bsc/bsc018186/scratch/itp_asplos25_AE/dump/srv105_ap.pdst...
Saving data large page distribution to /home/bsc/bsc018186/scratch/itp_asplos25_AE/dump/srv105_ap.pdst...
=== Simulation ===
CPU 0 runs /gpfs/projects/bsc18/MN4/bsc18/romol/ChampSim/traces/qualcomm_srv/srv105_ap.champsimtrace.xz

Region of Interest Statistics

CPU 0 cumulative IPC: 0.720115 instructions: 100000002 cycles: 138866841
CPU 0 Branch Prediction Accuracy: 83.4325% MPKI: 29.7637 Average ROB Occupancy at Mispredict: 12.2309
Branch type MPKI
BRANCH_DIRECT_JUMP: 0.95112
BRANCH_INDIRECT: 15.4543
BRANCH_CONDITIONAL: 9.71814
BRANCH_DIRECT_CALL: 1.80961
BRANCH_INDIRECT_CALL: 0.50451
BRANCH_RETURN: 1.32606

Instructions large pages: 0
Instructions small pages: 988
Large page distribution for instructions: 0%

Data large pages: 0
Data small pages: 9284
Large page distribution for data: 0%

cpu0_L1I TOTAL       ACCESS:   35031331  HIT:   26542845  MISS:    8488486  iACCESS:   35031331  iHIT:   26542845  iMISS:    8488486  dACCESS:          0  dHIT:          0  dMISS:          0  itACCESS:          0  itHIT:          0  itMISS:          0  dtACCESS:          0  dtHIT:          0  dtMISS:          0
cpu0_L1I LOAD         ACCESS:   10197976  HIT:    7819865  MISS:    2378111  iACCESS:   10197976  iHIT:    7819865  iMISS:    2378111  dACCESS:          0  dHIT:          0  dMISS:          0  itACCESS:          0  itHIT:          0  itMISS:          0  dtACCESS:          0  dtHIT:          0  dtMISS:          0
cpu0_L1I RFO          ACCESS:          0  HIT:          0  MISS:          0  iACCESS:          0  iHIT:          0  iMISS:          0  dACCESS:          0  dHIT:          0  dMISS:          0  itACCESS:          0  itHIT:          0  itMISS:          0  dtACCESS:          0  dtHIT:          0  dtMISS:          0
cpu0_L1I PREFETCH     ACCESS:   24833355  HIT:   18722980  MISS:    6110375  iACCESS:   24833355  iHIT:   18722980  iMISS:    6110375  dACCESS:          0  dHIT:          0  dMISS:          0  itACCESS:          0  itHIT:          0  itMISS:          0  dtACCESS:          0  dtHIT:          0  dtMISS:          0
cpu0_L1I WRITE        ACCESS:          0  HIT:          0  MISS:          0  iACCESS:          0  iHIT:          0  iMISS:          0  dACCESS:          0  dHIT:          0  dMISS:          0  itACCESS:          0  itHIT:          0  itMISS:          0  dtACCESS:          0  dtHIT:          0  dtMISS:          0
cpu0_L1I TRANSLATION  ACCESS:          0  HIT:          0  MISS:          0  iACCESS:          0  iHIT:          0  iMISS:          0  dACCESS:          0  dHIT:          0  dMISS:          0  itACCESS:          0  itHIT:          0  itMISS:          0  dtACCESS:          0  dtHIT:          0  dtMISS:          0
cpu0_L1I PREFETCH  REQUESTED:   27098579  ISSUED:   27096135  CROSSED:          0  USEFUL:    1931103  USELESS:     637153
cpu0_L1I AVERAGE iMISS LATENCY: 12.9787 cycles
cpu0_L1I AVERAGE dMISS LATENCY: 0 cycles
cpu0_L1I AVERAGE itMISS LATENCY: 0 cycles
cpu0_L1I AVERAGE dtMISS LATENCY: 0 cycles
cpu0_L1I PAGE CROSSINGS (TLB HIT):         0 
cpu0_L1I PAGE CROSSINGS (TLB MISS):         0 
cpu0_L1I AVERAGE MISS LATENCY: 12.9787 cycles
cpu0_ITLB TOTAL       ACCESS:   29007845  HIT:   27019710  MISS:    1988135  iACCESS:   29007845  iHIT:   27019710  iMISS:    1988135  dACCESS:          0  dHIT:          0  dMISS:          0  itACCESS:          0  itHIT:          0  itMISS:          0  dtACCESS:          0  dtHIT:          0  dtMISS:          0
cpu0_ITLB LOAD         ACCESS:   29007845  HIT:   27019710  MISS:    1988135  iACCESS:   29007845  iHIT:   27019710  iMISS:    1988135  dACCESS:          0  dHIT:          0  dMISS:          0  itACCESS:          0  itHIT:          0  itMISS:          0  dtACCESS:          0  dtHIT:          0  dtMISS:          0
cpu0_ITLB RFO          ACCESS:          0  HIT:          0  MISS:          0  iACCESS:          0  iHIT:          0  iMISS:          0  dACCESS:          0  dHIT:          0  dMISS:          0  itACCESS:          0  itHIT:          0  itMISS:          0  dtACCESS:          0  dtHIT:          0  dtMISS:          0
cpu0_ITLB PREFETCH     ACCESS:          0  HIT:          0  MISS:          0  iACCESS:          0  iHIT:          0  iMISS:          0  dACCESS:          0  dHIT:          0  dMISS:          0  itACCESS:          0  itHIT:          0  itMISS:          0  dtACCESS:          0  dtHIT:          0  dtMISS:          0
cpu0_ITLB WRITE        ACCESS:          0  HIT:          0  MISS:          0  iACCESS:          0  iHIT:          0  iMISS:          0  dACCESS:          0  dHIT:          0  dMISS:          0  itACCESS:          0  itHIT:          0  itMISS:          0  dtACCESS:          0  dtHIT:          0  dtMISS:          0
cpu0_ITLB TRANSLATION  ACCESS:          0  HIT:          0  MISS:          0  iACCESS:          0  iHIT:          0  iMISS:          0  dACCESS:          0  dHIT:          0  dMISS:          0  itACCESS:          0  itHIT:          0  itMISS:          0  dtACCESS:          0  dtHIT:          0  dtMISS:          0
cpu0_ITLB PREFETCH  REQUESTED:          0  ISSUED:          0  CROSSED:          0  USEFUL:     325962  USELESS:      62464
cpu0_ITLB AVERAGE iMISS LATENCY: 2.99819 cycles
cpu0_ITLB AVERAGE dMISS LATENCY: 0 cycles
cpu0_ITLB AVERAGE itMISS LATENCY: 0 cycles
cpu0_ITLB AVERAGE dtMISS LATENCY: 0 cycles
cpu0_ITLB PAGE CROSSINGS (TLB HIT):         0 
cpu0_ITLB PAGE CROSSINGS (TLB MISS):         0 
cpu0_ITLB AVERAGE MISS LATENCY: 2.99819 cycles
cpu0_DTLB TOTAL       ACCESS:   27758751  HIT:   25654159  MISS:    2104592  iACCESS:          0  iHIT:          0  iMISS:          0  dACCESS:   27758751  dHIT:   25654159  dMISS:    2104592  itACCESS:          0  itHIT:          0  itMISS:          0  dtACCESS:          0  dtHIT:          0  dtMISS:          0
cpu0_DTLB LOAD         ACCESS:   27758751  HIT:   25654159  MISS:    2104592  iACCESS:          0  iHIT:          0  iMISS:          0  dACCESS:   27758751  dHIT:   25654159  dMISS:    2104592  itACCESS:          0  itHIT:          0  itMISS:          0  dtACCESS:          0  dtHIT:          0  dtMISS:          0
cpu0_DTLB RFO          ACCESS:          0  HIT:          0  MISS:          0  iACCESS:          0  iHIT:          0  iMISS:          0  dACCESS:          0  dHIT:          0  dMISS:          0  itACCESS:          0  itHIT:          0  itMISS:          0  dtACCESS:          0  dtHIT:          0  dtMISS:          0
cpu0_DTLB PREFETCH     ACCESS:          0  HIT:          0  MISS:          0  iACCESS:          0  iHIT:          0  iMISS:          0  dACCESS:          0  dHIT:          0  dMISS:          0  itACCESS:          0  itHIT:          0  itMISS:          0  dtACCESS:          0  dtHIT:          0  dtMISS:          0
cpu0_DTLB WRITE        ACCESS:          0  HIT:          0  MISS:          0  iACCESS:          0  iHIT:          0  iMISS:          0  dACCESS:          0  dHIT:          0  dMISS:          0  itACCESS:          0  itHIT:          0  itMISS:          0  dtACCESS:          0  dtHIT:          0  dtMISS:          0
cpu0_DTLB TRANSLATION  ACCESS:          0  HIT:          0  MISS:          0  iACCESS:          0  iHIT:          0  iMISS:          0  dACCESS:          0  dHIT:          0  dMISS:          0  itACCESS:          0  itHIT:          0  itMISS:          0  dtACCESS:          0  dtHIT:          0  dtMISS:          0
cpu0_DTLB PREFETCH  REQUESTED:          0  ISSUED:          0  CROSSED:          0  USEFUL:          0  USELESS:          0
cpu0_DTLB AVERAGE iMISS LATENCY: 0 cycles
cpu0_DTLB AVERAGE dMISS LATENCY: 9.56646 cycles
cpu0_DTLB AVERAGE itMISS LATENCY: 0 cycles
cpu0_DTLB AVERAGE dtMISS LATENCY: 0 cycles
cpu0_DTLB PAGE CROSSINGS (TLB HIT):         0 
cpu0_DTLB PAGE CROSSINGS (TLB MISS):         0 
cpu0_DTLB AVERAGE MISS LATENCY: 9.56646 cycles
cpu0_STLB TOTAL       ACCESS:    1641971  HIT:    1478562  MISS:     163409  iACCESS:     388470  iHIT:     331250  iMISS:      57220  dACCESS:    1253501  dHIT:    1147312  dMISS:     106189  itACCESS:          0  itHIT:          0  itMISS:          0  dtACCESS:          0  dtHIT:          0  dtMISS:          0
cpu0_STLB LOAD         ACCESS:    1641971  HIT:    1478562  MISS:     163409  iACCESS:     388470  iHIT:     331250  iMISS:      57220  dACCESS:    1253501  dHIT:    1147312  dMISS:     106189  itACCESS:          0  itHIT:          0  itMISS:          0  dtACCESS:          0  dtHIT:          0  dtMISS:          0
cpu0_STLB RFO          ACCESS:          0  HIT:          0  MISS:          0  iACCESS:          0  iHIT:          0  iMISS:          0  dACCESS:          0  dHIT:          0  dMISS:          0  itACCESS:          0  itHIT:          0  itMISS:          0  dtACCESS:          0  dtHIT:          0  dtMISS:          0
cpu0_STLB PREFETCH     ACCESS:          0  HIT:          0  MISS:          0  iACCESS:          0  iHIT:          0  iMISS:          0  dACCESS:          0  dHIT:          0  dMISS:          0  itACCESS:          0  itHIT:          0  itMISS:          0  dtACCESS:          0  dtHIT:          0  dtMISS:          0
cpu0_STLB WRITE        ACCESS:          0  HIT:          0  MISS:          0  iACCESS:          0  iHIT:          0  iMISS:          0  dACCESS:          0  dHIT:          0  dMISS:          0  itACCESS:          0  itHIT:          0  itMISS:          0  dtACCESS:          0  dtHIT:          0  dtMISS:          0
cpu0_STLB TRANSLATION  ACCESS:          0  HIT:          0  MISS:          0  iACCESS:          0  iHIT:          0  iMISS:          0  dACCESS:          0  dHIT:          0  dMISS:          0  itACCESS:          0  itHIT:          0  itMISS:          0  dtACCESS:          0  dtHIT:          0  dtMISS:          0
cpu0_STLB PREFETCH  REQUESTED:          0  ISSUED:          0  CROSSED:          0  USEFUL:          0  USELESS:          0
cpu0_STLB AVERAGE iMISS LATENCY: 17.7021 cycles
cpu0_STLB AVERAGE dMISS LATENCY: 62.1151 cycles
cpu0_STLB AVERAGE itMISS LATENCY: 0 cycles
cpu0_STLB AVERAGE dtMISS LATENCY: 0 cycles
cpu0_STLB PAGE CROSSINGS (TLB HIT):         0 
cpu0_STLB PAGE CROSSINGS (TLB MISS):         0 
cpu0_STLB AVERAGE MISS LATENCY: 79.8171 cycles
cpu0_L1D TOTAL       ACCESS:   41611741  HIT:   38032198  MISS:    3579543  iACCESS:          0  iHIT:          0  iMISS:          0  dACCESS:   41385011  dHIT:   38012604  dMISS:    3372407  itACCESS:      62207  itHIT:       9058  itMISS:      53149  dtACCESS:     164523  dtHIT:      10536  dtMISS:     153987
cpu0_L1D LOAD         ACCESS:   18989954  HIT:   17441606  MISS:    1548348  iACCESS:          0  iHIT:          0  iMISS:          0  dACCESS:   18989954  dHIT:   17441606  dMISS:    1548348  itACCESS:          0  itHIT:          0  itMISS:          0  dtACCESS:          0  dtHIT:          0  dtMISS:          0
cpu0_L1D RFO          ACCESS:          0  HIT:          0  MISS:          0  iACCESS:          0  iHIT:          0  iMISS:          0  dACCESS:          0  dHIT:          0  dMISS:          0  itACCESS:          0  itHIT:          0  itMISS:          0  dtACCESS:          0  dtHIT:          0  dtMISS:          0
cpu0_L1D PREFETCH     ACCESS:   12242756  HIT:   10848619  MISS:    1394137  iACCESS:          0  iHIT:          0  iMISS:          0  dACCESS:   12242756  dHIT:   10848619  dMISS:    1394137  itACCESS:          0  itHIT:          0  itMISS:          0  dtACCESS:          0  dtHIT:          0  dtMISS:          0
cpu0_L1D WRITE        ACCESS:   10152301  HIT:    9722379  MISS:     429922  iACCESS:          0  iHIT:          0  iMISS:          0  dACCESS:   10152301  dHIT:    9722379  dMISS:     429922  itACCESS:          0  itHIT:          0  itMISS:          0  dtACCESS:          0  dtHIT:          0  dtMISS:          0
cpu0_L1D TRANSLATION  ACCESS:     226730  HIT:      19594  MISS:     207136  iACCESS:          0  iHIT:          0  iMISS:          0  dACCESS:          0  dHIT:          0  dMISS:          0  itACCESS:      62207  itHIT:       9058  itMISS:      53149  dtACCESS:     164523  dtHIT:      10536  dtMISS:     153987
cpu0_L1D PREFETCH  REQUESTED:   18989954  ISSUED:   17085740  CROSSED:          0  USEFUL:     308077  USELESS:     705939
cpu0_L1D AVERAGE iMISS LATENCY: 0 cycles
cpu0_L1D AVERAGE dMISS LATENCY: 32.1188 cycles
cpu0_L1D AVERAGE itMISS LATENCY: 0.66875 cycles
cpu0_L1D AVERAGE dtMISS LATENCY: 2.19147 cycles
cpu0_L1D PAGE CROSSINGS (TLB HIT):         0 
cpu0_L1D PAGE CROSSINGS (TLB MISS):         0 
cpu0_L1D AVERAGE MISS LATENCY: 34.979 cycles
cpu0_L2C TOTAL       ACCESS:    7014993  HIT:    1701224  MISS:    5313769  iACCESS:    3323182  iHIT:     866516  iMISS:    2456666  dACCESS:    3498658  dHIT:     719261  dMISS:    2779397  itACCESS:      53149  itHIT:      38056  itMISS:      15093  dtACCESS:     140004  dtHIT:      77391  dtMISS:      62613
cpu0_L2C LOAD         ACCESS:    1734787  HIT:     315653  MISS:    1419134  iACCESS:     794525  iHIT:     154476  iMISS:     640049  dACCESS:     940262  dHIT:     161177  dMISS:     779085  itACCESS:          0  itHIT:          0  itMISS:          0  dtACCESS:          0  dtHIT:          0  dtMISS:          0
cpu0_L2C RFO          ACCESS:     157107  HIT:      53121  MISS:     103986  iACCESS:          0  iHIT:          0  iMISS:          0  dACCESS:     157107  dHIT:      53121  dMISS:     103986  itACCESS:          0  itHIT:          0  itMISS:          0  dtACCESS:          0  dtHIT:          0  dtMISS:          0
cpu0_L2C PREFETCH     ACCESS:    4644376  HIT:    1072762  MISS:    3571614  iACCESS:    2528657  iHIT:     712040  iMISS:    1816617  dACCESS:    2115719  dHIT:     360722  dMISS:    1754997  itACCESS:          0  itHIT:          0  itMISS:          0  dtACCESS:          0  dtHIT:          0  dtMISS:          0
cpu0_L2C WRITE        ACCESS:     285570  HIT:     144241  MISS:     141329  iACCESS:          0  iHIT:          0  iMISS:          0  dACCESS:     285570  dHIT:     144241  dMISS:     141329  itACCESS:          0  itHIT:          0  itMISS:          0  dtACCESS:          0  dtHIT:          0  dtMISS:          0
cpu0_L2C TRANSLATION  ACCESS:     193153  HIT:     115447  MISS:      77706  iACCESS:          0  iHIT:          0  iMISS:          0  dACCESS:          0  dHIT:          0  dMISS:          0  itACCESS:      53149  itHIT:      38056  itMISS:      15093  dtACCESS:     140004  dtHIT:      77391  dtMISS:      62613
cpu0_L2C PREFETCH  REQUESTED:    1386372  ISSUED:    1386372  CROSSED:          0  USEFUL:     400004  USELESS:     382597
cpu0_L2C AVERAGE iMISS LATENCY: 14.8768 cycles
cpu0_L2C AVERAGE dMISS LATENCY: 24.8686 cycles
cpu0_L2C AVERAGE itMISS LATENCY: 0.357422 cycles
cpu0_L2C AVERAGE dtMISS LATENCY: 1.22583 cycles
cpu0_L2C PAGE CROSSINGS (TLB HIT):         0 
cpu0_L2C PAGE CROSSINGS (TLB MISS):         0 
cpu0_L2C AVERAGE MISS LATENCY: 41.3287 cycles
LLC TOTAL       ACCESS:    5194211  HIT:    4418412  MISS:     775799  iACCESS:    2400006  iHIT:    2173005  iMISS:     227001  dACCESS:    2716499  dHIT:    2206903  dMISS:     509596  itACCESS:      15093  itHIT:       5644  itMISS:       9449  dtACCESS:      62613  dtHIT:      32860  dtMISS:      29753
LLC LOAD         ACCESS:    1416855  HIT:    1240903  MISS:     175952  iACCESS:     638731  iHIT:     589635  iMISS:      49096  dACCESS:     778124  dHIT:     651268  dMISS:     126856  itACCESS:          0  itHIT:          0  itMISS:          0  dtACCESS:          0  dtHIT:          0  dtMISS:          0
LLC RFO          ACCESS:     103986  HIT:      70766  MISS:      33220  iACCESS:          0  iHIT:          0  iMISS:          0  dACCESS:     103986  dHIT:      70766  dMISS:      33220  itACCESS:          0  itHIT:          0  itMISS:          0  dtACCESS:          0  dtHIT:          0  dtMISS:          0
LLC PREFETCH     ACCESS:    3463700  HIT:    2945168  MISS:     518532  iACCESS:    1761275  iHIT:    1583370  iMISS:     177905  dACCESS:    1702425  dHIT:    1361798  dMISS:     340627  itACCESS:          0  itHIT:          0  itMISS:          0  dtACCESS:          0  dtHIT:          0  dtMISS:          0
LLC WRITE        ACCESS:     131964  HIT:     123071  MISS:       8893  iACCESS:          0  iHIT:          0  iMISS:          0  dACCESS:     131964  dHIT:     123071  dMISS:       8893  itACCESS:          0  itHIT:          0  itMISS:          0  dtACCESS:          0  dtHIT:          0  dtMISS:          0
LLC TRANSLATION  ACCESS:      77706  HIT:      38504  MISS:      39202  iACCESS:          0  iHIT:          0  iMISS:          0  dACCESS:          0  dHIT:          0  dMISS:          0  itACCESS:      15093  itHIT:       5644  itMISS:       9449  dtACCESS:      62613  dtHIT:      32860  dtMISS:      29753
LLC PREFETCH  REQUESTED:          0  ISSUED:          0  CROSSED:          0  USEFUL:          0  USELESS:          0
LLC AVERAGE iMISS LATENCY: 42.2364 cycles
LLC AVERAGE dMISS LATENCY: 106.102 cycles
LLC AVERAGE itMISS LATENCY: 2.06699 cycles
LLC AVERAGE dtMISS LATENCY: 6.82591 cycles
LLC PAGE CROSSINGS (TLB HIT):         0 
LLC PAGE CROSSINGS (TLB MISS):         0 
LLC AVERAGE MISS LATENCY: 157.231 cycles

PageTableWalker TOTAL       ACCESS:      83688  
PageTableWalker AVERAGE LATENCY: 4.50038 cycles
PageTableWalker TOTAL LATENCY: 376627 cycles

DRAM Statistics
Channel 0
 RQ ROW_BUFFER_HIT:     210134
  ROW_BUFFER_MISS:     556225
 AVG DBUS CONGESTED CYCLE:    3.62074
 WQ ROW_BUFFER_HIT:      14605
  ROW_BUFFER_MISS:      21293  FULL:          0

