last_page:0x200000000000000
VMEM_RES_CAP:0x100000
PAGE_SIZE:4096
LOG2_PAGE_SIZE:12
LOG2_PAGE_TABLE_SIZE:9
page_table_levels:5
WARNING: physical memory size is smaller than virtual memory size
FDiP enabled with aggresivity 16

*** ChampSim Multicore Out-of-Order Simulator ***

Warmup Instructions: 50000000
Simulation Instructions: 100000000
Number of CPUs: 1
Small page size: 4096
Large page size: 2097152

CPU 0 Bimodal branch predictor
Basic BTB sets: 1024 ways: 8 indirect buffer size: 4096 RAS size: 64
Instruction page size distrubution: 0
Loading instruction page size distribution from /home/bsc/bsc018186/scratch/itp_asplos25_AE/dump/srv12_ap.pdst
Data page size distrubution: 0
Loading data page size distribution from /home/bsc/bsc018186/scratch/itp_asplos25_AE/dump/srv12_ap.pdst
cpu0_L2C IP-based stride prefetcher
cpu0_L2C is using PTP replacement policy:
	TLB_STRESS_THRESHOLD:0
	PTE_EVICTION_RATIO:0
cpu0_L1D next line prefetcher
cpu0_STLB using iTP with max lru@8
cpu0_STLB using iTP with instr@0 and data@2
Init sat counter with 3 bits (max:50).
cpu0_L1I next line prefetcher
Off-chip DRAM Size: 4 GiB Channels: 1 Width: 64-bit Data Rate: 3200 MT/s
Heartbeat CPU 0 instructions: 10000003 cycles: 2500140 heartbeat IPC: 3.99978 cumulative IPC: 3.99978 (Simulation time: 0 hr 0 min 37 sec) 
Heartbeat CPU 0 instructions: 20000001 cycles: 5002028 heartbeat IPC: 3.99699 cumulative IPC: 3.99838 (Simulation time: 0 hr 1 min 15 sec) 
Heartbeat CPU 0 instructions: 30000002 cycles: 7502143 heartbeat IPC: 3.99982 cumulative IPC: 3.99886 (Simulation time: 0 hr 1 min 54 sec) 
Heartbeat CPU 0 instructions: 40000003 cycles: 10002211 heartbeat IPC: 3.9999 cumulative IPC: 3.99912 (Simulation time: 0 hr 2 min 33 sec) 
Heartbeat CPU 0 instructions: 50000000 cycles: 12504290 heartbeat IPC: 3.99668 cumulative IPC: 3.99863 (Simulation time: 0 hr 3 min 12 sec) 
Warmup finished CPU 0 instructions: 50000000 cycles: 12504291 cumulative IPC: 3.99863 (Simulation time: 0 hr 3 min 12 sec) 

Warmup complete CPU 0 instructions: 50000000 cycles: 12504291 (Simulation time: 0 hr 3 min 12 sec) 

Heartbeat CPU 0 instructions: 60000002 cycles: 33580518 heartbeat IPC: 0.474469 cumulative IPC: 0.474469 (Simulation time: 0 hr 4 min 22 sec) 
Heartbeat CPU 0 instructions: 70000001 cycles: 55934142 heartbeat IPC: 0.447355 cumulative IPC: 0.460513 (Simulation time: 0 hr 5 min 33 sec) 
Heartbeat CPU 0 instructions: 80000000 cycles: 77557857 heartbeat IPC: 0.462456 cumulative IPC: 0.461159 (Simulation time: 0 hr 6 min 44 sec) 
Heartbeat CPU 0 instructions: 90000002 cycles: 99226345 heartbeat IPC: 0.4615 cumulative IPC: 0.461244 (Simulation time: 0 hr 7 min 54 sec) 
Heartbeat CPU 0 instructions: 100000000 cycles: 120437063 heartbeat IPC: 0.47146 cumulative IPC: 0.463252 (Simulation time: 0 hr 9 min 4 sec) 
*** Reached end of trace: /gpfs/projects/bsc18/MN4/bsc18/romol/ChampSim/traces/qualcomm_srv/srv12_ap.champsimtrace.xz
Heartbeat CPU 0 instructions: 110000000 cycles: 142002431 heartbeat IPC: 0.463707 cumulative IPC: 0.463328 (Simulation time: 0 hr 10 min 15 sec) 
Heartbeat CPU 0 instructions: 120000001 cycles: 162061715 heartbeat IPC: 0.498523 cumulative IPC: 0.468048 (Simulation time: 0 hr 11 min 23 sec) 
Heartbeat CPU 0 instructions: 130000004 cycles: 185139415 heartbeat IPC: 0.433319 cumulative IPC: 0.463406 (Simulation time: 0 hr 12 min 35 sec) 
Heartbeat CPU 0 instructions: 140000000 cycles: 208689593 heartbeat IPC: 0.424626 cumulative IPC: 0.45875 (Simulation time: 0 hr 13 min 49 sec) 
Heartbeat CPU 0 instructions: 150000000 cycles: 229885168 heartbeat IPC: 0.471797 cumulative IPC: 0.460023 (Simulation time: 0 hr 14 min 58 sec) 
Simulation finished CPU 0 instructions: 100000000 cycles: 217380878 cumulative IPC: 0.460023 (Simulation time: 0 hr 14 min 58 sec) 

Simulation complete CPU 0 instructions: 100000000 cycles: 217380878 (Simulation time: 0 hr 14 min 58 sec) 


ChampSim completed all CPUs

Saving instructions large page distribution to /home/bsc/bsc018186/scratch/itp_asplos25_AE/dump/srv12_ap.pdst...
Saving data large page distribution to /home/bsc/bsc018186/scratch/itp_asplos25_AE/dump/srv12_ap.pdst...
=== Simulation ===
CPU 0 runs /gpfs/projects/bsc18/MN4/bsc18/romol/ChampSim/traces/qualcomm_srv/srv12_ap.champsimtrace.xz

Region of Interest Statistics

CPU 0 cumulative IPC: 0.460023 instructions: 100000000 cycles: 217380878
CPU 0 Branch Prediction Accuracy: 79.1504% MPKI: 37.9192 Average ROB Occupancy at Mispredict: 10.1107
Branch type MPKI
BRANCH_DIRECT_JUMP: 1.46916
BRANCH_INDIRECT: 18.9595
BRANCH_CONDITIONAL: 12.0596
BRANCH_DIRECT_CALL: 2.72087
BRANCH_INDIRECT_CALL: 0.807841
BRANCH_RETURN: 1.90239

Instructions large pages: 0
Instructions small pages: 1649
Large page distribution for instructions: 0%

Data large pages: 0
Data small pages: 6133
Large page distribution for data: 0%

cpu0_L1I TOTAL       ACCESS:   35933517  HIT:   27714541  MISS:    8218976  iACCESS:   35933517  iHIT:   27714541  iMISS:    8218976  dACCESS:          0  dHIT:          0  dMISS:          0  itACCESS:          0  itHIT:          0  itMISS:          0  dtACCESS:          0  dtHIT:          0  dtMISS:          0
cpu0_L1I LOAD         ACCESS:   10318139  HIT:    8056681  MISS:    2261458  iACCESS:   10318139  iHIT:    8056681  iMISS:    2261458  dACCESS:          0  dHIT:          0  dMISS:          0  itACCESS:          0  itHIT:          0  itMISS:          0  dtACCESS:          0  dtHIT:          0  dtMISS:          0
cpu0_L1I RFO          ACCESS:          0  HIT:          0  MISS:          0  iACCESS:          0  iHIT:          0  iMISS:          0  dACCESS:          0  dHIT:          0  dMISS:          0  itACCESS:          0  itHIT:          0  itMISS:          0  dtACCESS:          0  dtHIT:          0  dtMISS:          0
cpu0_L1I PREFETCH     ACCESS:   25615378  HIT:   19657860  MISS:    5957518  iACCESS:   25615378  iHIT:   19657860  iMISS:    5957518  dACCESS:          0  dHIT:          0  dMISS:          0  itACCESS:          0  itHIT:          0  itMISS:          0  dtACCESS:          0  dtHIT:          0  dtMISS:          0
cpu0_L1I WRITE        ACCESS:          0  HIT:          0  MISS:          0  iACCESS:          0  iHIT:          0  iMISS:          0  dACCESS:          0  dHIT:          0  dMISS:          0  itACCESS:          0  itHIT:          0  itMISS:          0  dtACCESS:          0  dtHIT:          0  dtMISS:          0
cpu0_L1I TRANSLATION  ACCESS:          0  HIT:          0  MISS:          0  iACCESS:          0  iHIT:          0  iMISS:          0  dACCESS:          0  dHIT:          0  dMISS:          0  itACCESS:          0  itHIT:          0  itMISS:          0  dtACCESS:          0  dtHIT:          0  dtMISS:          0
cpu0_L1I PREFETCH  REQUESTED:   28005097  ISSUED:   28005047  CROSSED:          0  USEFUL:    2040078  USELESS:     692871
cpu0_L1I AVERAGE iMISS LATENCY: 21.3141 cycles
cpu0_L1I AVERAGE dMISS LATENCY: 0 cycles
cpu0_L1I AVERAGE itMISS LATENCY: 0 cycles
cpu0_L1I AVERAGE dtMISS LATENCY: 0 cycles
cpu0_L1I PAGE CROSSINGS (TLB HIT):         0 
cpu0_L1I PAGE CROSSINGS (TLB MISS):         0 
cpu0_L1I AVERAGE MISS LATENCY: 21.3141 cycles
cpu0_ITLB TOTAL       ACCESS:   30363003  HIT:   28406215  MISS:    1956788  iACCESS:   30363003  iHIT:   28406215  iMISS:    1956788  dACCESS:          0  dHIT:          0  dMISS:          0  itACCESS:          0  itHIT:          0  itMISS:          0  dtACCESS:          0  dtHIT:          0  dtMISS:          0
cpu0_ITLB LOAD         ACCESS:   30363003  HIT:   28406215  MISS:    1956788  iACCESS:   30363003  iHIT:   28406215  iMISS:    1956788  dACCESS:          0  dHIT:          0  dMISS:          0  itACCESS:          0  itHIT:          0  itMISS:          0  dtACCESS:          0  dtHIT:          0  dtMISS:          0
cpu0_ITLB RFO          ACCESS:          0  HIT:          0  MISS:          0  iACCESS:          0  iHIT:          0  iMISS:          0  dACCESS:          0  dHIT:          0  dMISS:          0  itACCESS:          0  itHIT:          0  itMISS:          0  dtACCESS:          0  dtHIT:          0  dtMISS:          0
cpu0_ITLB PREFETCH     ACCESS:          0  HIT:          0  MISS:          0  iACCESS:          0  iHIT:          0  iMISS:          0  dACCESS:          0  dHIT:          0  dMISS:          0  itACCESS:          0  itHIT:          0  itMISS:          0  dtACCESS:          0  dtHIT:          0  dtMISS:          0
cpu0_ITLB WRITE        ACCESS:          0  HIT:          0  MISS:          0  iACCESS:          0  iHIT:          0  iMISS:          0  dACCESS:          0  dHIT:          0  dMISS:          0  itACCESS:          0  itHIT:          0  itMISS:          0  dtACCESS:          0  dtHIT:          0  dtMISS:          0
cpu0_ITLB TRANSLATION  ACCESS:          0  HIT:          0  MISS:          0  iACCESS:          0  iHIT:          0  iMISS:          0  dACCESS:          0  dHIT:          0  dMISS:          0  itACCESS:          0  itHIT:          0  itMISS:          0  dtACCESS:          0  dtHIT:          0  dtMISS:          0
cpu0_ITLB PREFETCH  REQUESTED:          0  ISSUED:          0  CROSSED:          0  USEFUL:     340785  USELESS:      66648
cpu0_ITLB AVERAGE iMISS LATENCY: 4.48921 cycles
cpu0_ITLB AVERAGE dMISS LATENCY: 0 cycles
cpu0_ITLB AVERAGE itMISS LATENCY: 0 cycles
cpu0_ITLB AVERAGE dtMISS LATENCY: 0 cycles
cpu0_ITLB PAGE CROSSINGS (TLB HIT):         0 
cpu0_ITLB PAGE CROSSINGS (TLB MISS):         0 
cpu0_ITLB AVERAGE MISS LATENCY: 4.48921 cycles
cpu0_DTLB TOTAL       ACCESS:   28342561  HIT:   26487208  MISS:    1855353  iACCESS:          0  iHIT:          0  iMISS:          0  dACCESS:   28342561  dHIT:   26487208  dMISS:    1855353  itACCESS:          0  itHIT:          0  itMISS:          0  dtACCESS:          0  dtHIT:          0  dtMISS:          0
cpu0_DTLB LOAD         ACCESS:   28342561  HIT:   26487208  MISS:    1855353  iACCESS:          0  iHIT:          0  iMISS:          0  dACCESS:   28342561  dHIT:   26487208  dMISS:    1855353  itACCESS:          0  itHIT:          0  itMISS:          0  dtACCESS:          0  dtHIT:          0  dtMISS:          0
cpu0_DTLB RFO          ACCESS:          0  HIT:          0  MISS:          0  iACCESS:          0  iHIT:          0  iMISS:          0  dACCESS:          0  dHIT:          0  dMISS:          0  itACCESS:          0  itHIT:          0  itMISS:          0  dtACCESS:          0  dtHIT:          0  dtMISS:          0
cpu0_DTLB PREFETCH     ACCESS:          0  HIT:          0  MISS:          0  iACCESS:          0  iHIT:          0  iMISS:          0  dACCESS:          0  dHIT:          0  dMISS:          0  itACCESS:          0  itHIT:          0  itMISS:          0  dtACCESS:          0  dtHIT:          0  dtMISS:          0
cpu0_DTLB WRITE        ACCESS:          0  HIT:          0  MISS:          0  iACCESS:          0  iHIT:          0  iMISS:          0  dACCESS:          0  dHIT:          0  dMISS:          0  itACCESS:          0  itHIT:          0  itMISS:          0  dtACCESS:          0  dtHIT:          0  dtMISS:          0
cpu0_DTLB TRANSLATION  ACCESS:          0  HIT:          0  MISS:          0  iACCESS:          0  iHIT:          0  iMISS:          0  dACCESS:          0  dHIT:          0  dMISS:          0  itACCESS:          0  itHIT:          0  itMISS:          0  dtACCESS:          0  dtHIT:          0  dtMISS:          0
cpu0_DTLB PREFETCH  REQUESTED:          0  ISSUED:          0  CROSSED:          0  USEFUL:          0  USELESS:          0
cpu0_DTLB AVERAGE iMISS LATENCY: 0 cycles
cpu0_DTLB AVERAGE dMISS LATENCY: 22.0106 cycles
cpu0_DTLB AVERAGE itMISS LATENCY: 0 cycles
cpu0_DTLB AVERAGE dtMISS LATENCY: 0 cycles
cpu0_DTLB PAGE CROSSINGS (TLB HIT):         0 
cpu0_DTLB PAGE CROSSINGS (TLB MISS):         0 
cpu0_DTLB AVERAGE MISS LATENCY: 22.0106 cycles
cpu0_STLB TOTAL       ACCESS:    1550335  HIT:    1314055  MISS:     236280  iACCESS:     407435  iHIT:     369691  iMISS:      37744  dACCESS:    1142900  dHIT:     944364  dMISS:     198536  itACCESS:          0  itHIT:          0  itMISS:          0  dtACCESS:          0  dtHIT:          0  dtMISS:          0
cpu0_STLB LOAD         ACCESS:    1550335  HIT:    1314055  MISS:     236280  iACCESS:     407435  iHIT:     369691  iMISS:      37744  dACCESS:    1142900  dHIT:     944364  dMISS:     198536  itACCESS:          0  itHIT:          0  itMISS:          0  dtACCESS:          0  dtHIT:          0  dtMISS:          0
cpu0_STLB RFO          ACCESS:          0  HIT:          0  MISS:          0  iACCESS:          0  iHIT:          0  iMISS:          0  dACCESS:          0  dHIT:          0  dMISS:          0  itACCESS:          0  itHIT:          0  itMISS:          0  dtACCESS:          0  dtHIT:          0  dtMISS:          0
cpu0_STLB PREFETCH     ACCESS:          0  HIT:          0  MISS:          0  iACCESS:          0  iHIT:          0  iMISS:          0  dACCESS:          0  dHIT:          0  dMISS:          0  itACCESS:          0  itHIT:          0  itMISS:          0  dtACCESS:          0  dtHIT:          0  dtMISS:          0
cpu0_STLB WRITE        ACCESS:          0  HIT:          0  MISS:          0  iACCESS:          0  iHIT:          0  iMISS:          0  dACCESS:          0  dHIT:          0  dMISS:          0  itACCESS:          0  itHIT:          0  itMISS:          0  dtACCESS:          0  dtHIT:          0  dtMISS:          0
cpu0_STLB TRANSLATION  ACCESS:          0  HIT:          0  MISS:          0  iACCESS:          0  iHIT:          0  iMISS:          0  dACCESS:          0  dHIT:          0  dMISS:          0  itACCESS:          0  itHIT:          0  itMISS:          0  dtACCESS:          0  dtHIT:          0  dtMISS:          0
cpu0_STLB PREFETCH  REQUESTED:          0  ISSUED:          0  CROSSED:          0  USEFUL:          0  USELESS:          0
cpu0_STLB AVERAGE iMISS LATENCY: 23.6809 cycles
cpu0_STLB AVERAGE dMISS LATENCY: 133.916 cycles
cpu0_STLB AVERAGE itMISS LATENCY: 0 cycles
cpu0_STLB AVERAGE dtMISS LATENCY: 0 cycles
cpu0_STLB PAGE CROSSINGS (TLB HIT):         0 
cpu0_STLB PAGE CROSSINGS (TLB MISS):         0 
cpu0_STLB AVERAGE MISS LATENCY: 157.596 cycles
cpu0_L1D TOTAL       ACCESS:   43786301  HIT:   39021055  MISS:    4765246  iACCESS:          0  iHIT:          0  iMISS:          0  dACCESS:   43468058  dHIT:   39000895  dMISS:    4467163  itACCESS:      43138  itHIT:       3833  itMISS:      39305  dtACCESS:     275105  dtHIT:      16327  dtMISS:     258778
cpu0_L1D LOAD         ACCESS:   19904186  HIT:   17875308  MISS:    2028878  iACCESS:          0  iHIT:          0  iMISS:          0  dACCESS:   19904186  dHIT:   17875308  dMISS:    2028878  itACCESS:          0  itHIT:          0  itMISS:          0  dtACCESS:          0  dtHIT:          0  dtMISS:          0
cpu0_L1D RFO          ACCESS:          0  HIT:          0  MISS:          0  iACCESS:          0  iHIT:          0  iMISS:          0  dACCESS:          0  dHIT:          0  dMISS:          0  itACCESS:          0  itHIT:          0  itMISS:          0  dtACCESS:          0  dtHIT:          0  dtMISS:          0
cpu0_L1D PREFETCH     ACCESS:   13352701  HIT:   11400929  MISS:    1951772  iACCESS:          0  iHIT:          0  iMISS:          0  dACCESS:   13352701  dHIT:   11400929  dMISS:    1951772  itACCESS:          0  itHIT:          0  itMISS:          0  dtACCESS:          0  dtHIT:          0  dtMISS:          0
cpu0_L1D WRITE        ACCESS:   10211171  HIT:    9724658  MISS:     486513  iACCESS:          0  iHIT:          0  iMISS:          0  dACCESS:   10211171  dHIT:    9724658  dMISS:     486513  itACCESS:          0  itHIT:          0  itMISS:          0  dtACCESS:          0  dtHIT:          0  dtMISS:          0
cpu0_L1D TRANSLATION  ACCESS:     318243  HIT:      20160  MISS:     298083  iACCESS:          0  iHIT:          0  iMISS:          0  dACCESS:          0  dHIT:          0  dMISS:          0  itACCESS:      43138  itHIT:       3833  itMISS:      39305  dtACCESS:     275105  dtHIT:      16327  dtMISS:     258778
cpu0_L1D PREFETCH  REQUESTED:   19904186  ISSUED:   17676380  CROSSED:          0  USEFUL:     316581  USELESS:     739623
cpu0_L1D AVERAGE iMISS LATENCY: 0 cycles
cpu0_L1D AVERAGE dMISS LATENCY: 40.8394 cycles
cpu0_L1D AVERAGE itMISS LATENCY: 1.0941 cycles
cpu0_L1D AVERAGE dtMISS LATENCY: 6.09777 cycles
cpu0_L1D PAGE CROSSINGS (TLB HIT):         0 
cpu0_L1D PAGE CROSSINGS (TLB MISS):         0 
cpu0_L1D AVERAGE MISS LATENCY: 48.0312 cycles
cpu0_L2C TOTAL       ACCESS:    7545083  HIT:    2731319  MISS:    4813764  iACCESS:    3481382  iHIT:    1524251  iMISS:    1957131  dACCESS:    3774225  dHIT:    1111317  dMISS:    2662908  itACCESS:      38785  itHIT:       8608  itMISS:      30177  dtACCESS:     250691  dtHIT:      87143  dtMISS:     163548
cpu0_L2C LOAD         ACCESS:    1783123  HIT:     599652  MISS:    1183471  iACCESS:     784065  iHIT:     333785  iMISS:     450280  dACCESS:     999058  dHIT:     265867  dMISS:     733191  itACCESS:          0  itHIT:          0  itMISS:          0  dtACCESS:          0  dtHIT:          0  dtMISS:          0
cpu0_L2C RFO          ACCESS:     169610  HIT:      46787  MISS:     122823  iACCESS:          0  iHIT:          0  iMISS:          0  dACCESS:     169610  dHIT:      46787  dMISS:     122823  itACCESS:          0  itHIT:          0  itMISS:          0  dtACCESS:          0  dtHIT:          0  dtMISS:          0
cpu0_L2C PREFETCH     ACCESS:    5019926  HIT:    1808925  MISS:    3211001  iACCESS:    2697317  iHIT:    1190466  iMISS:    1506851  dACCESS:    2322609  dHIT:     618459  dMISS:    1704150  itACCESS:          0  itHIT:          0  itMISS:          0  dtACCESS:          0  dtHIT:          0  dtMISS:          0
cpu0_L2C WRITE        ACCESS:     282948  HIT:     180204  MISS:     102744  iACCESS:          0  iHIT:          0  iMISS:          0  dACCESS:     282948  dHIT:     180204  dMISS:     102744  itACCESS:          0  itHIT:          0  itMISS:          0  dtACCESS:          0  dtHIT:          0  dtMISS:          0
cpu0_L2C TRANSLATION  ACCESS:     289476  HIT:      95751  MISS:     193725  iACCESS:          0  iHIT:          0  iMISS:          0  dACCESS:          0  dHIT:          0  dMISS:          0  itACCESS:      38785  itHIT:       8608  itMISS:      30177  dtACCESS:     250691  dtHIT:      87143  dtMISS:     163548
cpu0_L2C PREFETCH  REQUESTED:    1519943  ISSUED:    1519943  CROSSED:          0  USEFUL:     394119  USELESS:     376695
cpu0_L2C AVERAGE iMISS LATENCY: 30.1409 cycles
cpu0_L2C AVERAGE dMISS LATENCY: 51.697 cycles
cpu0_L2C AVERAGE itMISS LATENCY: 1.00405 cycles
cpu0_L2C AVERAGE dtMISS LATENCY: 5.53112 cycles
cpu0_L2C PAGE CROSSINGS (TLB HIT):         0 
cpu0_L2C PAGE CROSSINGS (TLB MISS):         0 
cpu0_L2C AVERAGE MISS LATENCY: 88.373 cycles
LLC TOTAL       ACCESS:    4714206  HIT:    2632176  MISS:    2082030  iACCESS:    1874581  iHIT:    1147502  iMISS:     727079  dACCESS:    2645900  dHIT:    1440307  dMISS:    1205593  itACCESS:      30177  itHIT:       6017  itMISS:      24160  dtACCESS:     163548  dtHIT:      38350  dtMISS:     125198
LLC LOAD         ACCESS:    1176535  HIT:     707922  MISS:     468613  iACCESS:     448922  iHIT:     299372  iMISS:     149550  dACCESS:     727613  dHIT:     408550  dMISS:     319063  itACCESS:          0  itHIT:          0  itMISS:          0  dtACCESS:          0  dtHIT:          0  dtMISS:          0
LLC RFO          ACCESS:     122814  HIT:      56298  MISS:      66516  iACCESS:          0  iHIT:          0  iMISS:          0  dACCESS:     122814  dHIT:      56298  dMISS:      66516  itACCESS:          0  itHIT:          0  itMISS:          0  dtACCESS:          0  dtHIT:          0  dtMISS:          0
LLC PREFETCH     ACCESS:    3021953  HIT:    1628589  MISS:    1393364  iACCESS:    1425659  iHIT:     848130  iMISS:     577529  dACCESS:    1596294  dHIT:     780459  dMISS:     815835  itACCESS:          0  itHIT:          0  itMISS:          0  dtACCESS:          0  dtHIT:          0  dtMISS:          0
LLC WRITE        ACCESS:     199179  HIT:     195000  MISS:       4179  iACCESS:          0  iHIT:          0  iMISS:          0  dACCESS:     199179  dHIT:     195000  dMISS:       4179  itACCESS:          0  itHIT:          0  itMISS:          0  dtACCESS:          0  dtHIT:          0  dtMISS:          0
LLC TRANSLATION  ACCESS:     193725  HIT:      44367  MISS:     149358  iACCESS:          0  iHIT:          0  iMISS:          0  dACCESS:          0  dHIT:          0  dMISS:          0  itACCESS:      30177  itHIT:       6017  itMISS:      24160  dtACCESS:     163548  dtHIT:      38350  dtMISS:     125198
LLC PREFETCH  REQUESTED:          0  ISSUED:          0  CROSSED:          0  USEFUL:          0  USELESS:          0
LLC AVERAGE iMISS LATENCY: 52.1674 cycles
LLC AVERAGE dMISS LATENCY: 97.7879 cycles
LLC AVERAGE itMISS LATENCY: 2.03548 cycles
LLC AVERAGE dtMISS LATENCY: 11.2422 cycles
LLC PAGE CROSSINGS (TLB HIT):         0 
LLC PAGE CROSSINGS (TLB MISS):         0 
LLC AVERAGE MISS LATENCY: 163.233 cycles

PageTableWalker TOTAL       ACCESS:     109260  
PageTableWalker AVERAGE LATENCY: 4.48029 cycles
PageTableWalker TOTAL LATENCY: 489516 cycles

DRAM Statistics
Channel 0
 RQ ROW_BUFFER_HIT:     575478
  ROW_BUFFER_MISS:    1479942
 AVG DBUS CONGESTED CYCLE:    3.64857
 WQ ROW_BUFFER_HIT:      44534
  ROW_BUFFER_MISS:      35341  FULL:          0

