last_page:0x200000000000000
VMEM_RES_CAP:0x100000
PAGE_SIZE:4096
LOG2_PAGE_SIZE:12
LOG2_PAGE_TABLE_SIZE:9
page_table_levels:5
WARNING: physical memory size is smaller than virtual memory size
FDiP enabled with aggresivity 16

*** ChampSim Multicore Out-of-Order Simulator ***

Warmup Instructions: 50000000
Simulation Instructions: 100000000
Number of CPUs: 1
Small page size: 4096
Large page size: 2097152

CPU 0 Bimodal branch predictor
Basic BTB sets: 1024 ways: 8 indirect buffer size: 4096 RAS size: 64
Instruction page size distrubution: 0
Loading instruction page size distribution from /home/bsc/bsc018186/scratch/itp_asplos25_AE/dump/srv12_ap.pdst
Data page size distrubution: 0
Loading data page size distribution from /home/bsc/bsc018186/scratch/itp_asplos25_AE/dump/srv12_ap.pdst
cpu0_L2C IP-based stride prefetcher
cpu0_L2C is using xPTP/LRU
	TLB_LOWER_STRESS_THRESHOLD:1
	TLB_UPPER_STRESS_THRESHOLD:9
	MIN_EVICTION_POSITION:4
cpu0_L1D next line prefetcher
cpu0_STLB using iTP with max lru@8
cpu0_STLB using iTP with instr@0 and data@2
Init sat counter with 3 bits (max:50).
cpu0_L1I next line prefetcher
Off-chip DRAM Size: 4 GiB Channels: 1 Width: 64-bit Data Rate: 3200 MT/s
Heartbeat CPU 0 instructions: 10000000 cycles: 2500129 heartbeat IPC: 3.9998 cumulative IPC: 3.9998 (Simulation time: 0 hr 0 min 39 sec) 
Heartbeat CPU 0 instructions: 20000003 cycles: 5001938 heartbeat IPC: 3.99711 cumulative IPC: 3.99846 (Simulation time: 0 hr 1 min 21 sec) 
Heartbeat CPU 0 instructions: 30000002 cycles: 7502034 heartbeat IPC: 3.99985 cumulative IPC: 3.99892 (Simulation time: 0 hr 2 min 6 sec) 
Heartbeat CPU 0 instructions: 40000002 cycles: 10002086 heartbeat IPC: 3.99992 cumulative IPC: 3.99917 (Simulation time: 0 hr 2 min 51 sec) 
Heartbeat CPU 0 instructions: 50000002 cycles: 12504100 heartbeat IPC: 3.99679 cumulative IPC: 3.99869 (Simulation time: 0 hr 3 min 35 sec) 
Warmup finished CPU 0 instructions: 50000002 cycles: 12504101 cumulative IPC: 3.99869 (Simulation time: 0 hr 3 min 35 sec) 

Warmup complete CPU 0 instructions: 50000002 cycles: 12504101 (Simulation time: 0 hr 3 min 35 sec) 

Heartbeat CPU 0 instructions: 60000002 cycles: 31459193 heartbeat IPC: 0.527563 cumulative IPC: 0.527563 (Simulation time: 0 hr 4 min 49 sec) 
Heartbeat CPU 0 instructions: 70000001 cycles: 51457476 heartbeat IPC: 0.500043 cumulative IPC: 0.513435 (Simulation time: 0 hr 6 min 7 sec) 
Heartbeat CPU 0 instructions: 80000000 cycles: 70604808 heartbeat IPC: 0.522266 cumulative IPC: 0.516345 (Simulation time: 0 hr 7 min 24 sec) 
Heartbeat CPU 0 instructions: 90000002 cycles: 89780125 heartbeat IPC: 0.521504 cumulative IPC: 0.517625 (Simulation time: 0 hr 8 min 38 sec) 
Heartbeat CPU 0 instructions: 100000000 cycles: 108242878 heartbeat IPC: 0.541631 cumulative IPC: 0.522255 (Simulation time: 0 hr 9 min 49 sec) 
*** Reached end of trace: /gpfs/projects/bsc18/MN4/bsc18/romol/ChampSim/traces/qualcomm_srv/srv12_ap.champsimtrace.xz
Heartbeat CPU 0 instructions: 110000000 cycles: 127200291 heartbeat IPC: 0.527499 cumulative IPC: 0.523122 (Simulation time: 0 hr 10 min 59 sec) 
Heartbeat CPU 0 instructions: 120000001 cycles: 144981240 heartbeat IPC: 0.5624 cumulative IPC: 0.528394 (Simulation time: 0 hr 12 min 10 sec) 
Heartbeat CPU 0 instructions: 130000004 cycles: 164413022 heartbeat IPC: 0.514621 cumulative IPC: 0.526632 (Simulation time: 0 hr 13 min 20 sec) 
Heartbeat CPU 0 instructions: 140000000 cycles: 184343735 heartbeat IPC: 0.501738 cumulative IPC: 0.523745 (Simulation time: 0 hr 14 min 33 sec) 
Heartbeat CPU 0 instructions: 150000000 cycles: 203197981 heartbeat IPC: 0.530385 cumulative IPC: 0.524401 (Simulation time: 0 hr 15 min 42 sec) 
Simulation finished CPU 0 instructions: 100000001 cycles: 190693882 cumulative IPC: 0.524401 (Simulation time: 0 hr 15 min 42 sec) 

Simulation complete CPU 0 instructions: 100000001 cycles: 190693882 (Simulation time: 0 hr 15 min 42 sec) 


ChampSim completed all CPUs

Saving instructions large page distribution to /home/bsc/bsc018186/scratch/itp_asplos25_AE/dump/srv12_ap.pdst...
Saving data large page distribution to /home/bsc/bsc018186/scratch/itp_asplos25_AE/dump/srv12_ap.pdst...
=== Simulation ===
CPU 0 runs /gpfs/projects/bsc18/MN4/bsc18/romol/ChampSim/traces/qualcomm_srv/srv12_ap.champsimtrace.xz

Region of Interest Statistics

CPU 0 cumulative IPC: 0.524401 instructions: 100000001 cycles: 190693882
CPU 0 Branch Prediction Accuracy: 79.1504% MPKI: 37.9192 Average ROB Occupancy at Mispredict: 9.93058
Branch type MPKI
BRANCH_DIRECT_JUMP: 1.46915
BRANCH_INDIRECT: 18.9595
BRANCH_CONDITIONAL: 12.0596
BRANCH_DIRECT_CALL: 2.72086
BRANCH_INDIRECT_CALL: 0.80784
BRANCH_RETURN: 1.90238

Instructions large pages: 0
Instructions small pages: 1649
Large page distribution for instructions: 0%

Data large pages: 0
Data small pages: 6133
Large page distribution for data: 0%

cpu0_L1I TOTAL       ACCESS:   36028229  HIT:   27737255  MISS:    8290974  iACCESS:   36028229  iHIT:   27737255  iMISS:    8290974  dACCESS:          0  dHIT:          0  dMISS:          0  itACCESS:          0  itHIT:          0  itMISS:          0  dtACCESS:          0  dtHIT:          0  dtMISS:          0
cpu0_L1I LOAD         ACCESS:   10342866  HIT:    8064633  MISS:    2278233  iACCESS:   10342866  iHIT:    8064633  iMISS:    2278233  dACCESS:          0  dHIT:          0  dMISS:          0  itACCESS:          0  itHIT:          0  itMISS:          0  dtACCESS:          0  dtHIT:          0  dtMISS:          0
cpu0_L1I RFO          ACCESS:          0  HIT:          0  MISS:          0  iACCESS:          0  iHIT:          0  iMISS:          0  dACCESS:          0  dHIT:          0  dMISS:          0  itACCESS:          0  itHIT:          0  itMISS:          0  dtACCESS:          0  dtHIT:          0  dtMISS:          0
cpu0_L1I PREFETCH     ACCESS:   25685363  HIT:   19672622  MISS:    6012741  iACCESS:   25685363  iHIT:   19672622  iMISS:    6012741  dACCESS:          0  dHIT:          0  dMISS:          0  itACCESS:          0  itHIT:          0  itMISS:          0  dtACCESS:          0  dtHIT:          0  dtMISS:          0
cpu0_L1I WRITE        ACCESS:          0  HIT:          0  MISS:          0  iACCESS:          0  iHIT:          0  iMISS:          0  dACCESS:          0  dHIT:          0  dMISS:          0  itACCESS:          0  itHIT:          0  itMISS:          0  dtACCESS:          0  dtHIT:          0  dtMISS:          0
cpu0_L1I TRANSLATION  ACCESS:          0  HIT:          0  MISS:          0  iACCESS:          0  iHIT:          0  iMISS:          0  dACCESS:          0  dHIT:          0  dMISS:          0  itACCESS:          0  itHIT:          0  itMISS:          0  dtACCESS:          0  dtHIT:          0  dtMISS:          0
cpu0_L1I PREFETCH  REQUESTED:   28027223  ISSUED:   28027016  CROSSED:          0  USEFUL:    2042599  USELESS:     693032
cpu0_L1I AVERAGE iMISS LATENCY: 17.972 cycles
cpu0_L1I AVERAGE dMISS LATENCY: 0 cycles
cpu0_L1I AVERAGE itMISS LATENCY: 0 cycles
cpu0_L1I AVERAGE dtMISS LATENCY: 0 cycles
cpu0_L1I PAGE CROSSINGS (TLB HIT):         0 
cpu0_L1I PAGE CROSSINGS (TLB MISS):         0 
cpu0_L1I AVERAGE MISS LATENCY: 17.972 cycles
cpu0_ITLB TOTAL       ACCESS:   30382297  HIT:   28433660  MISS:    1948637  iACCESS:   30382297  iHIT:   28433660  iMISS:    1948637  dACCESS:          0  dHIT:          0  dMISS:          0  itACCESS:          0  itHIT:          0  itMISS:          0  dtACCESS:          0  dtHIT:          0  dtMISS:          0
cpu0_ITLB LOAD         ACCESS:   30382297  HIT:   28433660  MISS:    1948637  iACCESS:   30382297  iHIT:   28433660  iMISS:    1948637  dACCESS:          0  dHIT:          0  dMISS:          0  itACCESS:          0  itHIT:          0  itMISS:          0  dtACCESS:          0  dtHIT:          0  dtMISS:          0
cpu0_ITLB RFO          ACCESS:          0  HIT:          0  MISS:          0  iACCESS:          0  iHIT:          0  iMISS:          0  dACCESS:          0  dHIT:          0  dMISS:          0  itACCESS:          0  itHIT:          0  itMISS:          0  dtACCESS:          0  dtHIT:          0  dtMISS:          0
cpu0_ITLB PREFETCH     ACCESS:          0  HIT:          0  MISS:          0  iACCESS:          0  iHIT:          0  iMISS:          0  dACCESS:          0  dHIT:          0  dMISS:          0  itACCESS:          0  itHIT:          0  itMISS:          0  dtACCESS:          0  dtHIT:          0  dtMISS:          0
cpu0_ITLB WRITE        ACCESS:          0  HIT:          0  MISS:          0  iACCESS:          0  iHIT:          0  iMISS:          0  dACCESS:          0  dHIT:          0  dMISS:          0  itACCESS:          0  itHIT:          0  itMISS:          0  dtACCESS:          0  dtHIT:          0  dtMISS:          0
cpu0_ITLB TRANSLATION  ACCESS:          0  HIT:          0  MISS:          0  iACCESS:          0  iHIT:          0  iMISS:          0  dACCESS:          0  dHIT:          0  dMISS:          0  itACCESS:          0  itHIT:          0  itMISS:          0  dtACCESS:          0  dtHIT:          0  dtMISS:          0
cpu0_ITLB PREFETCH  REQUESTED:          0  ISSUED:          0  CROSSED:          0  USEFUL:     341300  USELESS:      66122
cpu0_ITLB AVERAGE iMISS LATENCY: 4.01243 cycles
cpu0_ITLB AVERAGE dMISS LATENCY: 0 cycles
cpu0_ITLB AVERAGE itMISS LATENCY: 0 cycles
cpu0_ITLB AVERAGE dtMISS LATENCY: 0 cycles
cpu0_ITLB PAGE CROSSINGS (TLB HIT):         0 
cpu0_ITLB PAGE CROSSINGS (TLB MISS):         0 
cpu0_ITLB AVERAGE MISS LATENCY: 4.01243 cycles
cpu0_DTLB TOTAL       ACCESS:   28342135  HIT:   26499749  MISS:    1842386  iACCESS:          0  iHIT:          0  iMISS:          0  dACCESS:   28342135  dHIT:   26499749  dMISS:    1842386  itACCESS:          0  itHIT:          0  itMISS:          0  dtACCESS:          0  dtHIT:          0  dtMISS:          0
cpu0_DTLB LOAD         ACCESS:   28342135  HIT:   26499749  MISS:    1842386  iACCESS:          0  iHIT:          0  iMISS:          0  dACCESS:   28342135  dHIT:   26499749  dMISS:    1842386  itACCESS:          0  itHIT:          0  itMISS:          0  dtACCESS:          0  dtHIT:          0  dtMISS:          0
cpu0_DTLB RFO          ACCESS:          0  HIT:          0  MISS:          0  iACCESS:          0  iHIT:          0  iMISS:          0  dACCESS:          0  dHIT:          0  dMISS:          0  itACCESS:          0  itHIT:          0  itMISS:          0  dtACCESS:          0  dtHIT:          0  dtMISS:          0
cpu0_DTLB PREFETCH     ACCESS:          0  HIT:          0  MISS:          0  iACCESS:          0  iHIT:          0  iMISS:          0  dACCESS:          0  dHIT:          0  dMISS:          0  itACCESS:          0  itHIT:          0  itMISS:          0  dtACCESS:          0  dtHIT:          0  dtMISS:          0
cpu0_DTLB WRITE        ACCESS:          0  HIT:          0  MISS:          0  iACCESS:          0  iHIT:          0  iMISS:          0  dACCESS:          0  dHIT:          0  dMISS:          0  itACCESS:          0  itHIT:          0  itMISS:          0  dtACCESS:          0  dtHIT:          0  dtMISS:          0
cpu0_DTLB TRANSLATION  ACCESS:          0  HIT:          0  MISS:          0  iACCESS:          0  iHIT:          0  iMISS:          0  dACCESS:          0  dHIT:          0  dMISS:          0  itACCESS:          0  itHIT:          0  itMISS:          0  dtACCESS:          0  dtHIT:          0  dtMISS:          0
cpu0_DTLB PREFETCH  REQUESTED:          0  ISSUED:          0  CROSSED:          0  USEFUL:          0  USELESS:          0
cpu0_DTLB AVERAGE iMISS LATENCY: 0 cycles
cpu0_DTLB AVERAGE dMISS LATENCY: 15.107 cycles
cpu0_DTLB AVERAGE itMISS LATENCY: 0 cycles
cpu0_DTLB AVERAGE dtMISS LATENCY: 0 cycles
cpu0_DTLB PAGE CROSSINGS (TLB HIT):         0 
cpu0_DTLB PAGE CROSSINGS (TLB MISS):         0 
cpu0_DTLB AVERAGE MISS LATENCY: 15.107 cycles
cpu0_STLB TOTAL       ACCESS:    1550444  HIT:    1314069  MISS:     236375  iACCESS:     407427  iHIT:     369607  iMISS:      37820  dACCESS:    1143017  dHIT:     944462  dMISS:     198555  itACCESS:          0  itHIT:          0  itMISS:          0  dtACCESS:          0  dtHIT:          0  dtMISS:          0
cpu0_STLB LOAD         ACCESS:    1550444  HIT:    1314069  MISS:     236375  iACCESS:     407427  iHIT:     369607  iMISS:      37820  dACCESS:    1143017  dHIT:     944462  dMISS:     198555  itACCESS:          0  itHIT:          0  itMISS:          0  dtACCESS:          0  dtHIT:          0  dtMISS:          0
cpu0_STLB RFO          ACCESS:          0  HIT:          0  MISS:          0  iACCESS:          0  iHIT:          0  iMISS:          0  dACCESS:          0  dHIT:          0  dMISS:          0  itACCESS:          0  itHIT:          0  itMISS:          0  dtACCESS:          0  dtHIT:          0  dtMISS:          0
cpu0_STLB PREFETCH     ACCESS:          0  HIT:          0  MISS:          0  iACCESS:          0  iHIT:          0  iMISS:          0  dACCESS:          0  dHIT:          0  dMISS:          0  itACCESS:          0  itHIT:          0  itMISS:          0  dtACCESS:          0  dtHIT:          0  dtMISS:          0
cpu0_STLB WRITE        ACCESS:          0  HIT:          0  MISS:          0  iACCESS:          0  iHIT:          0  iMISS:          0  dACCESS:          0  dHIT:          0  dMISS:          0  itACCESS:          0  itHIT:          0  itMISS:          0  dtACCESS:          0  dtHIT:          0  dtMISS:          0
cpu0_STLB TRANSLATION  ACCESS:          0  HIT:          0  MISS:          0  iACCESS:          0  iHIT:          0  iMISS:          0  dACCESS:          0  dHIT:          0  dMISS:          0  itACCESS:          0  itHIT:          0  itMISS:          0  dtACCESS:          0  dtHIT:          0  dtMISS:          0
cpu0_STLB PREFETCH  REQUESTED:          0  ISSUED:          0  CROSSED:          0  USEFUL:          0  USELESS:          0
cpu0_STLB AVERAGE iMISS LATENCY: 19.5885 cycles
cpu0_STLB AVERAGE dMISS LATENCY: 78.8705 cycles
cpu0_STLB AVERAGE itMISS LATENCY: 0 cycles
cpu0_STLB AVERAGE dtMISS LATENCY: 0 cycles
cpu0_STLB PAGE CROSSINGS (TLB HIT):         0 
cpu0_STLB PAGE CROSSINGS (TLB MISS):         0 
cpu0_STLB AVERAGE MISS LATENCY: 98.4589 cycles
cpu0_L1D TOTAL       ACCESS:   43531175  HIT:   39032081  MISS:    4499094  iACCESS:          0  iHIT:          0  iMISS:          0  dACCESS:   43215031  dHIT:   39011851  dMISS:    4203180  itACCESS:      43353  itHIT:       3910  itMISS:      39443  dtACCESS:     272791  dtHIT:      16320  dtMISS:     256471
cpu0_L1D LOAD         ACCESS:   19780928  HIT:   17879991  MISS:    1900937  iACCESS:          0  iHIT:          0  iMISS:          0  dACCESS:   19780928  dHIT:   17879991  dMISS:    1900937  itACCESS:          0  itHIT:          0  itMISS:          0  dtACCESS:          0  dtHIT:          0  dtMISS:          0
cpu0_L1D RFO          ACCESS:          0  HIT:          0  MISS:          0  iACCESS:          0  iHIT:          0  iMISS:          0  dACCESS:          0  dHIT:          0  dMISS:          0  itACCESS:          0  itHIT:          0  itMISS:          0  dtACCESS:          0  dtHIT:          0  dtMISS:          0
cpu0_L1D PREFETCH     ACCESS:   13221656  HIT:   11409199  MISS:    1812457  iACCESS:          0  iHIT:          0  iMISS:          0  dACCESS:   13221656  dHIT:   11409199  dMISS:    1812457  itACCESS:          0  itHIT:          0  itMISS:          0  dtACCESS:          0  dtHIT:          0  dtMISS:          0
cpu0_L1D WRITE        ACCESS:   10212447  HIT:    9722661  MISS:     489786  iACCESS:          0  iHIT:          0  iMISS:          0  dACCESS:   10212447  dHIT:    9722661  dMISS:     489786  itACCESS:          0  itHIT:          0  itMISS:          0  dtACCESS:          0  dtHIT:          0  dtMISS:          0
cpu0_L1D TRANSLATION  ACCESS:     316144  HIT:      20230  MISS:     295914  iACCESS:          0  iHIT:          0  iMISS:          0  dACCESS:          0  dHIT:          0  dMISS:          0  itACCESS:      43353  itHIT:       3910  itMISS:      39443  dtACCESS:     272791  dtHIT:      16320  dtMISS:     256471
cpu0_L1D PREFETCH  REQUESTED:   19780928  ISSUED:   17691407  CROSSED:          0  USEFUL:     316928  USELESS:     739669
cpu0_L1D AVERAGE iMISS LATENCY: 0 cycles
cpu0_L1D AVERAGE dMISS LATENCY: 37.1337 cycles
cpu0_L1D AVERAGE itMISS LATENCY: 0.944491 cycles
cpu0_L1D AVERAGE dtMISS LATENCY: 3.57602 cycles
cpu0_L1D PAGE CROSSINGS (TLB HIT):         0 
cpu0_L1D PAGE CROSSINGS (TLB MISS):         0 
cpu0_L1D AVERAGE MISS LATENCY: 41.6542 cycles
cpu0_L2C TOTAL       ACCESS:    7543452  HIT:    2458476  MISS:    5084976  iACCESS:    3481813  iHIT:    1356544  iMISS:    2125269  dACCESS:    3772119  dHIT:     926954  dMISS:    2845165  itACCESS:      38793  itHIT:      12201  itMISS:      26592  dtACCESS:     250727  dtHIT:     162777  dtMISS:      87950
cpu0_L2C LOAD         ACCESS:    1780470  HIT:     514772  MISS:    1265698  iACCESS:     781559  iHIT:     283734  iMISS:     497825  dACCESS:     998911  dHIT:     231038  dMISS:     767873  itACCESS:          0  itHIT:          0  itMISS:          0  dtACCESS:          0  dtHIT:          0  dtMISS:          0
cpu0_L2C RFO          ACCESS:     169507  HIT:      31885  MISS:     137622  iACCESS:          0  iHIT:          0  iMISS:          0  dACCESS:     169507  dHIT:      31885  dMISS:     137622  itACCESS:          0  itHIT:          0  itMISS:          0  dtACCESS:          0  dtHIT:          0  dtMISS:          0
cpu0_L2C PREFETCH     ACCESS:    5021402  HIT:    1627317  MISS:    3394085  iACCESS:    2700254  iHIT:    1072810  iMISS:    1627444  dACCESS:    2321148  dHIT:     554507  dMISS:    1766641  itACCESS:          0  itHIT:          0  itMISS:          0  dtACCESS:          0  dtHIT:          0  dtMISS:          0
cpu0_L2C WRITE        ACCESS:     282553  HIT:     109524  MISS:     173029  iACCESS:          0  iHIT:          0  iMISS:          0  dACCESS:     282553  dHIT:     109524  dMISS:     173029  itACCESS:          0  itHIT:          0  itMISS:          0  dtACCESS:          0  dtHIT:          0  dtMISS:          0
cpu0_L2C TRANSLATION  ACCESS:     289520  HIT:     174978  MISS:     114542  iACCESS:          0  iHIT:          0  iMISS:          0  dACCESS:          0  dHIT:          0  dMISS:          0  itACCESS:      38793  itHIT:      12201  itMISS:      26592  dtACCESS:     250727  dtHIT:     162777  dtMISS:      87950
cpu0_L2C PREFETCH  REQUESTED:    1518677  ISSUED:    1518624  CROSSED:          0  USEFUL:     391265  USELESS:     402106
cpu0_L2C AVERAGE iMISS LATENCY: 23.2702 cycles
cpu0_L2C AVERAGE dMISS LATENCY: 40.9049 cycles
cpu0_L2C AVERAGE itMISS LATENCY: 0.761555 cycles
cpu0_L2C AVERAGE dtMISS LATENCY: 2.7011 cycles
cpu0_L2C PAGE CROSSINGS (TLB HIT):         0 
cpu0_L2C PAGE CROSSINGS (TLB MISS):         0 
cpu0_L2C AVERAGE MISS LATENCY: 67.6377 cycles
LLC TOTAL       ACCESS:    4951353  HIT:    3374457  MISS:    1576896  iACCESS:    2050800  iHIT:    1518072  iMISS:     532728  dACCESS:    2786011  dHIT:    1826596  dMISS:     959415  itACCESS:      26592  itHIT:       7494  itMISS:      19098  dtACCESS:      87950  dtHIT:      22295  dtMISS:      65655
LLC LOAD         ACCESS:    1258147  HIT:     901087  MISS:     357060  iACCESS:     496427  iHIT:     388058  iMISS:     108369  dACCESS:     761720  dHIT:     513029  dMISS:     248691  itACCESS:          0  itHIT:          0  itMISS:          0  dtACCESS:          0  dtHIT:          0  dtMISS:          0
LLC RFO          ACCESS:     137578  HIT:      75457  MISS:      62121  iACCESS:          0  iHIT:          0  iMISS:          0  dACCESS:     137578  dHIT:      75457  dMISS:      62121  itACCESS:          0  itHIT:          0  itMISS:          0  dtACCESS:          0  dtHIT:          0  dtMISS:          0
LLC PREFETCH     ACCESS:    3227379  HIT:    2157222  MISS:    1070157  iACCESS:    1554373  iHIT:    1130014  iMISS:     424359  dACCESS:    1673006  dHIT:    1027208  dMISS:     645798  itACCESS:          0  itHIT:          0  itMISS:          0  dtACCESS:          0  dtHIT:          0  dtMISS:          0
LLC WRITE        ACCESS:     213707  HIT:     210902  MISS:       2805  iACCESS:          0  iHIT:          0  iMISS:          0  dACCESS:     213707  dHIT:     210902  dMISS:       2805  itACCESS:          0  itHIT:          0  itMISS:          0  dtACCESS:          0  dtHIT:          0  dtMISS:          0
LLC TRANSLATION  ACCESS:     114542  HIT:      29789  MISS:      84753  iACCESS:          0  iHIT:          0  iMISS:          0  dACCESS:          0  dHIT:          0  dMISS:          0  itACCESS:      26592  itHIT:       7494  itMISS:      19098  dtACCESS:      87950  dtHIT:      22295  dtMISS:      65655
LLC PREFETCH  REQUESTED:          0  ISSUED:          0  CROSSED:          0  USEFUL:          0  USELESS:          0
LLC AVERAGE iMISS LATENCY: 49.8407 cycles
LLC AVERAGE dMISS LATENCY: 101.281 cycles
LLC AVERAGE itMISS LATENCY: 2.12415 cycles
LLC AVERAGE dtMISS LATENCY: 7.61165 cycles
LLC PAGE CROSSINGS (TLB HIT):         0 
LLC PAGE CROSSINGS (TLB MISS):         0 
LLC AVERAGE MISS LATENCY: 160.857 cycles

PageTableWalker TOTAL       ACCESS:     109302  
PageTableWalker AVERAGE LATENCY: 4.38942 cycles
PageTableWalker TOTAL LATENCY: 479772 cycles

DRAM Statistics
Channel 0
 RQ ROW_BUFFER_HIT:     440196
  ROW_BUFFER_MISS:    1119335
 AVG DBUS CONGESTED CYCLE:    3.64276
 WQ ROW_BUFFER_HIT:      40058
  ROW_BUFFER_MISS:      37232  FULL:          0

