last_page:0x200000000000000
VMEM_RES_CAP:0x100000
PAGE_SIZE:4096
LOG2_PAGE_SIZE:12
LOG2_PAGE_TABLE_SIZE:9
page_table_levels:5
WARNING: physical memory size is smaller than virtual memory size
FDiP enabled with aggresivity 16

*** ChampSim Multicore Out-of-Order Simulator ***

Warmup Instructions: 50000000
Simulation Instructions: 100000000
Number of CPUs: 1
Small page size: 4096
Large page size: 2097152

CPU 0 Bimodal branch predictor
Basic BTB sets: 1024 ways: 8 indirect buffer size: 4096 RAS size: 64
Instruction page size distrubution: 0
Loading instruction page size distribution from /home/bsc/bsc018186/scratch/itp_asplos25_AE/dump/srv16_ap.pdst
Data page size distrubution: 0
Loading data page size distribution from /home/bsc/bsc018186/scratch/itp_asplos25_AE/dump/srv16_ap.pdst
cpu0_L2C IP-based stride prefetcher
cpu0_L1D next line prefetcher
cpu0_STLB using iTP with max lru@8
cpu0_STLB using iTP with instr@0 and data@2
Init sat counter with 3 bits (max:50).
cpu0_L1I next line prefetcher
Off-chip DRAM Size: 4 GiB Channels: 1 Width: 64-bit Data Rate: 3200 MT/s
Heartbeat CPU 0 instructions: 10000003 cycles: 2500215 heartbeat IPC: 3.99966 cumulative IPC: 3.99966 (Simulation time: 0 hr 0 min 37 sec) 
Heartbeat CPU 0 instructions: 20000003 cycles: 5000236 heartbeat IPC: 3.99997 cumulative IPC: 3.99982 (Simulation time: 0 hr 1 min 17 sec) 
Heartbeat CPU 0 instructions: 30000003 cycles: 7500284 heartbeat IPC: 3.99993 cumulative IPC: 3.99985 (Simulation time: 0 hr 1 min 58 sec) 
Heartbeat CPU 0 instructions: 40000003 cycles: 10000292 heartbeat IPC: 3.99999 cumulative IPC: 3.99989 (Simulation time: 0 hr 2 min 39 sec) 
Heartbeat CPU 0 instructions: 50000000 cycles: 12500331 heartbeat IPC: 3.99994 cumulative IPC: 3.9999 (Simulation time: 0 hr 3 min 20 sec) 
Warmup finished CPU 0 instructions: 50000000 cycles: 12500332 cumulative IPC: 3.9999 (Simulation time: 0 hr 3 min 20 sec) 

Warmup complete CPU 0 instructions: 50000000 cycles: 12500332 (Simulation time: 0 hr 3 min 20 sec) 

Heartbeat CPU 0 instructions: 60000001 cycles: 26385415 heartbeat IPC: 0.720198 cumulative IPC: 0.720198 (Simulation time: 0 hr 4 min 24 sec) 
Heartbeat CPU 0 instructions: 70000004 cycles: 40376917 heartbeat IPC: 0.71472 cumulative IPC: 0.717449 (Simulation time: 0 hr 5 min 30 sec) 
Heartbeat CPU 0 instructions: 80000003 cycles: 54548050 heartbeat IPC: 0.70566 cumulative IPC: 0.713476 (Simulation time: 0 hr 6 min 33 sec) 
Heartbeat CPU 0 instructions: 90000000 cycles: 68605798 heartbeat IPC: 0.711352 cumulative IPC: 0.712944 (Simulation time: 0 hr 7 min 37 sec) 
Heartbeat CPU 0 instructions: 100000001 cycles: 82800391 heartbeat IPC: 0.704494 cumulative IPC: 0.711237 (Simulation time: 0 hr 8 min 41 sec) 
*** Reached end of trace: /gpfs/projects/bsc18/MN4/bsc18/romol/ChampSim/traces/qualcomm_srv/srv16_ap.champsimtrace.xz
Heartbeat CPU 0 instructions: 110000002 cycles: 97277820 heartbeat IPC: 0.690731 cumulative IPC: 0.707736 (Simulation time: 0 hr 9 min 45 sec) 
Heartbeat CPU 0 instructions: 120000000 cycles: 110880686 heartbeat IPC: 0.73514 cumulative IPC: 0.711525 (Simulation time: 0 hr 10 min 48 sec) 
Heartbeat CPU 0 instructions: 130000002 cycles: 124962558 heartbeat IPC: 0.710133 cumulative IPC: 0.71135 (Simulation time: 0 hr 11 min 51 sec) 
Heartbeat CPU 0 instructions: 140000000 cycles: 138394297 heartbeat IPC: 0.744506 cumulative IPC: 0.714888 (Simulation time: 0 hr 12 min 54 sec) 
Heartbeat CPU 0 instructions: 150000001 cycles: 152602123 heartbeat IPC: 0.703838 cumulative IPC: 0.713767 (Simulation time: 0 hr 13 min 58 sec) 
Simulation finished CPU 0 instructions: 100000001 cycles: 140101792 cumulative IPC: 0.713767 (Simulation time: 0 hr 13 min 58 sec) 

Simulation complete CPU 0 instructions: 100000001 cycles: 140101792 (Simulation time: 0 hr 13 min 58 sec) 


ChampSim completed all CPUs

Saving instructions large page distribution to /home/bsc/bsc018186/scratch/itp_asplos25_AE/dump/srv16_ap.pdst...
Saving data large page distribution to /home/bsc/bsc018186/scratch/itp_asplos25_AE/dump/srv16_ap.pdst...
=== Simulation ===
CPU 0 runs /gpfs/projects/bsc18/MN4/bsc18/romol/ChampSim/traces/qualcomm_srv/srv16_ap.champsimtrace.xz

Region of Interest Statistics

CPU 0 cumulative IPC: 0.713767 instructions: 100000001 cycles: 140101792
CPU 0 Branch Prediction Accuracy: 83.3333% MPKI: 29.9146 Average ROB Occupancy at Mispredict: 12.3869
Branch type MPKI
BRANCH_DIRECT_JUMP: 0.96503
BRANCH_INDIRECT: 15.5278
BRANCH_CONDITIONAL: 9.75804
BRANCH_DIRECT_CALL: 1.83742
BRANCH_INDIRECT_CALL: 0.49222
BRANCH_RETURN: 1.33411

Instructions large pages: 0
Instructions small pages: 9894
Large page distribution for instructions: 0%

Data large pages: 0
Data small pages: 9057
Large page distribution for data: 0%

cpu0_L1I TOTAL       ACCESS:   35076844  HIT:   26526959  MISS:    8549885  iACCESS:   35076844  iHIT:   26526959  iMISS:    8549885  dACCESS:          0  dHIT:          0  dMISS:          0  itACCESS:          0  itHIT:          0  itMISS:          0  dtACCESS:          0  dtHIT:          0  dtMISS:          0
cpu0_L1I LOAD         ACCESS:   10226485  HIT:    7827347  MISS:    2399138  iACCESS:   10226485  iHIT:    7827347  iMISS:    2399138  dACCESS:          0  dHIT:          0  dMISS:          0  itACCESS:          0  itHIT:          0  itMISS:          0  dtACCESS:          0  dtHIT:          0  dtMISS:          0
cpu0_L1I RFO          ACCESS:          0  HIT:          0  MISS:          0  iACCESS:          0  iHIT:          0  iMISS:          0  dACCESS:          0  dHIT:          0  dMISS:          0  itACCESS:          0  itHIT:          0  itMISS:          0  dtACCESS:          0  dtHIT:          0  dtMISS:          0
cpu0_L1I PREFETCH     ACCESS:   24850359  HIT:   18699612  MISS:    6150747  iACCESS:   24850359  iHIT:   18699612  iMISS:    6150747  dACCESS:          0  dHIT:          0  dMISS:          0  itACCESS:          0  itHIT:          0  itMISS:          0  dtACCESS:          0  dtHIT:          0  dtMISS:          0
cpu0_L1I WRITE        ACCESS:          0  HIT:          0  MISS:          0  iACCESS:          0  iHIT:          0  iMISS:          0  dACCESS:          0  dHIT:          0  dMISS:          0  itACCESS:          0  itHIT:          0  itMISS:          0  dtACCESS:          0  dtHIT:          0  dtMISS:          0
cpu0_L1I TRANSLATION  ACCESS:          0  HIT:          0  MISS:          0  iACCESS:          0  iHIT:          0  iMISS:          0  dACCESS:          0  dHIT:          0  dMISS:          0  itACCESS:          0  itHIT:          0  itMISS:          0  dtACCESS:          0  dtHIT:          0  dtMISS:          0
cpu0_L1I PREFETCH  REQUESTED:   27117824  ISSUED:   27116221  CROSSED:          0  USEFUL:    1943104  USELESS:     637238
cpu0_L1I AVERAGE iMISS LATENCY: 13.2214 cycles
cpu0_L1I AVERAGE dMISS LATENCY: 0 cycles
cpu0_L1I AVERAGE itMISS LATENCY: 0 cycles
cpu0_L1I AVERAGE dtMISS LATENCY: 0 cycles
cpu0_L1I PAGE CROSSINGS (TLB HIT):         0 
cpu0_L1I PAGE CROSSINGS (TLB MISS):         0 
cpu0_L1I AVERAGE MISS LATENCY: 13.2214 cycles
cpu0_ITLB TOTAL       ACCESS:   29046781  HIT:   27064520  MISS:    1982261  iACCESS:   29046781  iHIT:   27064520  iMISS:    1982261  dACCESS:          0  dHIT:          0  dMISS:          0  itACCESS:          0  itHIT:          0  itMISS:          0  dtACCESS:          0  dtHIT:          0  dtMISS:          0
cpu0_ITLB LOAD         ACCESS:   29046781  HIT:   27064520  MISS:    1982261  iACCESS:   29046781  iHIT:   27064520  iMISS:    1982261  dACCESS:          0  dHIT:          0  dMISS:          0  itACCESS:          0  itHIT:          0  itMISS:          0  dtACCESS:          0  dtHIT:          0  dtMISS:          0
cpu0_ITLB RFO          ACCESS:          0  HIT:          0  MISS:          0  iACCESS:          0  iHIT:          0  iMISS:          0  dACCESS:          0  dHIT:          0  dMISS:          0  itACCESS:          0  itHIT:          0  itMISS:          0  dtACCESS:          0  dtHIT:          0  dtMISS:          0
cpu0_ITLB PREFETCH     ACCESS:          0  HIT:          0  MISS:          0  iACCESS:          0  iHIT:          0  iMISS:          0  dACCESS:          0  dHIT:          0  dMISS:          0  itACCESS:          0  itHIT:          0  itMISS:          0  dtACCESS:          0  dtHIT:          0  dtMISS:          0
cpu0_ITLB WRITE        ACCESS:          0  HIT:          0  MISS:          0  iACCESS:          0  iHIT:          0  iMISS:          0  dACCESS:          0  dHIT:          0  dMISS:          0  itACCESS:          0  itHIT:          0  itMISS:          0  dtACCESS:          0  dtHIT:          0  dtMISS:          0
cpu0_ITLB TRANSLATION  ACCESS:          0  HIT:          0  MISS:          0  iACCESS:          0  iHIT:          0  iMISS:          0  dACCESS:          0  dHIT:          0  dMISS:          0  itACCESS:          0  itHIT:          0  itMISS:          0  dtACCESS:          0  dtHIT:          0  dtMISS:          0
cpu0_ITLB PREFETCH  REQUESTED:          0  ISSUED:          0  CROSSED:          0  USEFUL:     327034  USELESS:      61877
cpu0_ITLB AVERAGE iMISS LATENCY: 1.76219 cycles
cpu0_ITLB AVERAGE dMISS LATENCY: 0 cycles
cpu0_ITLB AVERAGE itMISS LATENCY: 0 cycles
cpu0_ITLB AVERAGE dtMISS LATENCY: 0 cycles
cpu0_ITLB PAGE CROSSINGS (TLB HIT):         0 
cpu0_ITLB PAGE CROSSINGS (TLB MISS):         0 
cpu0_ITLB AVERAGE MISS LATENCY: 1.76219 cycles
cpu0_DTLB TOTAL       ACCESS:   27742804  HIT:   25624342  MISS:    2118462  iACCESS:          0  iHIT:          0  iMISS:          0  dACCESS:   27742804  dHIT:   25624342  dMISS:    2118462  itACCESS:          0  itHIT:          0  itMISS:          0  dtACCESS:          0  dtHIT:          0  dtMISS:          0
cpu0_DTLB LOAD         ACCESS:   27742804  HIT:   25624342  MISS:    2118462  iACCESS:          0  iHIT:          0  iMISS:          0  dACCESS:   27742804  dHIT:   25624342  dMISS:    2118462  itACCESS:          0  itHIT:          0  itMISS:          0  dtACCESS:          0  dtHIT:          0  dtMISS:          0
cpu0_DTLB RFO          ACCESS:          0  HIT:          0  MISS:          0  iACCESS:          0  iHIT:          0  iMISS:          0  dACCESS:          0  dHIT:          0  dMISS:          0  itACCESS:          0  itHIT:          0  itMISS:          0  dtACCESS:          0  dtHIT:          0  dtMISS:          0
cpu0_DTLB PREFETCH     ACCESS:          0  HIT:          0  MISS:          0  iACCESS:          0  iHIT:          0  iMISS:          0  dACCESS:          0  dHIT:          0  dMISS:          0  itACCESS:          0  itHIT:          0  itMISS:          0  dtACCESS:          0  dtHIT:          0  dtMISS:          0
cpu0_DTLB WRITE        ACCESS:          0  HIT:          0  MISS:          0  iACCESS:          0  iHIT:          0  iMISS:          0  dACCESS:          0  dHIT:          0  dMISS:          0  itACCESS:          0  itHIT:          0  itMISS:          0  dtACCESS:          0  dtHIT:          0  dtMISS:          0
cpu0_DTLB TRANSLATION  ACCESS:          0  HIT:          0  MISS:          0  iACCESS:          0  iHIT:          0  iMISS:          0  dACCESS:          0  dHIT:          0  dMISS:          0  itACCESS:          0  itHIT:          0  itMISS:          0  dtACCESS:          0  dtHIT:          0  dtMISS:          0
cpu0_DTLB PREFETCH  REQUESTED:          0  ISSUED:          0  CROSSED:          0  USEFUL:          0  USELESS:          0
cpu0_DTLB AVERAGE iMISS LATENCY: 0 cycles
cpu0_DTLB AVERAGE dMISS LATENCY: 10.6088 cycles
cpu0_DTLB AVERAGE itMISS LATENCY: 0 cycles
cpu0_DTLB AVERAGE dtMISS LATENCY: 0 cycles
cpu0_DTLB PAGE CROSSINGS (TLB HIT):         0 
cpu0_DTLB PAGE CROSSINGS (TLB MISS):         0 
cpu0_DTLB AVERAGE MISS LATENCY: 10.6088 cycles
cpu0_STLB TOTAL       ACCESS:    1645504  HIT:    1513159  MISS:     132345  iACCESS:     388946  iHIT:     383939  iMISS:       5007  dACCESS:    1256558  dHIT:    1129220  dMISS:     127338  itACCESS:          0  itHIT:          0  itMISS:          0  dtACCESS:          0  dtHIT:          0  dtMISS:          0
cpu0_STLB LOAD         ACCESS:    1645504  HIT:    1513159  MISS:     132345  iACCESS:     388946  iHIT:     383939  iMISS:       5007  dACCESS:    1256558  dHIT:    1129220  dMISS:     127338  itACCESS:          0  itHIT:          0  itMISS:          0  dtACCESS:          0  dtHIT:          0  dtMISS:          0
cpu0_STLB RFO          ACCESS:          0  HIT:          0  MISS:          0  iACCESS:          0  iHIT:          0  iMISS:          0  dACCESS:          0  dHIT:          0  dMISS:          0  itACCESS:          0  itHIT:          0  itMISS:          0  dtACCESS:          0  dtHIT:          0  dtMISS:          0
cpu0_STLB PREFETCH     ACCESS:          0  HIT:          0  MISS:          0  iACCESS:          0  iHIT:          0  iMISS:          0  dACCESS:          0  dHIT:          0  dMISS:          0  itACCESS:          0  itHIT:          0  itMISS:          0  dtACCESS:          0  dtHIT:          0  dtMISS:          0
cpu0_STLB WRITE        ACCESS:          0  HIT:          0  MISS:          0  iACCESS:          0  iHIT:          0  iMISS:          0  dACCESS:          0  dHIT:          0  dMISS:          0  itACCESS:          0  itHIT:          0  itMISS:          0  dtACCESS:          0  dtHIT:          0  dtMISS:          0
cpu0_STLB TRANSLATION  ACCESS:          0  HIT:          0  MISS:          0  iACCESS:          0  iHIT:          0  iMISS:          0  dACCESS:          0  dHIT:          0  dMISS:          0  itACCESS:          0  itHIT:          0  itMISS:          0  dtACCESS:          0  dtHIT:          0  dtMISS:          0
cpu0_STLB PREFETCH  REQUESTED:          0  ISSUED:          0  CROSSED:          0  USEFUL:          0  USELESS:          0
cpu0_STLB AVERAGE iMISS LATENCY: 3.62579 cycles
cpu0_STLB AVERAGE dMISS LATENCY: 94.0709 cycles
cpu0_STLB AVERAGE itMISS LATENCY: 0 cycles
cpu0_STLB AVERAGE dtMISS LATENCY: 0 cycles
cpu0_STLB PAGE CROSSINGS (TLB HIT):         0 
cpu0_STLB PAGE CROSSINGS (TLB MISS):         0 
cpu0_STLB AVERAGE MISS LATENCY: 97.6967 cycles
cpu0_L1D TOTAL       ACCESS:   41469069  HIT:   37998989  MISS:    3470080  iACCESS:          0  iHIT:          0  iMISS:          0  dACCESS:   41270803  dHIT:   37986988  dMISS:    3283815  itACCESS:       6099  itHIT:        530  itMISS:       5569  dtACCESS:     192167  dtHIT:      11471  dtMISS:     180696
cpu0_L1D LOAD         ACCESS:   18940573  HIT:   17433231  MISS:    1507342  iACCESS:          0  iHIT:          0  iMISS:          0  dACCESS:   18940573  dHIT:   17433231  dMISS:    1507342  itACCESS:          0  itHIT:          0  itMISS:          0  dtACCESS:          0  dtHIT:          0  dtMISS:          0
cpu0_L1D RFO          ACCESS:          0  HIT:          0  MISS:          0  iACCESS:          0  iHIT:          0  iMISS:          0  dACCESS:          0  dHIT:          0  dMISS:          0  itACCESS:          0  itHIT:          0  itMISS:          0  dtACCESS:          0  dtHIT:          0  dtMISS:          0
cpu0_L1D PREFETCH     ACCESS:   12202926  HIT:   10850792  MISS:    1352134  iACCESS:          0  iHIT:          0  iMISS:          0  dACCESS:   12202926  dHIT:   10850792  dMISS:    1352134  itACCESS:          0  itHIT:          0  itMISS:          0  dtACCESS:          0  dtHIT:          0  dtMISS:          0
cpu0_L1D WRITE        ACCESS:   10127304  HIT:    9702965  MISS:     424339  iACCESS:          0  iHIT:          0  iMISS:          0  dACCESS:   10127304  dHIT:    9702965  dMISS:     424339  itACCESS:          0  itHIT:          0  itMISS:          0  dtACCESS:          0  dtHIT:          0  dtMISS:          0
cpu0_L1D TRANSLATION  ACCESS:     198266  HIT:      12001  MISS:     186265  iACCESS:          0  iHIT:          0  iMISS:          0  dACCESS:          0  dHIT:          0  dMISS:          0  itACCESS:       6099  itHIT:        530  itMISS:       5569  dtACCESS:     192167  dtHIT:      11471  dtMISS:     180696
cpu0_L1D PREFETCH  REQUESTED:   18940573  ISSUED:   17064057  CROSSED:          0  USEFUL:     308692  USELESS:     706803
cpu0_L1D AVERAGE iMISS LATENCY: 0 cycles
cpu0_L1D AVERAGE dMISS LATENCY: 32.9373 cycles
cpu0_L1D AVERAGE itMISS LATENCY: 0.121356 cycles
cpu0_L1D AVERAGE dtMISS LATENCY: 2.85323 cycles
cpu0_L1D PAGE CROSSINGS (TLB HIT):         0 
cpu0_L1D PAGE CROSSINGS (TLB MISS):         0 
cpu0_L1D AVERAGE MISS LATENCY: 35.9119 cycles
cpu0_L2C TOTAL       ACCESS:    7020420  HIT:    1687156  MISS:    5333264  iACCESS:    3332484  iHIT:     851910  iMISS:    2480574  dACCESS:    3511935  dHIT:     740475  dMISS:    2771460  itACCESS:       5569  itHIT:       2896  itMISS:       2673  dtACCESS:     170432  dtHIT:      91875  dtMISS:      78557
cpu0_L2C LOAD         ACCESS:    1731276  HIT:     319449  MISS:    1411827  iACCESS:     791609  iHIT:     152403  iMISS:     639206  dACCESS:     939667  dHIT:     167046  dMISS:     772621  itACCESS:          0  itHIT:          0  itMISS:          0  dtACCESS:          0  dtHIT:          0  dtMISS:          0
cpu0_L2C RFO          ACCESS:     156050  HIT:      56232  MISS:      99818  iACCESS:          0  iHIT:          0  iMISS:          0  dACCESS:     156050  dHIT:      56232  dMISS:      99818  itACCESS:          0  itHIT:          0  itMISS:          0  dtACCESS:          0  dtHIT:          0  dtMISS:          0
cpu0_L2C PREFETCH     ACCESS:    4671437  HIT:    1068989  MISS:    3602448  iACCESS:    2540875  iHIT:     699507  iMISS:    1841368  dACCESS:    2130562  dHIT:     369482  dMISS:    1761080  itACCESS:          0  itHIT:          0  itMISS:          0  dtACCESS:          0  dtHIT:          0  dtMISS:          0
cpu0_L2C WRITE        ACCESS:     285656  HIT:     147715  MISS:     137941  iACCESS:          0  iHIT:          0  iMISS:          0  dACCESS:     285656  dHIT:     147715  dMISS:     137941  itACCESS:          0  itHIT:          0  itMISS:          0  dtACCESS:          0  dtHIT:          0  dtMISS:          0
cpu0_L2C TRANSLATION  ACCESS:     176001  HIT:      94771  MISS:      81230  iACCESS:          0  iHIT:          0  iMISS:          0  dACCESS:          0  dHIT:          0  dMISS:          0  itACCESS:       5569  itHIT:       2896  itMISS:       2673  dtACCESS:     170432  dtHIT:      91875  dtMISS:      78557
cpu0_L2C PREFETCH  REQUESTED:    1402437  ISSUED:    1402437  CROSSED:          0  USEFUL:     398743  USELESS:     389171
cpu0_L2C AVERAGE iMISS LATENCY: 15.3692 cycles
cpu0_L2C AVERAGE dMISS LATENCY: 25.0768 cycles
cpu0_L2C AVERAGE itMISS LATENCY: 0.0690424 cycles
cpu0_L2C AVERAGE dtMISS LATENCY: 1.55231 cycles
cpu0_L2C PAGE CROSSINGS (TLB HIT):         0 
cpu0_L2C PAGE CROSSINGS (TLB MISS):         0 
cpu0_L2C AVERAGE MISS LATENCY: 42.0673 cycles
LLC TOTAL       ACCESS:    5205523  HIT:    4393522  MISS:     812001  iACCESS:    2421179  iHIT:    2178558  iMISS:     242621  dACCESS:    2703114  dHIT:    2173726  dMISS:     529388  itACCESS:       2673  itHIT:        893  itMISS:       1780  dtACCESS:      78557  dtHIT:      40345  dtMISS:      38212
LLC LOAD         ACCESS:    1409741  HIT:    1235575  MISS:     174166  iACCESS:     637448  iHIT:     589014  iMISS:      48434  dACCESS:     772293  dHIT:     646561  dMISS:     125732  itACCESS:          0  itHIT:          0  itMISS:          0  dtACCESS:          0  dtHIT:          0  dtMISS:          0
LLC RFO          ACCESS:      99812  HIT:      64802  MISS:      35010  iACCESS:          0  iHIT:          0  iMISS:          0  dACCESS:      99812  dHIT:      64802  dMISS:      35010  itACCESS:          0  itHIT:          0  itMISS:          0  dtACCESS:          0  dtHIT:          0  dtMISS:          0
LLC PREFETCH     ACCESS:    3489523  HIT:    2935251  MISS:     554272  iACCESS:    1783731  iHIT:    1589544  iMISS:     194187  dACCESS:    1705792  dHIT:    1345707  dMISS:     360085  itACCESS:          0  itHIT:          0  itMISS:          0  dtACCESS:          0  dtHIT:          0  dtMISS:          0
LLC WRITE        ACCESS:     125217  HIT:     116656  MISS:       8561  iACCESS:          0  iHIT:          0  iMISS:          0  dACCESS:     125217  dHIT:     116656  dMISS:       8561  itACCESS:          0  itHIT:          0  itMISS:          0  dtACCESS:          0  dtHIT:          0  dtMISS:          0
LLC TRANSLATION  ACCESS:      81230  HIT:      41238  MISS:      39992  iACCESS:          0  iHIT:          0  iMISS:          0  dACCESS:          0  dHIT:          0  dMISS:          0  itACCESS:       2673  itHIT:        893  itMISS:       1780  dtACCESS:      78557  dtHIT:      40345  dtMISS:      38212
LLC PREFETCH  REQUESTED:          0  ISSUED:          0  CROSSED:          0  USEFUL:          0  USELESS:          0
LLC AVERAGE iMISS LATENCY: 43.395 cycles
LLC AVERAGE dMISS LATENCY: 103.315 cycles
LLC AVERAGE itMISS LATENCY: 0.388921 cycles
LLC AVERAGE dtMISS LATENCY: 8.31107 cycles
LLC PAGE CROSSINGS (TLB HIT):         0 
LLC PAGE CROSSINGS (TLB MISS):         0 
LLC AVERAGE MISS LATENCY: 155.41 cycles

PageTableWalker TOTAL       ACCESS:      66305  
PageTableWalker AVERAGE LATENCY: 5.0323 cycles
PageTableWalker TOTAL LATENCY: 333666 cycles

DRAM Statistics
Channel 0
 RQ ROW_BUFFER_HIT:     223100
  ROW_BUFFER_MISS:     580320
 AVG DBUS CONGESTED CYCLE:     3.6129
 WQ ROW_BUFFER_HIT:      14792
  ROW_BUFFER_MISS:      20814  FULL:          0

