last_page:0x200000000000000
VMEM_RES_CAP:0x100000
PAGE_SIZE:4096
LOG2_PAGE_SIZE:12
LOG2_PAGE_TABLE_SIZE:9
page_table_levels:5
WARNING: physical memory size is smaller than virtual memory size
FDiP enabled with aggresivity 16

*** ChampSim Multicore Out-of-Order Simulator ***

Warmup Instructions: 50000000
Simulation Instructions: 100000000
Number of CPUs: 1
Small page size: 4096
Large page size: 2097152

CPU 0 Bimodal branch predictor
Basic BTB sets: 1024 ways: 8 indirect buffer size: 4096 RAS size: 64
Instruction page size distrubution: 0
Loading instruction page size distribution from /home/bsc/bsc018186/scratch/itp_asplos25_AE/dump/srv128_ap.pdst
Data page size distrubution: 0
Loading data page size distribution from /home/bsc/bsc018186/scratch/itp_asplos25_AE/dump/srv128_ap.pdst
cpu0_L2C IP-based stride prefetcher
cpu0_L2C is using xPTP/LRU
	TLB_LOWER_STRESS_THRESHOLD:1
	TLB_UPPER_STRESS_THRESHOLD:9
	MIN_EVICTION_POSITION:4
cpu0_L1D next line prefetcher
cpu0_STLB using iTP with max lru@8
cpu0_STLB using iTP with instr@0 and data@2
Init sat counter with 3 bits (max:50).
cpu0_L1I next line prefetcher
Off-chip DRAM Size: 4 GiB Channels: 1 Width: 64-bit Data Rate: 3200 MT/s
Heartbeat CPU 0 instructions: 10000001 cycles: 2644115 heartbeat IPC: 3.78199 cumulative IPC: 3.78199 (Simulation time: 0 hr 0 min 42 sec) 
Heartbeat CPU 0 instructions: 20000000 cycles: 5610519 heartbeat IPC: 3.37109 cumulative IPC: 3.56474 (Simulation time: 0 hr 1 min 28 sec) 
Heartbeat CPU 0 instructions: 30000000 cycles: 8110540 heartbeat IPC: 3.99997 cumulative IPC: 3.6989 (Simulation time: 0 hr 2 min 12 sec) 
Heartbeat CPU 0 instructions: 40000002 cycles: 10610599 heartbeat IPC: 3.99991 cumulative IPC: 3.76982 (Simulation time: 0 hr 2 min 57 sec) 
Heartbeat CPU 0 instructions: 50000000 cycles: 13110606 heartbeat IPC: 3.99999 cumulative IPC: 3.81371 (Simulation time: 0 hr 3 min 39 sec) 
Warmup finished CPU 0 instructions: 50000000 cycles: 13110607 cumulative IPC: 3.81371 (Simulation time: 0 hr 3 min 39 sec) 

Warmup complete CPU 0 instructions: 50000000 cycles: 13110607 (Simulation time: 0 hr 3 min 39 sec) 

Heartbeat CPU 0 instructions: 60000000 cycles: 30189950 heartbeat IPC: 0.585503 cumulative IPC: 0.585503 (Simulation time: 0 hr 4 min 52 sec) 
Heartbeat CPU 0 instructions: 70000004 cycles: 46870897 heartbeat IPC: 0.599487 cumulative IPC: 0.592413 (Simulation time: 0 hr 6 min 5 sec) 
Heartbeat CPU 0 instructions: 80000000 cycles: 64026045 heartbeat IPC: 0.582916 cumulative IPC: 0.589213 (Simulation time: 0 hr 7 min 19 sec) 
Heartbeat CPU 0 instructions: 90000002 cycles: 81145911 heartbeat IPC: 0.584117 cumulative IPC: 0.587931 (Simulation time: 0 hr 8 min 30 sec) 
Heartbeat CPU 0 instructions: 100000004 cycles: 98480995 heartbeat IPC: 0.576865 cumulative IPC: 0.585684 (Simulation time: 0 hr 9 min 45 sec) 
*** Reached end of trace: /gpfs/projects/bsc18/MN4/bsc18/romol/ChampSim/traces/qualcomm_srv/srv128_ap.champsimtrace.xz
Heartbeat CPU 0 instructions: 110000004 cycles: 115537584 heartbeat IPC: 0.586284 cumulative IPC: 0.585784 (Simulation time: 0 hr 10 min 59 sec) 
Heartbeat CPU 0 instructions: 120000001 cycles: 124150478 heartbeat IPC: 1.16105 cumulative IPC: 0.630405 (Simulation time: 0 hr 12 min 3 sec) 
Heartbeat CPU 0 instructions: 130000000 cycles: 139459071 heartbeat IPC: 0.653228 cumulative IPC: 0.63317 (Simulation time: 0 hr 13 min 15 sec) 
Heartbeat CPU 0 instructions: 140000003 cycles: 156836685 heartbeat IPC: 0.575454 cumulative IPC: 0.626192 (Simulation time: 0 hr 14 min 30 sec) 
Heartbeat CPU 0 instructions: 150000001 cycles: 173678882 heartbeat IPC: 0.593747 cumulative IPC: 0.622789 (Simulation time: 0 hr 15 min 44 sec) 
Simulation finished CPU 0 instructions: 100000001 cycles: 160568276 cumulative IPC: 0.622789 (Simulation time: 0 hr 15 min 44 sec) 

Simulation complete CPU 0 instructions: 100000001 cycles: 160568276 (Simulation time: 0 hr 15 min 44 sec) 


ChampSim completed all CPUs

Saving instructions large page distribution to /home/bsc/bsc018186/scratch/itp_asplos25_AE/dump/srv128_ap.pdst...
Saving data large page distribution to /home/bsc/bsc018186/scratch/itp_asplos25_AE/dump/srv128_ap.pdst...
=== Simulation ===
CPU 0 runs /gpfs/projects/bsc18/MN4/bsc18/romol/ChampSim/traces/qualcomm_srv/srv128_ap.champsimtrace.xz

Region of Interest Statistics

CPU 0 cumulative IPC: 0.622789 instructions: 100000001 cycles: 160568276
CPU 0 Branch Prediction Accuracy: 83.2173% MPKI: 32.425 Average ROB Occupancy at Mispredict: 12.4278
Branch type MPKI
BRANCH_DIRECT_JUMP: 1.15776
BRANCH_INDIRECT: 16.4527
BRANCH_CONDITIONAL: 10.4164
BRANCH_DIRECT_CALL: 2.17399
BRANCH_INDIRECT_CALL: 0.6959
BRANCH_RETURN: 1.52822

Instructions large pages: 0
Instructions small pages: 1315
Large page distribution for instructions: 0%

Data large pages: 0
Data small pages: 4897
Large page distribution for data: 0%

cpu0_L1I TOTAL       ACCESS:   34727469  HIT:   27552793  MISS:    7174676  iACCESS:   34727469  iHIT:   27552793  iMISS:    7174676  dACCESS:          0  dHIT:          0  dMISS:          0  itACCESS:          0  itHIT:          0  itMISS:          0  dtACCESS:          0  dtHIT:          0  dtMISS:          0
cpu0_L1I LOAD         ACCESS:    9241882  HIT:    7270910  MISS:    1970972  iACCESS:    9241882  iHIT:    7270910  iMISS:    1970972  dACCESS:          0  dHIT:          0  dMISS:          0  itACCESS:          0  itHIT:          0  itMISS:          0  dtACCESS:          0  dtHIT:          0  dtMISS:          0
cpu0_L1I RFO          ACCESS:          0  HIT:          0  MISS:          0  iACCESS:          0  iHIT:          0  iMISS:          0  dACCESS:          0  dHIT:          0  dMISS:          0  itACCESS:          0  itHIT:          0  itMISS:          0  dtACCESS:          0  dtHIT:          0  dtMISS:          0
cpu0_L1I PREFETCH     ACCESS:   25485587  HIT:   20281883  MISS:    5203704  iACCESS:   25485587  iHIT:   20281883  iMISS:    5203704  dACCESS:          0  dHIT:          0  dMISS:          0  itACCESS:          0  itHIT:          0  itMISS:          0  dtACCESS:          0  dtHIT:          0  dtMISS:          0
cpu0_L1I WRITE        ACCESS:          0  HIT:          0  MISS:          0  iACCESS:          0  iHIT:          0  iMISS:          0  dACCESS:          0  dHIT:          0  dMISS:          0  itACCESS:          0  itHIT:          0  itMISS:          0  dtACCESS:          0  dtHIT:          0  dtMISS:          0
cpu0_L1I TRANSLATION  ACCESS:          0  HIT:          0  MISS:          0  iACCESS:          0  iHIT:          0  iMISS:          0  dACCESS:          0  dHIT:          0  dMISS:          0  itACCESS:          0  itHIT:          0  itMISS:          0  dtACCESS:          0  dtHIT:          0  dtMISS:          0
cpu0_L1I PREFETCH  REQUESTED:   27535290  ISSUED:   27535194  CROSSED:          0  USEFUL:    1756877  USELESS:     583515
cpu0_L1I AVERAGE iMISS LATENCY: 16.3356 cycles
cpu0_L1I AVERAGE dMISS LATENCY: 0 cycles
cpu0_L1I AVERAGE itMISS LATENCY: 0 cycles
cpu0_L1I AVERAGE dtMISS LATENCY: 0 cycles
cpu0_L1I PAGE CROSSINGS (TLB HIT):         0 
cpu0_L1I PAGE CROSSINGS (TLB MISS):         0 
cpu0_L1I AVERAGE MISS LATENCY: 16.3356 cycles
cpu0_ITLB TOTAL       ACCESS:   29236149  HIT:   27510168  MISS:    1725981  iACCESS:   29236149  iHIT:   27510168  iMISS:    1725981  dACCESS:          0  dHIT:          0  dMISS:          0  itACCESS:          0  itHIT:          0  itMISS:          0  dtACCESS:          0  dtHIT:          0  dtMISS:          0
cpu0_ITLB LOAD         ACCESS:   29236149  HIT:   27510168  MISS:    1725981  iACCESS:   29236149  iHIT:   27510168  iMISS:    1725981  dACCESS:          0  dHIT:          0  dMISS:          0  itACCESS:          0  itHIT:          0  itMISS:          0  dtACCESS:          0  dtHIT:          0  dtMISS:          0
cpu0_ITLB RFO          ACCESS:          0  HIT:          0  MISS:          0  iACCESS:          0  iHIT:          0  iMISS:          0  dACCESS:          0  dHIT:          0  dMISS:          0  itACCESS:          0  itHIT:          0  itMISS:          0  dtACCESS:          0  dtHIT:          0  dtMISS:          0
cpu0_ITLB PREFETCH     ACCESS:          0  HIT:          0  MISS:          0  iACCESS:          0  iHIT:          0  iMISS:          0  dACCESS:          0  dHIT:          0  dMISS:          0  itACCESS:          0  itHIT:          0  itMISS:          0  dtACCESS:          0  dtHIT:          0  dtMISS:          0
cpu0_ITLB WRITE        ACCESS:          0  HIT:          0  MISS:          0  iACCESS:          0  iHIT:          0  iMISS:          0  dACCESS:          0  dHIT:          0  dMISS:          0  itACCESS:          0  itHIT:          0  itMISS:          0  dtACCESS:          0  dtHIT:          0  dtMISS:          0
cpu0_ITLB TRANSLATION  ACCESS:          0  HIT:          0  MISS:          0  iACCESS:          0  iHIT:          0  iMISS:          0  dACCESS:          0  dHIT:          0  dMISS:          0  itACCESS:          0  itHIT:          0  itMISS:          0  dtACCESS:          0  dtHIT:          0  dtMISS:          0
cpu0_ITLB PREFETCH  REQUESTED:          0  ISSUED:          0  CROSSED:          0  USEFUL:     293961  USELESS:      54953
cpu0_ITLB AVERAGE iMISS LATENCY: 2.86897 cycles
cpu0_ITLB AVERAGE dMISS LATENCY: 0 cycles
cpu0_ITLB AVERAGE itMISS LATENCY: 0 cycles
cpu0_ITLB AVERAGE dtMISS LATENCY: 0 cycles
cpu0_ITLB PAGE CROSSINGS (TLB HIT):         0 
cpu0_ITLB PAGE CROSSINGS (TLB MISS):         0 
cpu0_ITLB AVERAGE MISS LATENCY: 2.86897 cycles
cpu0_DTLB TOTAL       ACCESS:   29731844  HIT:   25591427  MISS:    4140417  iACCESS:          0  iHIT:          0  iMISS:          0  dACCESS:   29731844  dHIT:   25591427  dMISS:    4140417  itACCESS:          0  itHIT:          0  itMISS:          0  dtACCESS:          0  dtHIT:          0  dtMISS:          0
cpu0_DTLB LOAD         ACCESS:   29731844  HIT:   25591427  MISS:    4140417  iACCESS:          0  iHIT:          0  iMISS:          0  dACCESS:   29731844  dHIT:   25591427  dMISS:    4140417  itACCESS:          0  itHIT:          0  itMISS:          0  dtACCESS:          0  dtHIT:          0  dtMISS:          0
cpu0_DTLB RFO          ACCESS:          0  HIT:          0  MISS:          0  iACCESS:          0  iHIT:          0  iMISS:          0  dACCESS:          0  dHIT:          0  dMISS:          0  itACCESS:          0  itHIT:          0  itMISS:          0  dtACCESS:          0  dtHIT:          0  dtMISS:          0
cpu0_DTLB PREFETCH     ACCESS:          0  HIT:          0  MISS:          0  iACCESS:          0  iHIT:          0  iMISS:          0  dACCESS:          0  dHIT:          0  dMISS:          0  itACCESS:          0  itHIT:          0  itMISS:          0  dtACCESS:          0  dtHIT:          0  dtMISS:          0
cpu0_DTLB WRITE        ACCESS:          0  HIT:          0  MISS:          0  iACCESS:          0  iHIT:          0  iMISS:          0  dACCESS:          0  dHIT:          0  dMISS:          0  itACCESS:          0  itHIT:          0  itMISS:          0  dtACCESS:          0  dtHIT:          0  dtMISS:          0
cpu0_DTLB TRANSLATION  ACCESS:          0  HIT:          0  MISS:          0  iACCESS:          0  iHIT:          0  iMISS:          0  dACCESS:          0  dHIT:          0  dMISS:          0  itACCESS:          0  itHIT:          0  itMISS:          0  dtACCESS:          0  dtHIT:          0  dtMISS:          0
cpu0_DTLB PREFETCH  REQUESTED:          0  ISSUED:          0  CROSSED:          0  USEFUL:          0  USELESS:          0
cpu0_DTLB AVERAGE iMISS LATENCY: 0 cycles
cpu0_DTLB AVERAGE dMISS LATENCY: 7.93085 cycles
cpu0_DTLB AVERAGE itMISS LATENCY: 0 cycles
cpu0_DTLB AVERAGE dtMISS LATENCY: 0 cycles
cpu0_DTLB PAGE CROSSINGS (TLB HIT):         0 
cpu0_DTLB PAGE CROSSINGS (TLB MISS):         0 
cpu0_DTLB AVERAGE MISS LATENCY: 7.93085 cycles
cpu0_STLB TOTAL       ACCESS:    2589483  HIT:    2405939  MISS:     183544  iACCESS:     348921  iHIT:     327805  iMISS:      21116  dACCESS:    2240562  dHIT:    2078134  dMISS:     162428  itACCESS:          0  itHIT:          0  itMISS:          0  dtACCESS:          0  dtHIT:          0  dtMISS:          0
cpu0_STLB LOAD         ACCESS:    2589483  HIT:    2405939  MISS:     183544  iACCESS:     348921  iHIT:     327805  iMISS:      21116  dACCESS:    2240562  dHIT:    2078134  dMISS:     162428  itACCESS:          0  itHIT:          0  itMISS:          0  dtACCESS:          0  dtHIT:          0  dtMISS:          0
cpu0_STLB RFO          ACCESS:          0  HIT:          0  MISS:          0  iACCESS:          0  iHIT:          0  iMISS:          0  dACCESS:          0  dHIT:          0  dMISS:          0  itACCESS:          0  itHIT:          0  itMISS:          0  dtACCESS:          0  dtHIT:          0  dtMISS:          0
cpu0_STLB PREFETCH     ACCESS:          0  HIT:          0  MISS:          0  iACCESS:          0  iHIT:          0  iMISS:          0  dACCESS:          0  dHIT:          0  dMISS:          0  itACCESS:          0  itHIT:          0  itMISS:          0  dtACCESS:          0  dtHIT:          0  dtMISS:          0
cpu0_STLB WRITE        ACCESS:          0  HIT:          0  MISS:          0  iACCESS:          0  iHIT:          0  iMISS:          0  dACCESS:          0  dHIT:          0  dMISS:          0  itACCESS:          0  itHIT:          0  itMISS:          0  dtACCESS:          0  dtHIT:          0  dtMISS:          0
cpu0_STLB TRANSLATION  ACCESS:          0  HIT:          0  MISS:          0  iACCESS:          0  iHIT:          0  iMISS:          0  dACCESS:          0  dHIT:          0  dMISS:          0  itACCESS:          0  itHIT:          0  itMISS:          0  dtACCESS:          0  dtHIT:          0  dtMISS:          0
cpu0_STLB PREFETCH  REQUESTED:          0  ISSUED:          0  CROSSED:          0  USEFUL:          0  USELESS:          0
cpu0_STLB AVERAGE iMISS LATENCY: 12.1499 cycles
cpu0_STLB AVERAGE dMISS LATENCY: 79.8388 cycles
cpu0_STLB AVERAGE itMISS LATENCY: 0 cycles
cpu0_STLB AVERAGE dtMISS LATENCY: 0 cycles
cpu0_STLB PAGE CROSSINGS (TLB HIT):         0 
cpu0_STLB PAGE CROSSINGS (TLB MISS):         0 
cpu0_STLB AVERAGE MISS LATENCY: 91.9887 cycles
cpu0_L1D TOTAL       ACCESS:   46456772  HIT:   38842483  MISS:    7614289  iACCESS:          0  iHIT:          0  iMISS:          0  dACCESS:   46210673  dHIT:   38826889  dMISS:    7383784  itACCESS:      23901  itHIT:       2043  itMISS:      21858  dtACCESS:     222198  dtHIT:      13551  dtMISS:     208647
cpu0_L1D LOAD         ACCESS:   22424082  HIT:   18116955  MISS:    4307127  iACCESS:          0  iHIT:          0  iMISS:          0  dACCESS:   22424082  dHIT:   18116955  dMISS:    4307127  itACCESS:          0  itHIT:          0  itMISS:          0  dtACCESS:          0  dtHIT:          0  dtMISS:          0
cpu0_L1D RFO          ACCESS:          0  HIT:          0  MISS:          0  iACCESS:          0  iHIT:          0  iMISS:          0  dACCESS:          0  dHIT:          0  dMISS:          0  itACCESS:          0  itHIT:          0  itMISS:          0  dtACCESS:          0  dtHIT:          0  dtMISS:          0
cpu0_L1D PREFETCH     ACCESS:   13969454  HIT:   11367694  MISS:    2601760  iACCESS:          0  iHIT:          0  iMISS:          0  dACCESS:   13969454  dHIT:   11367694  dMISS:    2601760  itACCESS:          0  itHIT:          0  itMISS:          0  dtACCESS:          0  dtHIT:          0  dtMISS:          0
cpu0_L1D WRITE        ACCESS:    9817137  HIT:    9342240  MISS:     474897  iACCESS:          0  iHIT:          0  iMISS:          0  dACCESS:    9817137  dHIT:    9342240  dMISS:     474897  itACCESS:          0  itHIT:          0  itMISS:          0  dtACCESS:          0  dtHIT:          0  dtMISS:          0
cpu0_L1D TRANSLATION  ACCESS:     246099  HIT:      15594  MISS:     230505  iACCESS:          0  iHIT:          0  iMISS:          0  dACCESS:          0  dHIT:          0  dMISS:          0  itACCESS:      23901  itHIT:       2043  itMISS:      21858  dtACCESS:     222198  dtHIT:      13551  dtMISS:     208647
cpu0_L1D PREFETCH  REQUESTED:   22424082  ISSUED:   17604507  CROSSED:          0  USEFUL:     278133  USELESS:     762492
cpu0_L1D AVERAGE iMISS LATENCY: 0 cycles
cpu0_L1D AVERAGE dMISS LATENCY: 22.4116 cycles
cpu0_L1D AVERAGE itMISS LATENCY: 0.263494 cycles
cpu0_L1D AVERAGE dtMISS LATENCY: 1.64098 cycles
cpu0_L1D PAGE CROSSINGS (TLB HIT):         0 
cpu0_L1D PAGE CROSSINGS (TLB MISS):         0 
cpu0_L1D AVERAGE MISS LATENCY: 24.3161 cycles
cpu0_L2C TOTAL       ACCESS:    8280584  HIT:    2840801  MISS:    5439783  iACCESS:    2987860  iHIT:    1222462  iMISS:    1765398  dACCESS:    5066701  dHIT:    1474433  dMISS:    3592268  itACCESS:      21858  itHIT:       9578  itMISS:      12280  dtACCESS:     204165  dtHIT:     134328  dtMISS:      69837
cpu0_L2C LOAD         ACCESS:    3191822  HIT:    1002153  MISS:    2189669  iACCESS:     681276  iHIT:     257597  iMISS:     423679  dACCESS:    2510546  dHIT:     744556  dMISS:    1765990  itACCESS:          0  itHIT:          0  itMISS:          0  dtACCESS:          0  dtHIT:          0  dtMISS:          0
cpu0_L2C RFO          ACCESS:     168899  HIT:      25509  MISS:     143390  iACCESS:          0  iHIT:          0  iMISS:          0  dACCESS:     168899  dHIT:      25509  dMISS:     143390  itACCESS:          0  itHIT:          0  itMISS:          0  dtACCESS:          0  dtHIT:          0  dtMISS:          0
cpu0_L2C PREFETCH     ACCESS:    4447216  HIT:    1567910  MISS:    2879306  iACCESS:    2306584  iHIT:     964865  iMISS:    1341719  dACCESS:    2140632  dHIT:     603045  dMISS:    1537587  itACCESS:          0  itHIT:          0  itMISS:          0  dtACCESS:          0  dtHIT:          0  dtMISS:          0
cpu0_L2C WRITE        ACCESS:     246624  HIT:     101323  MISS:     145301  iACCESS:          0  iHIT:          0  iMISS:          0  dACCESS:     246624  dHIT:     101323  dMISS:     145301  itACCESS:          0  itHIT:          0  itMISS:          0  dtACCESS:          0  dtHIT:          0  dtMISS:          0
cpu0_L2C TRANSLATION  ACCESS:     226023  HIT:     143906  MISS:      82117  iACCESS:          0  iHIT:          0  iMISS:          0  dACCESS:          0  dHIT:          0  dMISS:          0  itACCESS:      21858  itHIT:       9578  itMISS:      12280  dtACCESS:     204165  dtHIT:     134328  dtMISS:      69837
cpu0_L2C PREFETCH  REQUESTED:    1327796  ISSUED:    1327796  CROSSED:          0  USEFUL:     327358  USELESS:     340255
cpu0_L2C AVERAGE iMISS LATENCY: 16.637 cycles
cpu0_L2C AVERAGE dMISS LATENCY: 33.4102 cycles
cpu0_L2C AVERAGE itMISS LATENCY: 0.330264 cycles
cpu0_L2C AVERAGE dtMISS LATENCY: 1.94477 cycles
cpu0_L2C PAGE CROSSINGS (TLB HIT):         0 
cpu0_L2C PAGE CROSSINGS (TLB MISS):         0 
cpu0_L2C AVERAGE MISS LATENCY: 52.3222 cycles
LLC TOTAL       ACCESS:    5334798  HIT:    4168752  MISS:    1166046  iACCESS:    1705611  iHIT:    1314591  iMISS:     391020  dACCESS:    3547070  dHIT:    2831619  dMISS:     715451  itACCESS:      12280  itHIT:       3444  itMISS:       8836  dtACCESS:      69837  dtHIT:      19098  dtMISS:      50739
LLC LOAD         ACCESS:    2183836  HIT:    1928124  MISS:     255712  iACCESS:     422528  iHIT:     342639  iMISS:      79889  dACCESS:    1761308  dHIT:    1585485  dMISS:     175823  itACCESS:          0  itHIT:          0  itMISS:          0  dtACCESS:          0  dtHIT:          0  dtMISS:          0
LLC RFO          ACCESS:     143367  HIT:      92155  MISS:      51212  iACCESS:          0  iHIT:          0  iMISS:          0  dACCESS:     143367  dHIT:      92155  dMISS:      51212  itACCESS:          0  itHIT:          0  itMISS:          0  dtACCESS:          0  dtHIT:          0  dtMISS:          0
LLC PREFETCH     ACCESS:    2739676  HIT:    1942626  MISS:     797050  iACCESS:    1283083  iHIT:     971952  iMISS:     311131  dACCESS:    1456593  dHIT:     970674  dMISS:     485919  itACCESS:          0  itHIT:          0  itMISS:          0  dtACCESS:          0  dtHIT:          0  dtMISS:          0
LLC WRITE        ACCESS:     185802  HIT:     183305  MISS:       2497  iACCESS:          0  iHIT:          0  iMISS:          0  dACCESS:     185802  dHIT:     183305  dMISS:       2497  itACCESS:          0  itHIT:          0  itMISS:          0  dtACCESS:          0  dtHIT:          0  dtMISS:          0
LLC TRANSLATION  ACCESS:      82117  HIT:      22542  MISS:      59575  iACCESS:          0  iHIT:          0  iMISS:          0  dACCESS:          0  dHIT:          0  dMISS:          0  itACCESS:      12280  itHIT:       3444  itMISS:       8836  dtACCESS:      69837  dtHIT:      19098  dtMISS:      50739
LLC PREFETCH  REQUESTED:          0  ISSUED:          0  CROSSED:          0  USEFUL:          0  USELESS:          0
LLC AVERAGE iMISS LATENCY: 49.3077 cycles
LLC AVERAGE dMISS LATENCY: 100.74 cycles
LLC AVERAGE itMISS LATENCY: 1.33373 cycles
LLC AVERAGE dtMISS LATENCY: 7.89404 cycles
LLC PAGE CROSSINGS (TLB HIT):         0 
LLC PAGE CROSSINGS (TLB MISS):         0 
LLC AVERAGE MISS LATENCY: 159.275 cycles

PageTableWalker TOTAL       ACCESS:      78385  
PageTableWalker AVERAGE LATENCY: 4.26041 cycles
PageTableWalker TOTAL LATENCY: 333952 cycles

DRAM Statistics
Channel 0
 RQ ROW_BUFFER_HIT:     320760
  ROW_BUFFER_MISS:     834342
 AVG DBUS CONGESTED CYCLE:    3.63457
 WQ ROW_BUFFER_HIT:      30202
  ROW_BUFFER_MISS:      29747  FULL:          0

