last_page:0x200000000000000
VMEM_RES_CAP:0x100000
PAGE_SIZE:4096
LOG2_PAGE_SIZE:12
LOG2_PAGE_TABLE_SIZE:9
page_table_levels:5
WARNING: physical memory size is smaller than virtual memory size
FDiP enabled with aggresivity 16

*** ChampSim Multicore Out-of-Order Simulator ***

Warmup Instructions: 50000000
Simulation Instructions: 100000000
Number of CPUs: 1
Small page size: 4096
Large page size: 2097152

CPU 0 Bimodal branch predictor
Basic BTB sets: 1024 ways: 8 indirect buffer size: 4096 RAS size: 64
Instruction page size distrubution: 0
Loading instruction page size distribution from /home/bsc/bsc018186/scratch/itp_asplos25_AE/dump/srv171_ap.pdst
Data page size distrubution: 0
Loading data page size distribution from /home/bsc/bsc018186/scratch/itp_asplos25_AE/dump/srv171_ap.pdst
cpu0_L2C IP-based stride prefetcher
cpu0_L2C is using PTP replacement policy:
	TLB_STRESS_THRESHOLD:0
	PTE_EVICTION_RATIO:0
cpu0_L1D next line prefetcher
cpu0_L1I next line prefetcher
Off-chip DRAM Size: 4 GiB Channels: 1 Width: 64-bit Data Rate: 3200 MT/s
Heartbeat CPU 0 instructions: 10000001 cycles: 2502063 heartbeat IPC: 3.99671 cumulative IPC: 3.99671 (Simulation time: 0 hr 0 min 38 sec) 
Heartbeat CPU 0 instructions: 20000002 cycles: 5002257 heartbeat IPC: 3.9997 cumulative IPC: 3.9982 (Simulation time: 0 hr 1 min 18 sec) 
Heartbeat CPU 0 instructions: 30000002 cycles: 7502443 heartbeat IPC: 3.99971 cumulative IPC: 3.9987 (Simulation time: 0 hr 1 min 58 sec) 
Heartbeat CPU 0 instructions: 40000002 cycles: 10002504 heartbeat IPC: 3.99991 cumulative IPC: 3.999 (Simulation time: 0 hr 2 min 39 sec) 
Heartbeat CPU 0 instructions: 50000003 cycles: 12502505 heartbeat IPC: 4 cumulative IPC: 3.9992 (Simulation time: 0 hr 3 min 20 sec) 
Warmup finished CPU 0 instructions: 50000003 cycles: 12502506 cumulative IPC: 3.9992 (Simulation time: 0 hr 3 min 20 sec) 

Warmup complete CPU 0 instructions: 50000003 cycles: 12502506 (Simulation time: 0 hr 3 min 20 sec) 

Heartbeat CPU 0 instructions: 60000001 cycles: 26604912 heartbeat IPC: 0.709099 cumulative IPC: 0.709099 (Simulation time: 0 hr 4 min 23 sec) 
Heartbeat CPU 0 instructions: 70000004 cycles: 40691095 heartbeat IPC: 0.709916 cumulative IPC: 0.709507 (Simulation time: 0 hr 5 min 27 sec) 
Heartbeat CPU 0 instructions: 80000003 cycles: 55384063 heartbeat IPC: 0.680598 cumulative IPC: 0.699602 (Simulation time: 0 hr 6 min 32 sec) 
Heartbeat CPU 0 instructions: 90000000 cycles: 69574088 heartbeat IPC: 0.704721 cumulative IPC: 0.700875 (Simulation time: 0 hr 7 min 35 sec) 
Heartbeat CPU 0 instructions: 100000004 cycles: 84111560 heartbeat IPC: 0.687878 cumulative IPC: 0.698236 (Simulation time: 0 hr 8 min 40 sec) 
*** Reached end of trace: /gpfs/projects/bsc18/MN4/bsc18/romol/ChampSim/traces/qualcomm_srv/srv171_ap.champsimtrace.xz
Heartbeat CPU 0 instructions: 110000003 cycles: 98731301 heartbeat IPC: 0.684007 cumulative IPC: 0.695824 (Simulation time: 0 hr 9 min 44 sec) 
Heartbeat CPU 0 instructions: 120000003 cycles: 113709915 heartbeat IPC: 0.667619 cumulative IPC: 0.691649 (Simulation time: 0 hr 10 min 48 sec) 
Heartbeat CPU 0 instructions: 130000002 cycles: 128000747 heartbeat IPC: 0.69975 cumulative IPC: 0.692652 (Simulation time: 0 hr 11 min 52 sec) 
Heartbeat CPU 0 instructions: 140000004 cycles: 141645892 heartbeat IPC: 0.732862 cumulative IPC: 0.6969 (Simulation time: 0 hr 12 min 56 sec) 
Heartbeat CPU 0 instructions: 150000003 cycles: 155792910 heartbeat IPC: 0.706863 cumulative IPC: 0.697884 (Simulation time: 0 hr 13 min 59 sec) 
Simulation finished CPU 0 instructions: 100000000 cycles: 143290405 cumulative IPC: 0.697884 (Simulation time: 0 hr 13 min 59 sec) 

Simulation complete CPU 0 instructions: 100000000 cycles: 143290405 (Simulation time: 0 hr 13 min 59 sec) 


ChampSim completed all CPUs

Saving instructions large page distribution to /home/bsc/bsc018186/scratch/itp_asplos25_AE/dump/srv171_ap.pdst...
Saving data large page distribution to /home/bsc/bsc018186/scratch/itp_asplos25_AE/dump/srv171_ap.pdst...
=== Simulation ===
CPU 0 runs /gpfs/projects/bsc18/MN4/bsc18/romol/ChampSim/traces/qualcomm_srv/srv171_ap.champsimtrace.xz

Region of Interest Statistics

CPU 0 cumulative IPC: 0.697884 instructions: 100000000 cycles: 143290405
CPU 0 Branch Prediction Accuracy: 83.3635% MPKI: 29.7299 Average ROB Occupancy at Mispredict: 12.32
Branch type MPKI
BRANCH_DIRECT_JUMP: 1.02616
BRANCH_INDIRECT: 15.295
BRANCH_CONDITIONAL: 9.72303
BRANCH_DIRECT_CALL: 1.84628
BRANCH_INDIRECT_CALL: 0.506001
BRANCH_RETURN: 1.33346

Instructions large pages: 0
Instructions small pages: 1107
Large page distribution for instructions: 0%

Data large pages: 0
Data small pages: 10526
Large page distribution for data: 0%

cpu0_L1I TOTAL       ACCESS:   35118681  HIT:   26812823  MISS:    8305858  iACCESS:   35118681  iHIT:   26812823  iMISS:    8305858  dACCESS:          0  dHIT:          0  dMISS:          0  itACCESS:          0  itHIT:          0  itMISS:          0  dtACCESS:          0  dtHIT:          0  dtMISS:          0
cpu0_L1I LOAD         ACCESS:   10295188  HIT:    7973181  MISS:    2322007  iACCESS:   10295188  iHIT:    7973181  iMISS:    2322007  dACCESS:          0  dHIT:          0  dMISS:          0  itACCESS:          0  itHIT:          0  itMISS:          0  dtACCESS:          0  dtHIT:          0  dtMISS:          0
cpu0_L1I RFO          ACCESS:          0  HIT:          0  MISS:          0  iACCESS:          0  iHIT:          0  iMISS:          0  dACCESS:          0  dHIT:          0  dMISS:          0  itACCESS:          0  itHIT:          0  itMISS:          0  dtACCESS:          0  dtHIT:          0  dtMISS:          0
cpu0_L1I PREFETCH     ACCESS:   24823493  HIT:   18839642  MISS:    5983851  iACCESS:   24823493  iHIT:   18839642  iMISS:    5983851  dACCESS:          0  dHIT:          0  dMISS:          0  itACCESS:          0  itHIT:          0  itMISS:          0  dtACCESS:          0  dtHIT:          0  dtMISS:          0
cpu0_L1I WRITE        ACCESS:          0  HIT:          0  MISS:          0  iACCESS:          0  iHIT:          0  iMISS:          0  dACCESS:          0  dHIT:          0  dMISS:          0  itACCESS:          0  itHIT:          0  itMISS:          0  dtACCESS:          0  dtHIT:          0  dtMISS:          0
cpu0_L1I TRANSLATION  ACCESS:          0  HIT:          0  MISS:          0  iACCESS:          0  iHIT:          0  iMISS:          0  dACCESS:          0  dHIT:          0  dMISS:          0  itACCESS:          0  itHIT:          0  itMISS:          0  dtACCESS:          0  dtHIT:          0  dtMISS:          0
cpu0_L1I PREFETCH  REQUESTED:   27153151  ISSUED:   27151333  CROSSED:          0  USEFUL:    1880606  USELESS:     618883
cpu0_L1I AVERAGE iMISS LATENCY: 14.3313 cycles
cpu0_L1I AVERAGE dMISS LATENCY: 0 cycles
cpu0_L1I AVERAGE itMISS LATENCY: 0 cycles
cpu0_L1I AVERAGE dtMISS LATENCY: 0 cycles
cpu0_L1I PAGE CROSSINGS (TLB HIT):         0 
cpu0_L1I PAGE CROSSINGS (TLB MISS):         0 
cpu0_L1I AVERAGE MISS LATENCY: 14.3313 cycles
cpu0_ITLB TOTAL       ACCESS:   29039786  HIT:   27089840  MISS:    1949946  iACCESS:   29039786  iHIT:   27089840  iMISS:    1949946  dACCESS:          0  dHIT:          0  dMISS:          0  itACCESS:          0  itHIT:          0  itMISS:          0  dtACCESS:          0  dtHIT:          0  dtMISS:          0
cpu0_ITLB LOAD         ACCESS:   29039786  HIT:   27089840  MISS:    1949946  iACCESS:   29039786  iHIT:   27089840  iMISS:    1949946  dACCESS:          0  dHIT:          0  dMISS:          0  itACCESS:          0  itHIT:          0  itMISS:          0  dtACCESS:          0  dtHIT:          0  dtMISS:          0
cpu0_ITLB RFO          ACCESS:          0  HIT:          0  MISS:          0  iACCESS:          0  iHIT:          0  iMISS:          0  dACCESS:          0  dHIT:          0  dMISS:          0  itACCESS:          0  itHIT:          0  itMISS:          0  dtACCESS:          0  dtHIT:          0  dtMISS:          0
cpu0_ITLB PREFETCH     ACCESS:          0  HIT:          0  MISS:          0  iACCESS:          0  iHIT:          0  iMISS:          0  dACCESS:          0  dHIT:          0  dMISS:          0  itACCESS:          0  itHIT:          0  itMISS:          0  dtACCESS:          0  dtHIT:          0  dtMISS:          0
cpu0_ITLB WRITE        ACCESS:          0  HIT:          0  MISS:          0  iACCESS:          0  iHIT:          0  iMISS:          0  dACCESS:          0  dHIT:          0  dMISS:          0  itACCESS:          0  itHIT:          0  itMISS:          0  dtACCESS:          0  dtHIT:          0  dtMISS:          0
cpu0_ITLB TRANSLATION  ACCESS:          0  HIT:          0  MISS:          0  iACCESS:          0  iHIT:          0  iMISS:          0  dACCESS:          0  dHIT:          0  dMISS:          0  itACCESS:          0  itHIT:          0  itMISS:          0  dtACCESS:          0  dtHIT:          0  dtMISS:          0
cpu0_ITLB PREFETCH  REQUESTED:          0  ISSUED:          0  CROSSED:          0  USEFUL:     318160  USELESS:      65609
cpu0_ITLB AVERAGE iMISS LATENCY: 2.96309 cycles
cpu0_ITLB AVERAGE dMISS LATENCY: 0 cycles
cpu0_ITLB AVERAGE itMISS LATENCY: 0 cycles
cpu0_ITLB AVERAGE dtMISS LATENCY: 0 cycles
cpu0_ITLB PAGE CROSSINGS (TLB HIT):         0 
cpu0_ITLB PAGE CROSSINGS (TLB MISS):         0 
cpu0_ITLB AVERAGE MISS LATENCY: 2.96309 cycles
cpu0_DTLB TOTAL       ACCESS:   27716203  HIT:   25654849  MISS:    2061354  iACCESS:          0  iHIT:          0  iMISS:          0  dACCESS:   27716203  dHIT:   25654849  dMISS:    2061354  itACCESS:          0  itHIT:          0  itMISS:          0  dtACCESS:          0  dtHIT:          0  dtMISS:          0
cpu0_DTLB LOAD         ACCESS:   27716203  HIT:   25654849  MISS:    2061354  iACCESS:          0  iHIT:          0  iMISS:          0  dACCESS:   27716203  dHIT:   25654849  dMISS:    2061354  itACCESS:          0  itHIT:          0  itMISS:          0  dtACCESS:          0  dtHIT:          0  dtMISS:          0
cpu0_DTLB RFO          ACCESS:          0  HIT:          0  MISS:          0  iACCESS:          0  iHIT:          0  iMISS:          0  dACCESS:          0  dHIT:          0  dMISS:          0  itACCESS:          0  itHIT:          0  itMISS:          0  dtACCESS:          0  dtHIT:          0  dtMISS:          0
cpu0_DTLB PREFETCH     ACCESS:          0  HIT:          0  MISS:          0  iACCESS:          0  iHIT:          0  iMISS:          0  dACCESS:          0  dHIT:          0  dMISS:          0  itACCESS:          0  itHIT:          0  itMISS:          0  dtACCESS:          0  dtHIT:          0  dtMISS:          0
cpu0_DTLB WRITE        ACCESS:          0  HIT:          0  MISS:          0  iACCESS:          0  iHIT:          0  iMISS:          0  dACCESS:          0  dHIT:          0  dMISS:          0  itACCESS:          0  itHIT:          0  itMISS:          0  dtACCESS:          0  dtHIT:          0  dtMISS:          0
cpu0_DTLB TRANSLATION  ACCESS:          0  HIT:          0  MISS:          0  iACCESS:          0  iHIT:          0  iMISS:          0  dACCESS:          0  dHIT:          0  dMISS:          0  itACCESS:          0  itHIT:          0  itMISS:          0  dtACCESS:          0  dtHIT:          0  dtMISS:          0
cpu0_DTLB PREFETCH  REQUESTED:          0  ISSUED:          0  CROSSED:          0  USEFUL:          0  USELESS:          0
cpu0_DTLB AVERAGE iMISS LATENCY: 0 cycles
cpu0_DTLB AVERAGE dMISS LATENCY: 9.08904 cycles
cpu0_DTLB AVERAGE itMISS LATENCY: 0 cycles
cpu0_DTLB AVERAGE dtMISS LATENCY: 0 cycles
cpu0_DTLB PAGE CROSSINGS (TLB HIT):         0 
cpu0_DTLB PAGE CROSSINGS (TLB MISS):         0 
cpu0_DTLB AVERAGE MISS LATENCY: 9.08904 cycles
cpu0_STLB TOTAL       ACCESS:    1609996  HIT:    1434142  MISS:     175854  iACCESS:     383792  iHIT:     319725  iMISS:      64067  dACCESS:    1226204  dHIT:    1114417  dMISS:     111787  itACCESS:          0  itHIT:          0  itMISS:          0  dtACCESS:          0  dtHIT:          0  dtMISS:          0
cpu0_STLB LOAD         ACCESS:    1609996  HIT:    1434142  MISS:     175854  iACCESS:     383792  iHIT:     319725  iMISS:      64067  dACCESS:    1226204  dHIT:    1114417  dMISS:     111787  itACCESS:          0  itHIT:          0  itMISS:          0  dtACCESS:          0  dtHIT:          0  dtMISS:          0
cpu0_STLB RFO          ACCESS:          0  HIT:          0  MISS:          0  iACCESS:          0  iHIT:          0  iMISS:          0  dACCESS:          0  dHIT:          0  dMISS:          0  itACCESS:          0  itHIT:          0  itMISS:          0  dtACCESS:          0  dtHIT:          0  dtMISS:          0
cpu0_STLB PREFETCH     ACCESS:          0  HIT:          0  MISS:          0  iACCESS:          0  iHIT:          0  iMISS:          0  dACCESS:          0  dHIT:          0  dMISS:          0  itACCESS:          0  itHIT:          0  itMISS:          0  dtACCESS:          0  dtHIT:          0  dtMISS:          0
cpu0_STLB WRITE        ACCESS:          0  HIT:          0  MISS:          0  iACCESS:          0  iHIT:          0  iMISS:          0  dACCESS:          0  dHIT:          0  dMISS:          0  itACCESS:          0  itHIT:          0  itMISS:          0  dtACCESS:          0  dtHIT:          0  dtMISS:          0
cpu0_STLB TRANSLATION  ACCESS:          0  HIT:          0  MISS:          0  iACCESS:          0  iHIT:          0  iMISS:          0  dACCESS:          0  dHIT:          0  dMISS:          0  itACCESS:          0  itHIT:          0  itMISS:          0  dtACCESS:          0  dtHIT:          0  dtMISS:          0
cpu0_STLB PREFETCH  REQUESTED:          0  ISSUED:          0  CROSSED:          0  USEFUL:          0  USELESS:          0
cpu0_STLB AVERAGE iMISS LATENCY: 15.5867 cycles
cpu0_STLB AVERAGE dMISS LATENCY: 50.9605 cycles
cpu0_STLB AVERAGE itMISS LATENCY: 0 cycles
cpu0_STLB AVERAGE dtMISS LATENCY: 0 cycles
cpu0_STLB PAGE CROSSINGS (TLB HIT):         0 
cpu0_STLB PAGE CROSSINGS (TLB MISS):         0 
cpu0_STLB AVERAGE MISS LATENCY: 66.5472 cycles
cpu0_L1D TOTAL       ACCESS:   41647401  HIT:   38008236  MISS:    3639165  iACCESS:          0  iHIT:          0  iMISS:          0  dACCESS:   41404966  dHIT:   37985985  dMISS:    3418981  itACCESS:      69609  itHIT:      10185  itMISS:      59424  dtACCESS:     172826  dtHIT:      12066  dtMISS:     160760
cpu0_L1D LOAD         ACCESS:   18976370  HIT:   17430598  MISS:    1545772  iACCESS:          0  iHIT:          0  iMISS:          0  dACCESS:   18976370  dHIT:   17430598  dMISS:    1545772  itACCESS:          0  itHIT:          0  itMISS:          0  dtACCESS:          0  dtHIT:          0  dtMISS:          0
cpu0_L1D RFO          ACCESS:          0  HIT:          0  MISS:          0  iACCESS:          0  iHIT:          0  iMISS:          0  dACCESS:          0  dHIT:          0  dMISS:          0  itACCESS:          0  itHIT:          0  itMISS:          0  dtACCESS:          0  dtHIT:          0  dtMISS:          0
cpu0_L1D PREFETCH     ACCESS:   12241213  HIT:   10816952  MISS:    1424261  iACCESS:          0  iHIT:          0  iMISS:          0  dACCESS:   12241213  dHIT:   10816952  dMISS:    1424261  itACCESS:          0  itHIT:          0  itMISS:          0  dtACCESS:          0  dtHIT:          0  dtMISS:          0
cpu0_L1D WRITE        ACCESS:   10187383  HIT:    9738435  MISS:     448948  iACCESS:          0  iHIT:          0  iMISS:          0  dACCESS:   10187383  dHIT:    9738435  dMISS:     448948  itACCESS:          0  itHIT:          0  itMISS:          0  dtACCESS:          0  dtHIT:          0  dtMISS:          0
cpu0_L1D TRANSLATION  ACCESS:     242435  HIT:      22251  MISS:     220184  iACCESS:          0  iHIT:          0  iMISS:          0  dACCESS:          0  dHIT:          0  dMISS:          0  itACCESS:      69609  itHIT:      10185  itMISS:      59424  dtACCESS:     172826  dtHIT:      12066  dtMISS:     160760
cpu0_L1D PREFETCH  REQUESTED:   18976370  ISSUED:   17065898  CROSSED:          0  USEFUL:     304861  USELESS:     693701
cpu0_L1D AVERAGE iMISS LATENCY: 0 cycles
cpu0_L1D AVERAGE dMISS LATENCY: 35.2653 cycles
cpu0_L1D AVERAGE itMISS LATENCY: 0.601221 cycles
cpu0_L1D AVERAGE dtMISS LATENCY: 1.75171 cycles
cpu0_L1D PAGE CROSSINGS (TLB HIT):         0 
cpu0_L1D PAGE CROSSINGS (TLB MISS):         0 
cpu0_L1D AVERAGE MISS LATENCY: 37.6182 cycles
cpu0_L2C TOTAL       ACCESS:    6888540  HIT:    1203053  MISS:    5685487  iACCESS:    3241449  iHIT:     673718  iMISS:    2567731  dACCESS:    3439667  dHIT:     364299  dMISS:    3075368  itACCESS:      59414  itHIT:      47528  itMISS:      11886  dtACCESS:     148010  dtHIT:     117508  dtMISS:      30502
cpu0_L2C LOAD         ACCESS:    1698161  HIT:     137202  MISS:    1560959  iACCESS:     775402  iHIT:     101232  iMISS:     674170  dACCESS:     922759  dHIT:      35970  dMISS:     886789  itACCESS:          0  itHIT:          0  itMISS:          0  dtACCESS:          0  dtHIT:          0  dtMISS:          0
cpu0_L2C RFO          ACCESS:     156602  HIT:       9384  MISS:     147218  iACCESS:          0  iHIT:          0  iMISS:          0  dACCESS:     156602  dHIT:       9384  dMISS:     147218  itACCESS:          0  itHIT:          0  itMISS:          0  dtACCESS:          0  dtHIT:          0  dtMISS:          0
cpu0_L2C PREFETCH     ACCESS:    4543969  HIT:     836020  MISS:    3707949  iACCESS:    2466047  iHIT:     572486  iMISS:    1893561  dACCESS:    2077922  dHIT:     263534  dMISS:    1814388  itACCESS:          0  itHIT:          0  itMISS:          0  dtACCESS:          0  dtHIT:          0  dtMISS:          0
cpu0_L2C WRITE        ACCESS:     282384  HIT:      55411  MISS:     226973  iACCESS:          0  iHIT:          0  iMISS:          0  dACCESS:     282384  dHIT:      55411  dMISS:     226973  itACCESS:          0  itHIT:          0  itMISS:          0  dtACCESS:          0  dtHIT:          0  dtMISS:          0
cpu0_L2C TRANSLATION  ACCESS:     207424  HIT:     165036  MISS:      42388  iACCESS:          0  iHIT:          0  iMISS:          0  dACCESS:          0  dHIT:          0  dMISS:          0  itACCESS:      59414  itHIT:      47528  itMISS:      11886  dtACCESS:     148010  dtHIT:     117508  dtMISS:      30502
cpu0_L2C PREFETCH  REQUESTED:    1327674  ISSUED:    1327674  CROSSED:          0  USEFUL:     406368  USELESS:     385396
cpu0_L2C AVERAGE iMISS LATENCY: 15.694 cycles
cpu0_L2C AVERAGE dMISS LATENCY: 26.2841 cycles
cpu0_L2C AVERAGE itMISS LATENCY: 0.288477 cycles
cpu0_L2C AVERAGE dtMISS LATENCY: 0.880285 cycles
cpu0_L2C PAGE CROSSINGS (TLB HIT):         0 
cpu0_L2C PAGE CROSSINGS (TLB MISS):         0 
cpu0_L2C AVERAGE MISS LATENCY: 43.1469 cycles
LLC TOTAL       ACCESS:    5601375  HIT:    4707846  MISS:     893529  iACCESS:    2513226  iHIT:    2234555  iMISS:     278671  dACCESS:    3045761  dHIT:    2463721  dMISS:     582040  itACCESS:      11886  itHIT:       3740  itMISS:       8146  dtACCESS:      30502  dtHIT:       5830  dtMISS:      24672
LLC LOAD         ACCESS:    1558730  HIT:    1350610  MISS:     208120  iACCESS:     673004  iHIT:     616325  iMISS:      56679  dACCESS:     885726  dHIT:     734285  dMISS:     151441  itACCESS:          0  itHIT:          0  itMISS:          0  dtACCESS:          0  dtHIT:          0  dtMISS:          0
LLC RFO          ACCESS:     147218  HIT:     105568  MISS:      41650  iACCESS:          0  iHIT:          0  iMISS:          0  dACCESS:     147218  dHIT:     105568  dMISS:      41650  itACCESS:          0  itHIT:          0  itMISS:          0  dtACCESS:          0  dtHIT:          0  dtMISS:          0
LLC PREFETCH     ACCESS:    3597057  HIT:    2986116  MISS:     610941  iACCESS:    1840222  iHIT:    1618230  iMISS:     221992  dACCESS:    1756835  dHIT:    1367886  dMISS:     388949  itACCESS:          0  itHIT:          0  itMISS:          0  dtACCESS:          0  dtHIT:          0  dtMISS:          0
LLC WRITE        ACCESS:     255982  HIT:     255982  MISS:          0  iACCESS:          0  iHIT:          0  iMISS:          0  dACCESS:     255982  dHIT:     255982  dMISS:          0  itACCESS:          0  itHIT:          0  itMISS:          0  dtACCESS:          0  dtHIT:          0  dtMISS:          0
LLC TRANSLATION  ACCESS:      42388  HIT:       9570  MISS:      32818  iACCESS:          0  iHIT:          0  iMISS:          0  dACCESS:          0  dHIT:          0  dMISS:          0  itACCESS:      11886  itHIT:       3740  itMISS:       8146  dtACCESS:      30502  dtHIT:       5830  dtMISS:      24672
LLC PREFETCH  REQUESTED:          0  ISSUED:          0  CROSSED:          0  USEFUL:          0  USELESS:          0
LLC AVERAGE iMISS LATENCY: 45.5855 cycles
LLC AVERAGE dMISS LATENCY: 107.082 cycles
LLC AVERAGE itMISS LATENCY: 1.57423 cycles
LLC AVERAGE dtMISS LATENCY: 4.92837 cycles
LLC PAGE CROSSINGS (TLB HIT):         0 
LLC PAGE CROSSINGS (TLB MISS):         0 
LLC AVERAGE MISS LATENCY: 159.17 cycles

PageTableWalker TOTAL       ACCESS:      87137  
PageTableWalker AVERAGE LATENCY: 4.25039 cycles
PageTableWalker TOTAL LATENCY: 370366 cycles

DRAM Statistics
Channel 0
 RQ ROW_BUFFER_HIT:     259120
  ROW_BUFFER_MISS:     633644
 AVG DBUS CONGESTED CYCLE:     3.6448
 WQ ROW_BUFFER_HIT:      22424
  ROW_BUFFER_MISS:      30905  FULL:          0

