last_page:0x200000000000000
VMEM_RES_CAP:0x100000
PAGE_SIZE:4096
LOG2_PAGE_SIZE:12
LOG2_PAGE_TABLE_SIZE:9
page_table_levels:5
WARNING: physical memory size is smaller than virtual memory size
FDiP enabled with aggresivity 16

*** ChampSim Multicore Out-of-Order Simulator ***

Warmup Instructions: 50000000
Simulation Instructions: 100000000
Number of CPUs: 1
Small page size: 4096
Large page size: 2097152

CPU 0 Bimodal branch predictor
Basic BTB sets: 1024 ways: 8 indirect buffer size: 4096 RAS size: 64
Instruction page size distrubution: 0
Loading instruction page size distribution from /home/bsc/bsc018186/scratch/itp_asplos25_AE/dump/srv194_ap.pdst
Data page size distrubution: 0
Loading data page size distribution from /home/bsc/bsc018186/scratch/itp_asplos25_AE/dump/srv194_ap.pdst
cpu0_L2C IP-based stride prefetcher
cpu0_L1D next line prefetcher
CHiRPing...
cpu0_L1I next line prefetcher
Off-chip DRAM Size: 4 GiB Channels: 1 Width: 64-bit Data Rate: 3200 MT/s
Heartbeat CPU 0 instructions: 10000003 cycles: 2500221 heartbeat IPC: 3.99965 cumulative IPC: 3.99965 (Simulation time: 0 hr 0 min 39 sec) 
Heartbeat CPU 0 instructions: 20000002 cycles: 5001680 heartbeat IPC: 3.99767 cumulative IPC: 3.99866 (Simulation time: 0 hr 1 min 20 sec) 
Heartbeat CPU 0 instructions: 30000002 cycles: 7883958 heartbeat IPC: 3.46948 cumulative IPC: 3.8052 (Simulation time: 0 hr 2 min 0 sec) 
Heartbeat CPU 0 instructions: 40000001 cycles: 10540045 heartbeat IPC: 3.76494 cumulative IPC: 3.79506 (Simulation time: 0 hr 2 min 42 sec) 
Heartbeat CPU 0 instructions: 50000003 cycles: 13040294 heartbeat IPC: 3.99961 cumulative IPC: 3.83427 (Simulation time: 0 hr 3 min 25 sec) 
Warmup finished CPU 0 instructions: 50000003 cycles: 13040295 cumulative IPC: 3.83427 (Simulation time: 0 hr 3 min 25 sec) 

Warmup complete CPU 0 instructions: 50000003 cycles: 13040295 (Simulation time: 0 hr 3 min 25 sec) 

Heartbeat CPU 0 instructions: 60000004 cycles: 36202135 heartbeat IPC: 0.431745 cumulative IPC: 0.431745 (Simulation time: 0 hr 4 min 41 sec) 
Heartbeat CPU 0 instructions: 70000001 cycles: 60288681 heartbeat IPC: 0.41517 cumulative IPC: 0.423295 (Simulation time: 0 hr 6 min 0 sec) 
Heartbeat CPU 0 instructions: 80000003 cycles: 77031453 heartbeat IPC: 0.597273 cumulative IPC: 0.468815 (Simulation time: 0 hr 7 min 8 sec) 
Heartbeat CPU 0 instructions: 90000001 cycles: 86724184 heartbeat IPC: 1.03171 cumulative IPC: 0.54286 (Simulation time: 0 hr 8 min 4 sec) 
Heartbeat CPU 0 instructions: 100000002 cycles: 108847214 heartbeat IPC: 0.452018 cumulative IPC: 0.521883 (Simulation time: 0 hr 9 min 18 sec) 
*** Reached end of trace: /gpfs/projects/bsc18/MN4/bsc18/romol/ChampSim/traces/qualcomm_srv/srv194_ap.champsimtrace.xz
Heartbeat CPU 0 instructions: 110000004 cycles: 132355535 heartbeat IPC: 0.425382 cumulative IPC: 0.50287 (Simulation time: 0 hr 10 min 35 sec) 
Heartbeat CPU 0 instructions: 120000000 cycles: 155646370 heartbeat IPC: 0.429354 cumulative IPC: 0.490863 (Simulation time: 0 hr 11 min 52 sec) 
Heartbeat CPU 0 instructions: 130000001 cycles: 166823153 heartbeat IPC: 0.894712 cumulative IPC: 0.520215 (Simulation time: 0 hr 12 min 50 sec) 
Heartbeat CPU 0 instructions: 140000001 cycles: 179117649 heartbeat IPC: 0.813373 cumulative IPC: 0.541917 (Simulation time: 0 hr 13 min 52 sec) 
Heartbeat CPU 0 instructions: 150000003 cycles: 202979578 heartbeat IPC: 0.419078 cumulative IPC: 0.526485 (Simulation time: 0 hr 15 min 10 sec) 
Simulation finished CPU 0 instructions: 100000000 cycles: 189939284 cumulative IPC: 0.526485 (Simulation time: 0 hr 15 min 10 sec) 

Simulation complete CPU 0 instructions: 100000000 cycles: 189939284 (Simulation time: 0 hr 15 min 10 sec) 


ChampSim completed all CPUs

Saving instructions large page distribution to /home/bsc/bsc018186/scratch/itp_asplos25_AE/dump/srv194_ap.pdst...
Saving data large page distribution to /home/bsc/bsc018186/scratch/itp_asplos25_AE/dump/srv194_ap.pdst...
=== Simulation ===
CPU 0 runs /gpfs/projects/bsc18/MN4/bsc18/romol/ChampSim/traces/qualcomm_srv/srv194_ap.champsimtrace.xz

Region of Interest Statistics

CPU 0 cumulative IPC: 0.526485 instructions: 100000000 cycles: 189939284
CPU 0 Branch Prediction Accuracy: 84.5002% MPKI: 31.9989 Average ROB Occupancy at Mispredict: 11.9684
Branch type MPKI
BRANCH_DIRECT_JUMP: 1.09387
BRANCH_INDIRECT: 16.0702
BRANCH_CONDITIONAL: 10.3626
BRANCH_DIRECT_CALL: 2.03251
BRANCH_INDIRECT_CALL: 1.02918
BRANCH_RETURN: 1.41064

Instructions large pages: 0
Instructions small pages: 1703
Large page distribution for instructions: 0%

Data large pages: 0
Data small pages: 5948
Large page distribution for data: 0%

cpu0_L1I TOTAL       ACCESS:   32675621  HIT:   26471053  MISS:    6204568  iACCESS:   32675621  iHIT:   26471053  iMISS:    6204568  dACCESS:          0  dHIT:          0  dMISS:          0  itACCESS:          0  itHIT:          0  itMISS:          0  dtACCESS:          0  dtHIT:          0  dtMISS:          0
cpu0_L1I LOAD         ACCESS:    7547447  HIT:    5822291  MISS:    1725156  iACCESS:    7547447  iHIT:    5822291  iMISS:    1725156  dACCESS:          0  dHIT:          0  dMISS:          0  itACCESS:          0  itHIT:          0  itMISS:          0  dtACCESS:          0  dtHIT:          0  dtMISS:          0
cpu0_L1I RFO          ACCESS:          0  HIT:          0  MISS:          0  iACCESS:          0  iHIT:          0  iMISS:          0  dACCESS:          0  dHIT:          0  dMISS:          0  itACCESS:          0  itHIT:          0  itMISS:          0  dtACCESS:          0  dtHIT:          0  dtMISS:          0
cpu0_L1I PREFETCH     ACCESS:   25128174  HIT:   20648762  MISS:    4479412  iACCESS:   25128174  iHIT:   20648762  iMISS:    4479412  dACCESS:          0  dHIT:          0  dMISS:          0  itACCESS:          0  itHIT:          0  itMISS:          0  dtACCESS:          0  dtHIT:          0  dtMISS:          0
cpu0_L1I WRITE        ACCESS:          0  HIT:          0  MISS:          0  iACCESS:          0  iHIT:          0  iMISS:          0  dACCESS:          0  dHIT:          0  dMISS:          0  itACCESS:          0  itHIT:          0  itMISS:          0  dtACCESS:          0  dtHIT:          0  dtMISS:          0
cpu0_L1I TRANSLATION  ACCESS:          0  HIT:          0  MISS:          0  iACCESS:          0  iHIT:          0  iMISS:          0  dACCESS:          0  dHIT:          0  dMISS:          0  itACCESS:          0  itHIT:          0  itMISS:          0  dtACCESS:          0  dtHIT:          0  dtMISS:          0
cpu0_L1I PREFETCH  REQUESTED:   26739835  ISSUED:   26739833  CROSSED:          0  USEFUL:    1525676  USELESS:     557104
cpu0_L1I AVERAGE iMISS LATENCY: 21.3301 cycles
cpu0_L1I AVERAGE dMISS LATENCY: 0 cycles
cpu0_L1I AVERAGE itMISS LATENCY: 0 cycles
cpu0_L1I AVERAGE dtMISS LATENCY: 0 cycles
cpu0_L1I PAGE CROSSINGS (TLB HIT):         0 
cpu0_L1I PAGE CROSSINGS (TLB MISS):         0 
cpu0_L1I AVERAGE MISS LATENCY: 21.3301 cycles
cpu0_ITLB TOTAL       ACCESS:   28011023  HIT:   26475484  MISS:    1535539  iACCESS:   28011023  iHIT:   26475484  iMISS:    1535539  dACCESS:          0  dHIT:          0  dMISS:          0  itACCESS:          0  itHIT:          0  itMISS:          0  dtACCESS:          0  dtHIT:          0  dtMISS:          0
cpu0_ITLB LOAD         ACCESS:   28011023  HIT:   26475484  MISS:    1535539  iACCESS:   28011023  iHIT:   26475484  iMISS:    1535539  dACCESS:          0  dHIT:          0  dMISS:          0  itACCESS:          0  itHIT:          0  itMISS:          0  dtACCESS:          0  dtHIT:          0  dtMISS:          0
cpu0_ITLB RFO          ACCESS:          0  HIT:          0  MISS:          0  iACCESS:          0  iHIT:          0  iMISS:          0  dACCESS:          0  dHIT:          0  dMISS:          0  itACCESS:          0  itHIT:          0  itMISS:          0  dtACCESS:          0  dtHIT:          0  dtMISS:          0
cpu0_ITLB PREFETCH     ACCESS:          0  HIT:          0  MISS:          0  iACCESS:          0  iHIT:          0  iMISS:          0  dACCESS:          0  dHIT:          0  dMISS:          0  itACCESS:          0  itHIT:          0  itMISS:          0  dtACCESS:          0  dtHIT:          0  dtMISS:          0
cpu0_ITLB WRITE        ACCESS:          0  HIT:          0  MISS:          0  iACCESS:          0  iHIT:          0  iMISS:          0  dACCESS:          0  dHIT:          0  dMISS:          0  itACCESS:          0  itHIT:          0  itMISS:          0  dtACCESS:          0  dtHIT:          0  dtMISS:          0
cpu0_ITLB TRANSLATION  ACCESS:          0  HIT:          0  MISS:          0  iACCESS:          0  iHIT:          0  iMISS:          0  dACCESS:          0  dHIT:          0  dMISS:          0  itACCESS:          0  itHIT:          0  itMISS:          0  dtACCESS:          0  dtHIT:          0  dtMISS:          0
cpu0_ITLB PREFETCH  REQUESTED:          0  ISSUED:          0  CROSSED:          0  USEFUL:     262839  USELESS:      54489
cpu0_ITLB AVERAGE iMISS LATENCY: 8.98812 cycles
cpu0_ITLB AVERAGE dMISS LATENCY: 0 cycles
cpu0_ITLB AVERAGE itMISS LATENCY: 0 cycles
cpu0_ITLB AVERAGE dtMISS LATENCY: 0 cycles
cpu0_ITLB PAGE CROSSINGS (TLB HIT):         0 
cpu0_ITLB PAGE CROSSINGS (TLB MISS):         0 
cpu0_ITLB AVERAGE MISS LATENCY: 8.98812 cycles
cpu0_DTLB TOTAL       ACCESS:   31834158  HIT:   25913559  MISS:    5920599  iACCESS:          0  iHIT:          0  iMISS:          0  dACCESS:   31834158  dHIT:   25913559  dMISS:    5920599  itACCESS:          0  itHIT:          0  itMISS:          0  dtACCESS:          0  dtHIT:          0  dtMISS:          0
cpu0_DTLB LOAD         ACCESS:   31834158  HIT:   25913559  MISS:    5920599  iACCESS:          0  iHIT:          0  iMISS:          0  dACCESS:   31834158  dHIT:   25913559  dMISS:    5920599  itACCESS:          0  itHIT:          0  itMISS:          0  dtACCESS:          0  dtHIT:          0  dtMISS:          0
cpu0_DTLB RFO          ACCESS:          0  HIT:          0  MISS:          0  iACCESS:          0  iHIT:          0  iMISS:          0  dACCESS:          0  dHIT:          0  dMISS:          0  itACCESS:          0  itHIT:          0  itMISS:          0  dtACCESS:          0  dtHIT:          0  dtMISS:          0
cpu0_DTLB PREFETCH     ACCESS:          0  HIT:          0  MISS:          0  iACCESS:          0  iHIT:          0  iMISS:          0  dACCESS:          0  dHIT:          0  dMISS:          0  itACCESS:          0  itHIT:          0  itMISS:          0  dtACCESS:          0  dtHIT:          0  dtMISS:          0
cpu0_DTLB WRITE        ACCESS:          0  HIT:          0  MISS:          0  iACCESS:          0  iHIT:          0  iMISS:          0  dACCESS:          0  dHIT:          0  dMISS:          0  itACCESS:          0  itHIT:          0  itMISS:          0  dtACCESS:          0  dtHIT:          0  dtMISS:          0
cpu0_DTLB TRANSLATION  ACCESS:          0  HIT:          0  MISS:          0  iACCESS:          0  iHIT:          0  iMISS:          0  dACCESS:          0  dHIT:          0  dMISS:          0  itACCESS:          0  itHIT:          0  itMISS:          0  dtACCESS:          0  dtHIT:          0  dtMISS:          0
cpu0_DTLB PREFETCH  REQUESTED:          0  ISSUED:          0  CROSSED:          0  USEFUL:          0  USELESS:          0
cpu0_DTLB AVERAGE iMISS LATENCY: 0 cycles
cpu0_DTLB AVERAGE dMISS LATENCY: 8.85057 cycles
cpu0_DTLB AVERAGE itMISS LATENCY: 0 cycles
cpu0_DTLB AVERAGE dtMISS LATENCY: 0 cycles
cpu0_DTLB PAGE CROSSINGS (TLB HIT):         0 
cpu0_DTLB PAGE CROSSINGS (TLB MISS):         0 
cpu0_DTLB AVERAGE MISS LATENCY: 8.85057 cycles
cpu0_STLB TOTAL       ACCESS:    3316190  HIT:    3111284  MISS:     204906  iACCESS:     317330  iHIT:     241418  iMISS:      75912  dACCESS:    2998860  dHIT:    2869866  dMISS:     128994  itACCESS:          0  itHIT:          0  itMISS:          0  dtACCESS:          0  dtHIT:          0  dtMISS:          0
cpu0_STLB LOAD         ACCESS:    3316190  HIT:    3111284  MISS:     204906  iACCESS:     317330  iHIT:     241418  iMISS:      75912  dACCESS:    2998860  dHIT:    2869866  dMISS:     128994  itACCESS:          0  itHIT:          0  itMISS:          0  dtACCESS:          0  dtHIT:          0  dtMISS:          0
cpu0_STLB RFO          ACCESS:          0  HIT:          0  MISS:          0  iACCESS:          0  iHIT:          0  iMISS:          0  dACCESS:          0  dHIT:          0  dMISS:          0  itACCESS:          0  itHIT:          0  itMISS:          0  dtACCESS:          0  dtHIT:          0  dtMISS:          0
cpu0_STLB PREFETCH     ACCESS:          0  HIT:          0  MISS:          0  iACCESS:          0  iHIT:          0  iMISS:          0  dACCESS:          0  dHIT:          0  dMISS:          0  itACCESS:          0  itHIT:          0  itMISS:          0  dtACCESS:          0  dtHIT:          0  dtMISS:          0
cpu0_STLB WRITE        ACCESS:          0  HIT:          0  MISS:          0  iACCESS:          0  iHIT:          0  iMISS:          0  dACCESS:          0  dHIT:          0  dMISS:          0  itACCESS:          0  itHIT:          0  itMISS:          0  dtACCESS:          0  dtHIT:          0  dtMISS:          0
cpu0_STLB TRANSLATION  ACCESS:          0  HIT:          0  MISS:          0  iACCESS:          0  iHIT:          0  iMISS:          0  dACCESS:          0  dHIT:          0  dMISS:          0  itACCESS:          0  itHIT:          0  itMISS:          0  dtACCESS:          0  dtHIT:          0  dtMISS:          0
cpu0_STLB PREFETCH  REQUESTED:          0  ISSUED:          0  CROSSED:          0  USEFUL:          0  USELESS:          0
cpu0_STLB AVERAGE iMISS LATENCY: 54.9681 cycles
cpu0_STLB AVERAGE dMISS LATENCY: 136.838 cycles
cpu0_STLB AVERAGE itMISS LATENCY: 0 cycles
cpu0_STLB AVERAGE dtMISS LATENCY: 0 cycles
cpu0_STLB PAGE CROSSINGS (TLB HIT):         0 
cpu0_STLB PAGE CROSSINGS (TLB MISS):         0 
cpu0_STLB AVERAGE MISS LATENCY: 191.806 cycles
cpu0_L1D TOTAL       ACCESS:   48409672  HIT:   40388277  MISS:    8021395  iACCESS:          0  iHIT:          0  iMISS:          0  dACCESS:   48132206  dHIT:   40364820  dMISS:    7767386  itACCESS:      83524  itHIT:      12411  itMISS:      71113  dtACCESS:     193942  dtHIT:      11046  dtMISS:     182896
cpu0_L1D LOAD         ACCESS:   24063307  HIT:   19085590  MISS:    4977717  iACCESS:          0  iHIT:          0  iMISS:          0  dACCESS:   24063307  dHIT:   19085590  dMISS:    4977717  itACCESS:          0  itHIT:          0  itMISS:          0  dtACCESS:          0  dtHIT:          0  dtMISS:          0
cpu0_L1D RFO          ACCESS:          0  HIT:          0  MISS:          0  iACCESS:          0  iHIT:          0  iMISS:          0  dACCESS:          0  dHIT:          0  dMISS:          0  itACCESS:          0  itHIT:          0  itMISS:          0  dtACCESS:          0  dtHIT:          0  dtMISS:          0
cpu0_L1D PREFETCH     ACCESS:   14403866  HIT:   12123956  MISS:    2279910  iACCESS:          0  iHIT:          0  iMISS:          0  dACCESS:   14403866  dHIT:   12123956  dMISS:    2279910  itACCESS:          0  itHIT:          0  itMISS:          0  dtACCESS:          0  dtHIT:          0  dtMISS:          0
cpu0_L1D WRITE        ACCESS:    9665033  HIT:    9155274  MISS:     509759  iACCESS:          0  iHIT:          0  iMISS:          0  dACCESS:    9665033  dHIT:    9155274  dMISS:     509759  itACCESS:          0  itHIT:          0  itMISS:          0  dtACCESS:          0  dtHIT:          0  dtMISS:          0
cpu0_L1D TRANSLATION  ACCESS:     277466  HIT:      23457  MISS:     254009  iACCESS:          0  iHIT:          0  iMISS:          0  dACCESS:          0  dHIT:          0  dMISS:          0  itACCESS:      83524  itHIT:      12411  itMISS:      71113  dtACCESS:     193942  dtHIT:      11046  dtMISS:     182896
cpu0_L1D PREFETCH  REQUESTED:   24063307  ISSUED:   18510829  CROSSED:          0  USEFUL:     238199  USELESS:     869714
cpu0_L1D AVERAGE iMISS LATENCY: 0 cycles
cpu0_L1D AVERAGE dMISS LATENCY: 24.6904 cycles
cpu0_L1D AVERAGE itMISS LATENCY: 1.31862 cycles
cpu0_L1D AVERAGE dtMISS LATENCY: 3.2569 cycles
cpu0_L1D PAGE CROSSINGS (TLB HIT):         0 
cpu0_L1D PAGE CROSSINGS (TLB MISS):         0 
cpu0_L1D AVERAGE MISS LATENCY: 29.266 cycles
cpu0_L2C TOTAL       ACCESS:    9057692  HIT:    6213512  MISS:    2844180  iACCESS:    2686340  iHIT:    1624213  iMISS:    1062127  dACCESS:    6141180  dHIT:    4556724  dMISS:    1584456  itACCESS:      69613  itHIT:      11469  itMISS:      58144  dtACCESS:     160559  dtHIT:      21106  dtMISS:     139453
cpu0_L2C LOAD         ACCESS:    4334907  HIT:    3679185  MISS:     655722  iACCESS:     628341  iHIT:     409759  iMISS:     218582  dACCESS:    3706566  dHIT:    3269426  dMISS:     437140  itACCESS:          0  itHIT:          0  itMISS:          0  dtACCESS:          0  dtHIT:          0  dtMISS:          0
cpu0_L2C RFO          ACCESS:     181471  HIT:      83877  MISS:      97594  iACCESS:          0  iHIT:          0  iMISS:          0  dACCESS:     181471  dHIT:      83877  dMISS:      97594  itACCESS:          0  itHIT:          0  itMISS:          0  dtACCESS:          0  dtHIT:          0  dtMISS:          0
cpu0_L2C PREFETCH     ACCESS:    4097454  HIT:    2205003  MISS:    1892451  iACCESS:    2057999  iHIT:    1214454  iMISS:     843545  dACCESS:    2039455  dHIT:     990549  dMISS:    1048906  itACCESS:          0  itHIT:          0  itMISS:          0  dtACCESS:          0  dtHIT:          0  dtMISS:          0
cpu0_L2C WRITE        ACCESS:     213688  HIT:     212872  MISS:        816  iACCESS:          0  iHIT:          0  iMISS:          0  dACCESS:     213688  dHIT:     212872  dMISS:        816  itACCESS:          0  itHIT:          0  itMISS:          0  dtACCESS:          0  dtHIT:          0  dtMISS:          0
cpu0_L2C TRANSLATION  ACCESS:     230172  HIT:      32575  MISS:     197597  iACCESS:          0  iHIT:          0  iMISS:          0  dACCESS:          0  dHIT:          0  dMISS:          0  itACCESS:      69613  itHIT:      11469  itMISS:      58144  dtACCESS:     160559  dtHIT:      21106  dtMISS:     139453
cpu0_L2C PREFETCH  REQUESTED:    1100280  ISSUED:    1100155  CROSSED:          0  USEFUL:     248583  USELESS:     228321
cpu0_L2C AVERAGE iMISS LATENCY: 38.3705 cycles
cpu0_L2C AVERAGE dMISS LATENCY: 69.0737 cycles
cpu0_L2C AVERAGE itMISS LATENCY: 3.47735 cycles
cpu0_L2C AVERAGE dtMISS LATENCY: 8.62478 cycles
cpu0_L2C PAGE CROSSINGS (TLB HIT):         0 
cpu0_L2C PAGE CROSSINGS (TLB MISS):         0 
cpu0_L2C AVERAGE MISS LATENCY: 119.547 cycles
LLC TOTAL       ACCESS:    2828269  HIT:    1085406  MISS:    1742863  iACCESS:    1005583  iHIT:     415346  iMISS:     590237  dACCESS:    1625089  dHIT:     635233  dMISS:     989856  itACCESS:      58144  itHIT:       8472  itMISS:      49672  dtACCESS:     139453  dtHIT:      26355  dtMISS:     113098
LLC LOAD         ACCESS:     649822  HIT:     258437  MISS:     391385  iACCESS:     217680  iHIT:      94148  iMISS:     123532  dACCESS:     432142  dHIT:     164289  dMISS:     267853  itACCESS:          0  itHIT:          0  itMISS:          0  dtACCESS:          0  dtHIT:          0  dtMISS:          0
LLC RFO          ACCESS:      97589  HIT:      30458  MISS:      67131  iACCESS:          0  iHIT:          0  iMISS:          0  dACCESS:      97589  dHIT:      30458  dMISS:      67131  itACCESS:          0  itHIT:          0  itMISS:          0  dtACCESS:          0  dtHIT:          0  dtMISS:          0
LLC PREFETCH     ACCESS:    1760305  HIT:     644863  MISS:    1115442  iACCESS:     787903  iHIT:     321198  iMISS:     466705  dACCESS:     972402  dHIT:     323665  dMISS:     648737  itACCESS:          0  itHIT:          0  itMISS:          0  dtACCESS:          0  dtHIT:          0  dtMISS:          0
LLC WRITE        ACCESS:     122956  HIT:     116821  MISS:       6135  iACCESS:          0  iHIT:          0  iMISS:          0  dACCESS:     122956  dHIT:     116821  dMISS:       6135  itACCESS:          0  itHIT:          0  itMISS:          0  dtACCESS:          0  dtHIT:          0  dtMISS:          0
LLC TRANSLATION  ACCESS:     197597  HIT:      34827  MISS:     162770  iACCESS:          0  iHIT:          0  iMISS:          0  dACCESS:          0  dHIT:          0  dMISS:          0  itACCESS:      58144  itHIT:       8472  itMISS:      49672  dtACCESS:     139453  dtHIT:      26355  dtMISS:     113098
LLC PREFETCH  REQUESTED:          0  ISSUED:          0  CROSSED:          0  USEFUL:          0  USELESS:          0
LLC AVERAGE iMISS LATENCY: 51.3011 cycles
LLC AVERAGE dMISS LATENCY: 96.7091 cycles
LLC AVERAGE itMISS LATENCY: 5.01485 cycles
LLC AVERAGE dtMISS LATENCY: 12.4984 cycles
LLC PAGE CROSSINGS (TLB HIT):         0 
LLC PAGE CROSSINGS (TLB MISS):         0 
LLC AVERAGE MISS LATENCY: 165.524 cycles

PageTableWalker TOTAL       ACCESS:     102468  
PageTableWalker AVERAGE LATENCY: 5.32521 cycles
PageTableWalker TOTAL LATENCY: 545663 cycles

DRAM Statistics
Channel 0
 RQ ROW_BUFFER_HIT:     447474
  ROW_BUFFER_MISS:    1278014
 AVG DBUS CONGESTED CYCLE:    3.64423
 WQ ROW_BUFFER_HIT:      35149
  ROW_BUFFER_MISS:      26437  FULL:          0

