last_page:0x200000000000000
VMEM_RES_CAP:0x100000
PAGE_SIZE:4096
LOG2_PAGE_SIZE:12
LOG2_PAGE_TABLE_SIZE:9
page_table_levels:5
WARNING: physical memory size is smaller than virtual memory size
FDiP enabled with aggresivity 16

*** ChampSim Multicore Out-of-Order Simulator ***

Warmup Instructions: 50000000
Simulation Instructions: 100000000
Number of CPUs: 1
Small page size: 4096
Large page size: 2097152

CPU 0 Bimodal branch predictor
Basic BTB sets: 1024 ways: 8 indirect buffer size: 4096 RAS size: 64
Instruction page size distrubution: 0
Loading instruction page size distribution from /home/bsc/bsc018186/scratch/itp_asplos25_AE/dump/srv105_ap.pdst
Data page size distrubution: 0
Loading data page size distribution from /home/bsc/bsc018186/scratch/itp_asplos25_AE/dump/srv105_ap.pdst
cpu0_L2C IP-based stride prefetcher
cpu0_L2C is using PTP replacement policy:
	TLB_STRESS_THRESHOLD:0
	PTE_EVICTION_RATIO:0
cpu0_L1D next line prefetcher
cpu0_STLB using iTP with max lru@8
cpu0_STLB using iTP with instr@0 and data@2
Init sat counter with 3 bits (max:50).
cpu0_L1I next line prefetcher
Off-chip DRAM Size: 4 GiB Channels: 1 Width: 64-bit Data Rate: 3200 MT/s
Heartbeat CPU 0 instructions: 10000003 cycles: 2500236 heartbeat IPC: 3.99963 cumulative IPC: 3.99963 (Simulation time: 0 hr 0 min 42 sec) 
Heartbeat CPU 0 instructions: 20000000 cycles: 5000245 heartbeat IPC: 3.99999 cumulative IPC: 3.99981 (Simulation time: 0 hr 1 min 28 sec) 
Heartbeat CPU 0 instructions: 30000002 cycles: 7500280 heartbeat IPC: 3.99995 cumulative IPC: 3.99986 (Simulation time: 0 hr 2 min 16 sec) 
Heartbeat CPU 0 instructions: 40000003 cycles: 10000282 heartbeat IPC: 4 cumulative IPC: 3.99989 (Simulation time: 0 hr 3 min 3 sec) 
Heartbeat CPU 0 instructions: 50000001 cycles: 12502185 heartbeat IPC: 3.99696 cumulative IPC: 3.99931 (Simulation time: 0 hr 3 min 50 sec) 
Warmup finished CPU 0 instructions: 50000001 cycles: 12502186 cumulative IPC: 3.99931 (Simulation time: 0 hr 3 min 50 sec) 

Warmup complete CPU 0 instructions: 50000001 cycles: 12502186 (Simulation time: 0 hr 3 min 50 sec) 

Heartbeat CPU 0 instructions: 60000002 cycles: 26267289 heartbeat IPC: 0.726475 cumulative IPC: 0.726475 (Simulation time: 0 hr 5 min 1 sec) 
Heartbeat CPU 0 instructions: 70000003 cycles: 40543523 heartbeat IPC: 0.700465 cumulative IPC: 0.713233 (Simulation time: 0 hr 6 min 14 sec) 
Heartbeat CPU 0 instructions: 80000001 cycles: 54038392 heartbeat IPC: 0.741023 cumulative IPC: 0.722262 (Simulation time: 0 hr 7 min 26 sec) 
Heartbeat CPU 0 instructions: 90000001 cycles: 67673053 heartbeat IPC: 0.733425 cumulative IPC: 0.725021 (Simulation time: 0 hr 8 min 39 sec) 
Heartbeat CPU 0 instructions: 100000001 cycles: 82255176 heartbeat IPC: 0.685772 cumulative IPC: 0.716816 (Simulation time: 0 hr 9 min 52 sec) 
*** Reached end of trace: /gpfs/projects/bsc18/MN4/bsc18/romol/ChampSim/traces/qualcomm_srv/srv105_ap.champsimtrace.xz
Heartbeat CPU 0 instructions: 110000000 cycles: 96009734 heartbeat IPC: 0.727032 cumulative IPC: 0.718498 (Simulation time: 0 hr 11 min 3 sec) 
Heartbeat CPU 0 instructions: 120000002 cycles: 109782521 heartbeat IPC: 0.72607 cumulative IPC: 0.71957 (Simulation time: 0 hr 12 min 16 sec) 
Heartbeat CPU 0 instructions: 130000004 cycles: 123961020 heartbeat IPC: 0.705294 cumulative IPC: 0.717754 (Simulation time: 0 hr 13 min 29 sec) 
Heartbeat CPU 0 instructions: 140000001 cycles: 137757308 heartbeat IPC: 0.724833 cumulative IPC: 0.718534 (Simulation time: 0 hr 14 min 43 sec) 
Heartbeat CPU 0 instructions: 150000002 cycles: 152427968 heartbeat IPC: 0.681633 cumulative IPC: 0.714665 (Simulation time: 0 hr 15 min 55 sec) 
Simulation finished CPU 0 instructions: 100000001 cycles: 139925783 cumulative IPC: 0.714665 (Simulation time: 0 hr 15 min 55 sec) 

Simulation complete CPU 0 instructions: 100000001 cycles: 139925783 (Simulation time: 0 hr 15 min 55 sec) 


ChampSim completed all CPUs

Saving instructions large page distribution to /home/bsc/bsc018186/scratch/itp_asplos25_AE/dump/srv105_ap.pdst...
Saving data large page distribution to /home/bsc/bsc018186/scratch/itp_asplos25_AE/dump/srv105_ap.pdst...
=== Simulation ===
CPU 0 runs /gpfs/projects/bsc18/MN4/bsc18/romol/ChampSim/traces/qualcomm_srv/srv105_ap.champsimtrace.xz

Region of Interest Statistics

CPU 0 cumulative IPC: 0.714665 instructions: 100000001 cycles: 139925783
CPU 0 Branch Prediction Accuracy: 83.4325% MPKI: 29.7637 Average ROB Occupancy at Mispredict: 12.4124
Branch type MPKI
BRANCH_DIRECT_JUMP: 0.95112
BRANCH_INDIRECT: 15.4543
BRANCH_CONDITIONAL: 9.71814
BRANCH_DIRECT_CALL: 1.80961
BRANCH_INDIRECT_CALL: 0.50451
BRANCH_RETURN: 1.32606

Instructions large pages: 0
Instructions small pages: 988
Large page distribution for instructions: 0%

Data large pages: 0
Data small pages: 9284
Large page distribution for data: 0%

cpu0_L1I TOTAL       ACCESS:   35128653  HIT:   26529237  MISS:    8599416  iACCESS:   35128653  iHIT:   26529237  iMISS:    8599416  dACCESS:          0  dHIT:          0  dMISS:          0  itACCESS:          0  itHIT:          0  itMISS:          0  dtACCESS:          0  dtHIT:          0  dtMISS:          0
cpu0_L1I LOAD         ACCESS:   10225747  HIT:    7816394  MISS:    2409353  iACCESS:   10225747  iHIT:    7816394  iMISS:    2409353  dACCESS:          0  dHIT:          0  dMISS:          0  itACCESS:          0  itHIT:          0  itMISS:          0  dtACCESS:          0  dtHIT:          0  dtMISS:          0
cpu0_L1I RFO          ACCESS:          0  HIT:          0  MISS:          0  iACCESS:          0  iHIT:          0  iMISS:          0  dACCESS:          0  dHIT:          0  dMISS:          0  itACCESS:          0  itHIT:          0  itMISS:          0  dtACCESS:          0  dtHIT:          0  dtMISS:          0
cpu0_L1I PREFETCH     ACCESS:   24902906  HIT:   18712843  MISS:    6190063  iACCESS:   24902906  iHIT:   18712843  iMISS:    6190063  dACCESS:          0  dHIT:          0  dMISS:          0  itACCESS:          0  itHIT:          0  itMISS:          0  dtACCESS:          0  dtHIT:          0  dtMISS:          0
cpu0_L1I WRITE        ACCESS:          0  HIT:          0  MISS:          0  iACCESS:          0  iHIT:          0  iMISS:          0  dACCESS:          0  dHIT:          0  dMISS:          0  itACCESS:          0  itHIT:          0  itMISS:          0  dtACCESS:          0  dtHIT:          0  dtMISS:          0
cpu0_L1I TRANSLATION  ACCESS:          0  HIT:          0  MISS:          0  iACCESS:          0  iHIT:          0  iMISS:          0  dACCESS:          0  dHIT:          0  dMISS:          0  itACCESS:          0  itHIT:          0  itMISS:          0  dtACCESS:          0  dtHIT:          0  dtMISS:          0
cpu0_L1I PREFETCH  REQUESTED:   27127914  ISSUED:   27124860  CROSSED:          0  USEFUL:    1934421  USELESS:     637124
cpu0_L1I AVERAGE iMISS LATENCY: 13.4022 cycles
cpu0_L1I AVERAGE dMISS LATENCY: 0 cycles
cpu0_L1I AVERAGE itMISS LATENCY: 0 cycles
cpu0_L1I AVERAGE dtMISS LATENCY: 0 cycles
cpu0_L1I PAGE CROSSINGS (TLB HIT):         0 
cpu0_L1I PAGE CROSSINGS (TLB MISS):         0 
cpu0_L1I AVERAGE MISS LATENCY: 13.4022 cycles
cpu0_ITLB TOTAL       ACCESS:   29026218  HIT:   27041379  MISS:    1984839  iACCESS:   29026218  iHIT:   27041379  iMISS:    1984839  dACCESS:          0  dHIT:          0  dMISS:          0  itACCESS:          0  itHIT:          0  itMISS:          0  dtACCESS:          0  dtHIT:          0  dtMISS:          0
cpu0_ITLB LOAD         ACCESS:   29026218  HIT:   27041379  MISS:    1984839  iACCESS:   29026218  iHIT:   27041379  iMISS:    1984839  dACCESS:          0  dHIT:          0  dMISS:          0  itACCESS:          0  itHIT:          0  itMISS:          0  dtACCESS:          0  dtHIT:          0  dtMISS:          0
cpu0_ITLB RFO          ACCESS:          0  HIT:          0  MISS:          0  iACCESS:          0  iHIT:          0  iMISS:          0  dACCESS:          0  dHIT:          0  dMISS:          0  itACCESS:          0  itHIT:          0  itMISS:          0  dtACCESS:          0  dtHIT:          0  dtMISS:          0
cpu0_ITLB PREFETCH     ACCESS:          0  HIT:          0  MISS:          0  iACCESS:          0  iHIT:          0  iMISS:          0  dACCESS:          0  dHIT:          0  dMISS:          0  itACCESS:          0  itHIT:          0  itMISS:          0  dtACCESS:          0  dtHIT:          0  dtMISS:          0
cpu0_ITLB WRITE        ACCESS:          0  HIT:          0  MISS:          0  iACCESS:          0  iHIT:          0  iMISS:          0  dACCESS:          0  dHIT:          0  dMISS:          0  itACCESS:          0  itHIT:          0  itMISS:          0  dtACCESS:          0  dtHIT:          0  dtMISS:          0
cpu0_ITLB TRANSLATION  ACCESS:          0  HIT:          0  MISS:          0  iACCESS:          0  iHIT:          0  iMISS:          0  dACCESS:          0  dHIT:          0  dMISS:          0  itACCESS:          0  itHIT:          0  itMISS:          0  dtACCESS:          0  dtHIT:          0  dtMISS:          0
cpu0_ITLB PREFETCH  REQUESTED:          0  ISSUED:          0  CROSSED:          0  USEFUL:     325969  USELESS:      62453
cpu0_ITLB AVERAGE iMISS LATENCY: 1.8699 cycles
cpu0_ITLB AVERAGE dMISS LATENCY: 0 cycles
cpu0_ITLB AVERAGE itMISS LATENCY: 0 cycles
cpu0_ITLB AVERAGE dtMISS LATENCY: 0 cycles
cpu0_ITLB PAGE CROSSINGS (TLB HIT):         0 
cpu0_ITLB PAGE CROSSINGS (TLB MISS):         0 
cpu0_ITLB AVERAGE MISS LATENCY: 1.8699 cycles
cpu0_DTLB TOTAL       ACCESS:   27751185  HIT:   25644890  MISS:    2106295  iACCESS:          0  iHIT:          0  iMISS:          0  dACCESS:   27751185  dHIT:   25644890  dMISS:    2106295  itACCESS:          0  itHIT:          0  itMISS:          0  dtACCESS:          0  dtHIT:          0  dtMISS:          0
cpu0_DTLB LOAD         ACCESS:   27751185  HIT:   25644890  MISS:    2106295  iACCESS:          0  iHIT:          0  iMISS:          0  dACCESS:   27751185  dHIT:   25644890  dMISS:    2106295  itACCESS:          0  itHIT:          0  itMISS:          0  dtACCESS:          0  dtHIT:          0  dtMISS:          0
cpu0_DTLB RFO          ACCESS:          0  HIT:          0  MISS:          0  iACCESS:          0  iHIT:          0  iMISS:          0  dACCESS:          0  dHIT:          0  dMISS:          0  itACCESS:          0  itHIT:          0  itMISS:          0  dtACCESS:          0  dtHIT:          0  dtMISS:          0
cpu0_DTLB PREFETCH     ACCESS:          0  HIT:          0  MISS:          0  iACCESS:          0  iHIT:          0  iMISS:          0  dACCESS:          0  dHIT:          0  dMISS:          0  itACCESS:          0  itHIT:          0  itMISS:          0  dtACCESS:          0  dtHIT:          0  dtMISS:          0
cpu0_DTLB WRITE        ACCESS:          0  HIT:          0  MISS:          0  iACCESS:          0  iHIT:          0  iMISS:          0  dACCESS:          0  dHIT:          0  dMISS:          0  itACCESS:          0  itHIT:          0  itMISS:          0  dtACCESS:          0  dtHIT:          0  dtMISS:          0
cpu0_DTLB TRANSLATION  ACCESS:          0  HIT:          0  MISS:          0  iACCESS:          0  iHIT:          0  iMISS:          0  dACCESS:          0  dHIT:          0  dMISS:          0  itACCESS:          0  itHIT:          0  itMISS:          0  dtACCESS:          0  dtHIT:          0  dtMISS:          0
cpu0_DTLB PREFETCH  REQUESTED:          0  ISSUED:          0  CROSSED:          0  USEFUL:          0  USELESS:          0
cpu0_DTLB AVERAGE iMISS LATENCY: 0 cycles
cpu0_DTLB AVERAGE dMISS LATENCY: 9.4011 cycles
cpu0_DTLB AVERAGE itMISS LATENCY: 0 cycles
cpu0_DTLB AVERAGE dtMISS LATENCY: 0 cycles
cpu0_DTLB PAGE CROSSINGS (TLB HIT):         0 
cpu0_DTLB PAGE CROSSINGS (TLB MISS):         0 
cpu0_DTLB AVERAGE MISS LATENCY: 9.4011 cycles
cpu0_STLB TOTAL       ACCESS:    1641990  HIT:    1506075  MISS:     135915  iACCESS:     388468  iHIT:     381875  iMISS:       6593  dACCESS:    1253522  dHIT:    1124200  dMISS:     129322  itACCESS:          0  itHIT:          0  itMISS:          0  dtACCESS:          0  dtHIT:          0  dtMISS:          0
cpu0_STLB LOAD         ACCESS:    1641990  HIT:    1506075  MISS:     135915  iACCESS:     388468  iHIT:     381875  iMISS:       6593  dACCESS:    1253522  dHIT:    1124200  dMISS:     129322  itACCESS:          0  itHIT:          0  itMISS:          0  dtACCESS:          0  dtHIT:          0  dtMISS:          0
cpu0_STLB RFO          ACCESS:          0  HIT:          0  MISS:          0  iACCESS:          0  iHIT:          0  iMISS:          0  dACCESS:          0  dHIT:          0  dMISS:          0  itACCESS:          0  itHIT:          0  itMISS:          0  dtACCESS:          0  dtHIT:          0  dtMISS:          0
cpu0_STLB PREFETCH     ACCESS:          0  HIT:          0  MISS:          0  iACCESS:          0  iHIT:          0  iMISS:          0  dACCESS:          0  dHIT:          0  dMISS:          0  itACCESS:          0  itHIT:          0  itMISS:          0  dtACCESS:          0  dtHIT:          0  dtMISS:          0
cpu0_STLB WRITE        ACCESS:          0  HIT:          0  MISS:          0  iACCESS:          0  iHIT:          0  iMISS:          0  dACCESS:          0  dHIT:          0  dMISS:          0  itACCESS:          0  itHIT:          0  itMISS:          0  dtACCESS:          0  dtHIT:          0  dtMISS:          0
cpu0_STLB TRANSLATION  ACCESS:          0  HIT:          0  MISS:          0  iACCESS:          0  iHIT:          0  iMISS:          0  dACCESS:          0  dHIT:          0  dMISS:          0  itACCESS:          0  itHIT:          0  itMISS:          0  dtACCESS:          0  dtHIT:          0  dtMISS:          0
cpu0_STLB PREFETCH  REQUESTED:          0  ISSUED:          0  CROSSED:          0  USEFUL:          0  USELESS:          0
cpu0_STLB AVERAGE iMISS LATENCY: 5.14064 cycles
cpu0_STLB AVERAGE dMISS LATENCY: 72.0895 cycles
cpu0_STLB AVERAGE itMISS LATENCY: 0 cycles
cpu0_STLB AVERAGE dtMISS LATENCY: 0 cycles
cpu0_STLB PAGE CROSSINGS (TLB HIT):         0 
cpu0_STLB PAGE CROSSINGS (TLB MISS):         0 
cpu0_STLB AVERAGE MISS LATENCY: 77.2302 cycles
cpu0_L1D TOTAL       ACCESS:   41637999  HIT:   37988745  MISS:    3649254  iACCESS:          0  iHIT:          0  iMISS:          0  dACCESS:   41434372  dHIT:   37976477  dMISS:    3457895  itACCESS:       7822  itHIT:        777  itMISS:       7045  dtACCESS:     195805  dtHIT:      11491  dtMISS:     184314
cpu0_L1D LOAD         ACCESS:   18997674  HIT:   17420489  MISS:    1577185  iACCESS:          0  iHIT:          0  iMISS:          0  dACCESS:   18997674  dHIT:   17420489  dMISS:    1577185  itACCESS:          0  itHIT:          0  itMISS:          0  dtACCESS:          0  dtHIT:          0  dtMISS:          0
cpu0_L1D RFO          ACCESS:          0  HIT:          0  MISS:          0  iACCESS:          0  iHIT:          0  iMISS:          0  dACCESS:          0  dHIT:          0  dMISS:          0  itACCESS:          0  itHIT:          0  itMISS:          0  dtACCESS:          0  dtHIT:          0  dtMISS:          0
cpu0_L1D PREFETCH     ACCESS:   12268339  HIT:   10836241  MISS:    1432098  iACCESS:          0  iHIT:          0  iMISS:          0  dACCESS:   12268339  dHIT:   10836241  dMISS:    1432098  itACCESS:          0  itHIT:          0  itMISS:          0  dtACCESS:          0  dtHIT:          0  dtMISS:          0
cpu0_L1D WRITE        ACCESS:   10168359  HIT:    9719747  MISS:     448612  iACCESS:          0  iHIT:          0  iMISS:          0  dACCESS:   10168359  dHIT:    9719747  dMISS:     448612  itACCESS:          0  itHIT:          0  itMISS:          0  dtACCESS:          0  dtHIT:          0  dtMISS:          0
cpu0_L1D TRANSLATION  ACCESS:     203627  HIT:      12268  MISS:     191359  iACCESS:          0  iHIT:          0  iMISS:          0  dACCESS:          0  dHIT:          0  dMISS:          0  itACCESS:       7822  itHIT:        777  itMISS:       7045  dtACCESS:     195805  dtHIT:      11491  dtMISS:     184314
cpu0_L1D PREFETCH  REQUESTED:   18997674  ISSUED:   17084231  CROSSED:          0  USEFUL:     307582  USELESS:     703394
cpu0_L1D AVERAGE iMISS LATENCY: 0 cycles
cpu0_L1D AVERAGE dMISS LATENCY: 34.1153 cycles
cpu0_L1D AVERAGE itMISS LATENCY: 0.17072 cycles
cpu0_L1D AVERAGE dtMISS LATENCY: 1.99022 cycles
cpu0_L1D PAGE CROSSINGS (TLB HIT):         0 
cpu0_L1D PAGE CROSSINGS (TLB MISS):         0 
cpu0_L1D AVERAGE MISS LATENCY: 36.2763 cycles
cpu0_L2C TOTAL       ACCESS:    6997601  HIT:    1250839  MISS:    5746762  iACCESS:    3323264  iHIT:     735022  iMISS:    2588242  dACCESS:    3494795  dHIT:     377212  dMISS:    3117583  itACCESS:       7045  itHIT:       2709  itMISS:       4336  dtACCESS:     172497  dtHIT:     135896  dtMISS:      36601
cpu0_L2C LOAD         ACCESS:    1729434  HIT:     158482  MISS:    1570952  iACCESS:     791280  iHIT:     121364  iMISS:     669916  dACCESS:     938154  dHIT:      37118  dMISS:     901036  itACCESS:          0  itHIT:          0  itMISS:          0  dtACCESS:          0  dtHIT:          0  dtMISS:          0
cpu0_L2C RFO          ACCESS:     156431  HIT:       8303  MISS:     148128  iACCESS:          0  iHIT:          0  iMISS:          0  dACCESS:     156431  dHIT:       8303  dMISS:     148128  itACCESS:          0  itHIT:          0  itMISS:          0  dtACCESS:          0  dtHIT:          0  dtMISS:          0
cpu0_L2C PREFETCH     ACCESS:    4647232  HIT:     885578  MISS:    3761654  iACCESS:    2531984  iHIT:     613658  iMISS:    1918326  dACCESS:    2115248  dHIT:     271920  dMISS:    1843328  itACCESS:          0  itHIT:          0  itMISS:          0  dtACCESS:          0  dtHIT:          0  dtMISS:          0
cpu0_L2C WRITE        ACCESS:     284962  HIT:      59871  MISS:     225091  iACCESS:          0  iHIT:          0  iMISS:          0  dACCESS:     284962  dHIT:      59871  dMISS:     225091  itACCESS:          0  itHIT:          0  itMISS:          0  dtACCESS:          0  dtHIT:          0  dtMISS:          0
cpu0_L2C TRANSLATION  ACCESS:     179542  HIT:     138605  MISS:      40937  iACCESS:          0  iHIT:          0  iMISS:          0  dACCESS:          0  dHIT:          0  dMISS:          0  itACCESS:       7045  itHIT:       2709  itMISS:       4336  dtACCESS:     172497  dtHIT:     135896  dtMISS:      36601
cpu0_L2C PREFETCH  REQUESTED:    1388792  ISSUED:    1388792  CROSSED:          0  USEFUL:     414396  USELESS:     393818
cpu0_L2C AVERAGE iMISS LATENCY: 14.6642 cycles
cpu0_L2C AVERAGE dMISS LATENCY: 24.878 cycles
cpu0_L2C AVERAGE itMISS LATENCY: 0.0965941 cycles
cpu0_L2C AVERAGE dtMISS LATENCY: 0.985792 cycles
cpu0_L2C PAGE CROSSINGS (TLB HIT):         0 
cpu0_L2C PAGE CROSSINGS (TLB MISS):         0 
cpu0_L2C AVERAGE MISS LATENCY: 40.6245 cycles
LLC TOTAL       ACCESS:    5667955  HIT:    4861981  MISS:     805974  iACCESS:    2530492  iHIT:    2288819  iMISS:     241673  dACCESS:    3096526  dHIT:    2562853  dMISS:     533673  itACCESS:       4336  itHIT:       1706  itMISS:       2630  dtACCESS:      36601  dtHIT:       8603  dtMISS:      27998
LLC LOAD         ACCESS:    1567983  HIT:    1379578  MISS:     188405  iACCESS:     668020  iHIT:     616722  iMISS:      51298  dACCESS:     899963  dHIT:     762856  dMISS:     137107  itACCESS:          0  itHIT:          0  itMISS:          0  dtACCESS:          0  dtHIT:          0  dtMISS:          0
LLC RFO          ACCESS:     148125  HIT:     109607  MISS:      38518  iACCESS:          0  iHIT:          0  iMISS:          0  dACCESS:     148125  dHIT:     109607  dMISS:      38518  itACCESS:          0  itHIT:          0  itMISS:          0  dtACCESS:          0  dtHIT:          0  dtMISS:          0
LLC PREFETCH     ACCESS:    3651291  HIT:    3102868  MISS:     548423  iACCESS:    1862472  iHIT:    1672097  iMISS:     190375  dACCESS:    1788819  dHIT:    1430771  dMISS:     358048  itACCESS:          0  itHIT:          0  itMISS:          0  dtACCESS:          0  dtHIT:          0  dtMISS:          0
LLC WRITE        ACCESS:     259619  HIT:     259619  MISS:          0  iACCESS:          0  iHIT:          0  iMISS:          0  dACCESS:     259619  dHIT:     259619  dMISS:          0  itACCESS:          0  itHIT:          0  itMISS:          0  dtACCESS:          0  dtHIT:          0  dtMISS:          0
LLC TRANSLATION  ACCESS:      40937  HIT:      10309  MISS:      30628  iACCESS:          0  iHIT:          0  iMISS:          0  dACCESS:          0  dHIT:          0  dMISS:          0  itACCESS:       4336  itHIT:       1706  itMISS:       2630  dtACCESS:      36601  dtHIT:       8603  dtMISS:      27998
LLC PREFETCH  REQUESTED:          0  ISSUED:          0  CROSSED:          0  USEFUL:          0  USELESS:          0
LLC AVERAGE iMISS LATENCY: 43.9497 cycles
LLC AVERAGE dMISS LATENCY: 109.64 cycles
LLC AVERAGE itMISS LATENCY: 0.58348 cycles
LLC AVERAGE dtMISS LATENCY: 6.13419 cycles
LLC PAGE CROSSINGS (TLB HIT):         0 
LLC PAGE CROSSINGS (TLB MISS):         0 
LLC AVERAGE MISS LATENCY: 160.308 cycles

PageTableWalker TOTAL       ACCESS:      69184  
PageTableWalker AVERAGE LATENCY: 4.62894 cycles
PageTableWalker TOTAL LATENCY: 320248 cycles

DRAM Statistics
Channel 0
 RQ ROW_BUFFER_HIT:     223124
  ROW_BUFFER_MISS:     582297
 AVG DBUS CONGESTED CYCLE:    3.62727
 WQ ROW_BUFFER_HIT:      20780
  ROW_BUFFER_MISS:      29989  FULL:          0

