last_page:0x200000000000000
VMEM_RES_CAP:0x100000
PAGE_SIZE:4096
LOG2_PAGE_SIZE:12
LOG2_PAGE_TABLE_SIZE:9
page_table_levels:5
WARNING: physical memory size is smaller than virtual memory size
FDiP enabled with aggresivity 16

*** ChampSim Multicore Out-of-Order Simulator ***

Warmup Instructions: 50000000
Simulation Instructions: 100000000
Number of CPUs: 1
Small page size: 4096
Large page size: 2097152

CPU 0 Bimodal branch predictor
Basic BTB sets: 1024 ways: 8 indirect buffer size: 4096 RAS size: 64
Instruction page size distrubution: 0
Loading instruction page size distribution from /home/bsc/bsc018186/scratch/itp_asplos25_AE/dump/srv111_ap.pdst
Data page size distrubution: 0
Loading data page size distribution from /home/bsc/bsc018186/scratch/itp_asplos25_AE/dump/srv111_ap.pdst
cpu0_L2C IP-based stride prefetcher
cpu0_L2C is using PTP replacement policy:
	TLB_STRESS_THRESHOLD:0
	PTE_EVICTION_RATIO:0
cpu0_L1D next line prefetcher
cpu0_STLB using iTP with max lru@8
cpu0_STLB using iTP with instr@0 and data@2
Init sat counter with 3 bits (max:50).
cpu0_L1I next line prefetcher
Off-chip DRAM Size: 4 GiB Channels: 1 Width: 64-bit Data Rate: 3200 MT/s
Heartbeat CPU 0 instructions: 10000003 cycles: 2500133 heartbeat IPC: 3.99979 cumulative IPC: 3.99979 (Simulation time: 0 hr 0 min 43 sec) 
Heartbeat CPU 0 instructions: 20000003 cycles: 5000179 heartbeat IPC: 3.99993 cumulative IPC: 3.99986 (Simulation time: 0 hr 1 min 29 sec) 
Heartbeat CPU 0 instructions: 30000003 cycles: 7500179 heartbeat IPC: 4 cumulative IPC: 3.99991 (Simulation time: 0 hr 2 min 16 sec) 
Heartbeat CPU 0 instructions: 40000000 cycles: 10000227 heartbeat IPC: 3.99993 cumulative IPC: 3.99991 (Simulation time: 0 hr 3 min 3 sec) 
Heartbeat CPU 0 instructions: 50000000 cycles: 12500289 heartbeat IPC: 3.99991 cumulative IPC: 3.99991 (Simulation time: 0 hr 3 min 51 sec) 
Warmup finished CPU 0 instructions: 50000000 cycles: 12500290 cumulative IPC: 3.99991 (Simulation time: 0 hr 3 min 51 sec) 

Warmup complete CPU 0 instructions: 50000000 cycles: 12500290 (Simulation time: 0 hr 3 min 51 sec) 

Heartbeat CPU 0 instructions: 60000000 cycles: 28222501 heartbeat IPC: 0.636043 cumulative IPC: 0.636043 (Simulation time: 0 hr 5 min 1 sec) 
Heartbeat CPU 0 instructions: 70000002 cycles: 42470204 heartbeat IPC: 0.701868 cumulative IPC: 0.667336 (Simulation time: 0 hr 6 min 7 sec) 
Heartbeat CPU 0 instructions: 80000000 cycles: 56428638 heartbeat IPC: 0.716413 cumulative IPC: 0.682931 (Simulation time: 0 hr 7 min 12 sec) 
Heartbeat CPU 0 instructions: 90000001 cycles: 71067928 heartbeat IPC: 0.683094 cumulative IPC: 0.682972 (Simulation time: 0 hr 8 min 18 sec) 
Heartbeat CPU 0 instructions: 100000001 cycles: 85761020 heartbeat IPC: 0.680592 cumulative IPC: 0.682494 (Simulation time: 0 hr 9 min 24 sec) 
*** Reached end of trace: /gpfs/projects/bsc18/MN4/bsc18/romol/ChampSim/traces/qualcomm_srv/srv111_ap.champsimtrace.xz
Heartbeat CPU 0 instructions: 110000004 cycles: 99636581 heartbeat IPC: 0.720692 cumulative IPC: 0.688577 (Simulation time: 0 hr 10 min 30 sec) 
Heartbeat CPU 0 instructions: 120000002 cycles: 113470106 heartbeat IPC: 0.722882 cumulative IPC: 0.693277 (Simulation time: 0 hr 11 min 36 sec) 
Heartbeat CPU 0 instructions: 130000001 cycles: 127395003 heartbeat IPC: 0.718139 cumulative IPC: 0.69629 (Simulation time: 0 hr 12 min 44 sec) 
Heartbeat CPU 0 instructions: 140000000 cycles: 141192921 heartbeat IPC: 0.724747 cumulative IPC: 0.699341 (Simulation time: 0 hr 13 min 54 sec) 
Heartbeat CPU 0 instructions: 150000000 cycles: 155703366 heartbeat IPC: 0.689159 cumulative IPC: 0.69831 (Simulation time: 0 hr 15 min 6 sec) 
Simulation finished CPU 0 instructions: 100000000 cycles: 143203077 cumulative IPC: 0.69831 (Simulation time: 0 hr 15 min 6 sec) 

Simulation complete CPU 0 instructions: 100000000 cycles: 143203077 (Simulation time: 0 hr 15 min 6 sec) 


ChampSim completed all CPUs

Saving instructions large page distribution to /home/bsc/bsc018186/scratch/itp_asplos25_AE/dump/srv111_ap.pdst...
Saving data large page distribution to /home/bsc/bsc018186/scratch/itp_asplos25_AE/dump/srv111_ap.pdst...
=== Simulation ===
CPU 0 runs /gpfs/projects/bsc18/MN4/bsc18/romol/ChampSim/traces/qualcomm_srv/srv111_ap.champsimtrace.xz

Region of Interest Statistics

CPU 0 cumulative IPC: 0.69831 instructions: 100000000 cycles: 143203077
CPU 0 Branch Prediction Accuracy: 83.2832% MPKI: 29.8624 Average ROB Occupancy at Mispredict: 12.4302
Branch type MPKI
BRANCH_DIRECT_JUMP: 1.03537
BRANCH_INDIRECT: 15.3542
BRANCH_CONDITIONAL: 9.74703
BRANCH_DIRECT_CALL: 1.86592
BRANCH_INDIRECT_CALL: 0.506381
BRANCH_RETURN: 1.35362

Instructions large pages: 0
Instructions small pages: 1032
Large page distribution for instructions: 0%

Data large pages: 0
Data small pages: 10280
Large page distribution for data: 0%

cpu0_L1I TOTAL       ACCESS:   35148424  HIT:   26799320  MISS:    8349104  iACCESS:   35148424  iHIT:   26799320  iMISS:    8349104  dACCESS:          0  dHIT:          0  dMISS:          0  itACCESS:          0  itHIT:          0  itMISS:          0  dtACCESS:          0  dtHIT:          0  dtMISS:          0
cpu0_L1I LOAD         ACCESS:   10302343  HIT:    7969050  MISS:    2333293  iACCESS:   10302343  iHIT:    7969050  iMISS:    2333293  dACCESS:          0  dHIT:          0  dMISS:          0  itACCESS:          0  itHIT:          0  itMISS:          0  dtACCESS:          0  dtHIT:          0  dtMISS:          0
cpu0_L1I RFO          ACCESS:          0  HIT:          0  MISS:          0  iACCESS:          0  iHIT:          0  iMISS:          0  dACCESS:          0  dHIT:          0  dMISS:          0  itACCESS:          0  itHIT:          0  itMISS:          0  dtACCESS:          0  dtHIT:          0  dtMISS:          0
cpu0_L1I PREFETCH     ACCESS:   24846081  HIT:   18830270  MISS:    6015811  iACCESS:   24846081  iHIT:   18830270  iMISS:    6015811  dACCESS:          0  dHIT:          0  dMISS:          0  itACCESS:          0  itHIT:          0  itMISS:          0  dtACCESS:          0  dtHIT:          0  dtMISS:          0
cpu0_L1I WRITE        ACCESS:          0  HIT:          0  MISS:          0  iACCESS:          0  iHIT:          0  iMISS:          0  dACCESS:          0  dHIT:          0  dMISS:          0  itACCESS:          0  itHIT:          0  itMISS:          0  dtACCESS:          0  dtHIT:          0  dtMISS:          0
cpu0_L1I TRANSLATION  ACCESS:          0  HIT:          0  MISS:          0  iACCESS:          0  iHIT:          0  iMISS:          0  dACCESS:          0  dHIT:          0  dMISS:          0  itACCESS:          0  itHIT:          0  itMISS:          0  dtACCESS:          0  dtHIT:          0  dtMISS:          0
cpu0_L1I PREFETCH  REQUESTED:   27152901  ISSUED:   27148898  CROSSED:          0  USEFUL:    1892150  USELESS:     622462
cpu0_L1I AVERAGE iMISS LATENCY: 14.246 cycles
cpu0_L1I AVERAGE dMISS LATENCY: 0 cycles
cpu0_L1I AVERAGE itMISS LATENCY: 0 cycles
cpu0_L1I AVERAGE dtMISS LATENCY: 0 cycles
cpu0_L1I PAGE CROSSINGS (TLB HIT):         0 
cpu0_L1I PAGE CROSSINGS (TLB MISS):         0 
cpu0_L1I AVERAGE MISS LATENCY: 14.246 cycles
cpu0_ITLB TOTAL       ACCESS:   29060951  HIT:   27107566  MISS:    1953385  iACCESS:   29060951  iHIT:   27107566  iMISS:    1953385  dACCESS:          0  dHIT:          0  dMISS:          0  itACCESS:          0  itHIT:          0  itMISS:          0  dtACCESS:          0  dtHIT:          0  dtMISS:          0
cpu0_ITLB LOAD         ACCESS:   29060951  HIT:   27107566  MISS:    1953385  iACCESS:   29060951  iHIT:   27107566  iMISS:    1953385  dACCESS:          0  dHIT:          0  dMISS:          0  itACCESS:          0  itHIT:          0  itMISS:          0  dtACCESS:          0  dtHIT:          0  dtMISS:          0
cpu0_ITLB RFO          ACCESS:          0  HIT:          0  MISS:          0  iACCESS:          0  iHIT:          0  iMISS:          0  dACCESS:          0  dHIT:          0  dMISS:          0  itACCESS:          0  itHIT:          0  itMISS:          0  dtACCESS:          0  dtHIT:          0  dtMISS:          0
cpu0_ITLB PREFETCH     ACCESS:          0  HIT:          0  MISS:          0  iACCESS:          0  iHIT:          0  iMISS:          0  dACCESS:          0  dHIT:          0  dMISS:          0  itACCESS:          0  itHIT:          0  itMISS:          0  dtACCESS:          0  dtHIT:          0  dtMISS:          0
cpu0_ITLB WRITE        ACCESS:          0  HIT:          0  MISS:          0  iACCESS:          0  iHIT:          0  iMISS:          0  dACCESS:          0  dHIT:          0  dMISS:          0  itACCESS:          0  itHIT:          0  itMISS:          0  dtACCESS:          0  dtHIT:          0  dtMISS:          0
cpu0_ITLB TRANSLATION  ACCESS:          0  HIT:          0  MISS:          0  iACCESS:          0  iHIT:          0  iMISS:          0  dACCESS:          0  dHIT:          0  dMISS:          0  itACCESS:          0  itHIT:          0  itMISS:          0  dtACCESS:          0  dtHIT:          0  dtMISS:          0
cpu0_ITLB PREFETCH  REQUESTED:          0  ISSUED:          0  CROSSED:          0  USEFUL:     320769  USELESS:      65881
cpu0_ITLB AVERAGE iMISS LATENCY: 1.994 cycles
cpu0_ITLB AVERAGE dMISS LATENCY: 0 cycles
cpu0_ITLB AVERAGE itMISS LATENCY: 0 cycles
cpu0_ITLB AVERAGE dtMISS LATENCY: 0 cycles
cpu0_ITLB PAGE CROSSINGS (TLB HIT):         0 
cpu0_ITLB PAGE CROSSINGS (TLB MISS):         0 
cpu0_ITLB AVERAGE MISS LATENCY: 1.994 cycles
cpu0_DTLB TOTAL       ACCESS:   27730399  HIT:   25668936  MISS:    2061463  iACCESS:          0  iHIT:          0  iMISS:          0  dACCESS:   27730399  dHIT:   25668936  dMISS:    2061463  itACCESS:          0  itHIT:          0  itMISS:          0  dtACCESS:          0  dtHIT:          0  dtMISS:          0
cpu0_DTLB LOAD         ACCESS:   27730399  HIT:   25668936  MISS:    2061463  iACCESS:          0  iHIT:          0  iMISS:          0  dACCESS:   27730399  dHIT:   25668936  dMISS:    2061463  itACCESS:          0  itHIT:          0  itMISS:          0  dtACCESS:          0  dtHIT:          0  dtMISS:          0
cpu0_DTLB RFO          ACCESS:          0  HIT:          0  MISS:          0  iACCESS:          0  iHIT:          0  iMISS:          0  dACCESS:          0  dHIT:          0  dMISS:          0  itACCESS:          0  itHIT:          0  itMISS:          0  dtACCESS:          0  dtHIT:          0  dtMISS:          0
cpu0_DTLB PREFETCH     ACCESS:          0  HIT:          0  MISS:          0  iACCESS:          0  iHIT:          0  iMISS:          0  dACCESS:          0  dHIT:          0  dMISS:          0  itACCESS:          0  itHIT:          0  itMISS:          0  dtACCESS:          0  dtHIT:          0  dtMISS:          0
cpu0_DTLB WRITE        ACCESS:          0  HIT:          0  MISS:          0  iACCESS:          0  iHIT:          0  iMISS:          0  dACCESS:          0  dHIT:          0  dMISS:          0  itACCESS:          0  itHIT:          0  itMISS:          0  dtACCESS:          0  dtHIT:          0  dtMISS:          0
cpu0_DTLB TRANSLATION  ACCESS:          0  HIT:          0  MISS:          0  iACCESS:          0  iHIT:          0  iMISS:          0  dACCESS:          0  dHIT:          0  dMISS:          0  itACCESS:          0  itHIT:          0  itMISS:          0  dtACCESS:          0  dtHIT:          0  dtMISS:          0
cpu0_DTLB PREFETCH  REQUESTED:          0  ISSUED:          0  CROSSED:          0  USEFUL:          0  USELESS:          0
cpu0_DTLB AVERAGE iMISS LATENCY: 0 cycles
cpu0_DTLB AVERAGE dMISS LATENCY: 10.1153 cycles
cpu0_DTLB AVERAGE itMISS LATENCY: 0 cycles
cpu0_DTLB AVERAGE dtMISS LATENCY: 0 cycles
cpu0_DTLB PAGE CROSSINGS (TLB HIT):         0 
cpu0_DTLB PAGE CROSSINGS (TLB MISS):         0 
cpu0_DTLB AVERAGE MISS LATENCY: 10.1153 cycles
cpu0_STLB TOTAL       ACCESS:    1608847  HIT:    1461118  MISS:     147729  iACCESS:     386658  iHIT:     377555  iMISS:       9103  dACCESS:    1222189  dHIT:    1083563  dMISS:     138626  itACCESS:          0  itHIT:          0  itMISS:          0  dtACCESS:          0  dtHIT:          0  dtMISS:          0
cpu0_STLB LOAD         ACCESS:    1608847  HIT:    1461118  MISS:     147729  iACCESS:     386658  iHIT:     377555  iMISS:       9103  dACCESS:    1222189  dHIT:    1083563  dMISS:     138626  itACCESS:          0  itHIT:          0  itMISS:          0  dtACCESS:          0  dtHIT:          0  dtMISS:          0
cpu0_STLB RFO          ACCESS:          0  HIT:          0  MISS:          0  iACCESS:          0  iHIT:          0  iMISS:          0  dACCESS:          0  dHIT:          0  dMISS:          0  itACCESS:          0  itHIT:          0  itMISS:          0  dtACCESS:          0  dtHIT:          0  dtMISS:          0
cpu0_STLB PREFETCH     ACCESS:          0  HIT:          0  MISS:          0  iACCESS:          0  iHIT:          0  iMISS:          0  dACCESS:          0  dHIT:          0  dMISS:          0  itACCESS:          0  itHIT:          0  itMISS:          0  dtACCESS:          0  dtHIT:          0  dtMISS:          0
cpu0_STLB WRITE        ACCESS:          0  HIT:          0  MISS:          0  iACCESS:          0  iHIT:          0  iMISS:          0  dACCESS:          0  dHIT:          0  dMISS:          0  itACCESS:          0  itHIT:          0  itMISS:          0  dtACCESS:          0  dtHIT:          0  dtMISS:          0
cpu0_STLB TRANSLATION  ACCESS:          0  HIT:          0  MISS:          0  iACCESS:          0  iHIT:          0  iMISS:          0  dACCESS:          0  dHIT:          0  dMISS:          0  itACCESS:          0  itHIT:          0  itMISS:          0  dtACCESS:          0  dtHIT:          0  dtMISS:          0
cpu0_STLB PREFETCH  REQUESTED:          0  ISSUED:          0  CROSSED:          0  USEFUL:          0  USELESS:          0
cpu0_STLB AVERAGE iMISS LATENCY: 6.05567 cycles
cpu0_STLB AVERAGE dMISS LATENCY: 75.0305 cycles
cpu0_STLB AVERAGE itMISS LATENCY: 0 cycles
cpu0_STLB AVERAGE dtMISS LATENCY: 0 cycles
cpu0_STLB PAGE CROSSINGS (TLB HIT):         0 
cpu0_STLB PAGE CROSSINGS (TLB MISS):         0 
cpu0_STLB AVERAGE MISS LATENCY: 81.0861 cycles
cpu0_L1D TOTAL       ACCESS:   41833848  HIT:   38036138  MISS:    3797710  iACCESS:          0  iHIT:          0  iMISS:          0  dACCESS:   41613103  dHIT:   38021836  dMISS:    3591267  itACCESS:      11164  itHIT:       1247  itMISS:       9917  dtACCESS:     209581  dtHIT:      13055  dtMISS:     196526
cpu0_L1D LOAD         ACCESS:   18961516  HIT:   17449813  MISS:    1511703  iACCESS:          0  iHIT:          0  iMISS:          0  dACCESS:   18961516  dHIT:   17449813  dMISS:    1511703  itACCESS:          0  itHIT:          0  itMISS:          0  dtACCESS:          0  dtHIT:          0  dtMISS:          0
cpu0_L1D RFO          ACCESS:          0  HIT:          0  MISS:          0  iACCESS:          0  iHIT:          0  iMISS:          0  dACCESS:          0  dHIT:          0  dMISS:          0  itACCESS:          0  itHIT:          0  itMISS:          0  dtACCESS:          0  dtHIT:          0  dtMISS:          0
cpu0_L1D PREFETCH     ACCESS:   12226522  HIT:   10845972  MISS:    1380550  iACCESS:          0  iHIT:          0  iMISS:          0  dACCESS:   12226522  dHIT:   10845972  dMISS:    1380550  itACCESS:          0  itHIT:          0  itMISS:          0  dtACCESS:          0  dtHIT:          0  dtMISS:          0
cpu0_L1D WRITE        ACCESS:   10425065  HIT:    9726051  MISS:     699014  iACCESS:          0  iHIT:          0  iMISS:          0  dACCESS:   10425065  dHIT:    9726051  dMISS:     699014  itACCESS:          0  itHIT:          0  itMISS:          0  dtACCESS:          0  dtHIT:          0  dtMISS:          0
cpu0_L1D TRANSLATION  ACCESS:     220745  HIT:      14302  MISS:     206443  iACCESS:          0  iHIT:          0  iMISS:          0  dACCESS:          0  dHIT:          0  dMISS:          0  itACCESS:      11164  itHIT:       1247  itMISS:       9917  dtACCESS:     209581  dtHIT:      13055  dtMISS:     196526
cpu0_L1D PREFETCH  REQUESTED:   18961516  ISSUED:   17075628  CROSSED:          0  USEFUL:     303346  USELESS:     694234
cpu0_L1D AVERAGE iMISS LATENCY: 0 cycles
cpu0_L1D AVERAGE dMISS LATENCY: 34.6886 cycles
cpu0_L1D AVERAGE itMISS LATENCY: 0.20914 cycles
cpu0_L1D AVERAGE dtMISS LATENCY: 2.15864 cycles
cpu0_L1D PAGE CROSSINGS (TLB HIT):         0 
cpu0_L1D PAGE CROSSINGS (TLB MISS):         0 
cpu0_L1D AVERAGE MISS LATENCY: 37.0563 cycles
cpu0_L2C TOTAL       ACCESS:    6917307  HIT:    1203836  MISS:    5713471  iACCESS:    3257566  iHIT:     681892  iMISS:    2575674  dACCESS:    3465641  dHIT:     375432  dMISS:    3090209  itACCESS:       9899  itHIT:       4192  itMISS:       5707  dtACCESS:     184201  dtHIT:     142320  dtMISS:      41881
cpu0_L2C LOAD         ACCESS:    1697316  HIT:     131963  MISS:    1565353  iACCESS:     776647  iHIT:      95063  iMISS:     681584  dACCESS:     920669  dHIT:      36900  dMISS:     883769  itACCESS:          0  itHIT:          0  itMISS:          0  dtACCESS:          0  dtHIT:          0  dtMISS:          0
cpu0_L2C RFO          ACCESS:     172183  HIT:       7928  MISS:     164255  iACCESS:          0  iHIT:          0  iMISS:          0  dACCESS:     172183  dHIT:       7928  dMISS:     164255  itACCESS:          0  itHIT:          0  itMISS:          0  dtACCESS:          0  dtHIT:          0  dtMISS:          0
cpu0_L2C PREFETCH     ACCESS:    4556393  HIT:     851284  MISS:    3705109  iACCESS:    2480919  iHIT:     586829  iMISS:    1894090  dACCESS:    2075474  dHIT:     264455  dMISS:    1811019  itACCESS:          0  itHIT:          0  itMISS:          0  dtACCESS:          0  dtHIT:          0  dtMISS:          0
cpu0_L2C WRITE        ACCESS:     297315  HIT:      66149  MISS:     231166  iACCESS:          0  iHIT:          0  iMISS:          0  dACCESS:     297315  dHIT:      66149  dMISS:     231166  itACCESS:          0  itHIT:          0  itMISS:          0  dtACCESS:          0  dtHIT:          0  dtMISS:          0
cpu0_L2C TRANSLATION  ACCESS:     194100  HIT:     146512  MISS:      47588  iACCESS:          0  iHIT:          0  iMISS:          0  dACCESS:          0  dHIT:          0  dMISS:          0  itACCESS:       9899  itHIT:       4192  itMISS:       5707  dtACCESS:     184201  dtHIT:     142320  dtMISS:      41881
cpu0_L2C PREFETCH  REQUESTED:    1327482  ISSUED:    1327482  CROSSED:          0  USEFUL:     407130  USELESS:     380350
cpu0_L2C AVERAGE iMISS LATENCY: 15.5315 cycles
cpu0_L2C AVERAGE dMISS LATENCY: 26.5696 cycles
cpu0_L2C AVERAGE itMISS LATENCY: 0.122381 cycles
cpu0_L2C AVERAGE dtMISS LATENCY: 1.13572 cycles
cpu0_L2C PAGE CROSSINGS (TLB HIT):         0 
cpu0_L2C PAGE CROSSINGS (TLB MISS):         0 
cpu0_L2C AVERAGE MISS LATENCY: 43.3592 cycles
LLC TOTAL       ACCESS:    5643072  HIT:    4766014  MISS:     877058  iACCESS:    2521618  iHIT:    2257407  iMISS:     264211  dACCESS:    3073866  dHIT:    2495816  dMISS:     578050  itACCESS:       5707  itHIT:       2383  itMISS:       3324  dtACCESS:      41881  dtHIT:      10408  dtMISS:      31473
LLC LOAD         ACCESS:    1563704  HIT:    1363269  MISS:     200435  iACCESS:     680324  iHIT:     624723  iMISS:      55601  dACCESS:     883380  dHIT:     738546  dMISS:     144834  itACCESS:          0  itHIT:          0  itMISS:          0  dtACCESS:          0  dtHIT:          0  dtMISS:          0
LLC RFO          ACCESS:     164251  HIT:     105546  MISS:      58705  iACCESS:          0  iHIT:          0  iMISS:          0  dACCESS:     164251  dHIT:     105546  dMISS:      58705  itACCESS:          0  itHIT:          0  itMISS:          0  dtACCESS:          0  dtHIT:          0  dtMISS:          0
LLC PREFETCH     ACCESS:    3594415  HIT:    3011295  MISS:     583120  iACCESS:    1841294  iHIT:    1632684  iMISS:     208610  dACCESS:    1753121  dHIT:    1378611  dMISS:     374510  itACCESS:          0  itHIT:          0  itMISS:          0  dtACCESS:          0  dtHIT:          0  dtMISS:          0
LLC WRITE        ACCESS:     273114  HIT:     273113  MISS:          1  iACCESS:          0  iHIT:          0  iMISS:          0  dACCESS:     273114  dHIT:     273113  dMISS:          1  itACCESS:          0  itHIT:          0  itMISS:          0  dtACCESS:          0  dtHIT:          0  dtMISS:          0
LLC TRANSLATION  ACCESS:      47588  HIT:      12791  MISS:      34797  iACCESS:          0  iHIT:          0  iMISS:          0  dACCESS:          0  dHIT:          0  dMISS:          0  itACCESS:       5707  itHIT:       2383  itMISS:       3324  dtACCESS:      41881  dtHIT:      10408  dtMISS:      31473
LLC PREFETCH  REQUESTED:          0  ISSUED:          0  CROSSED:          0  USEFUL:          0  USELESS:          0
LLC AVERAGE iMISS LATENCY: 45.6937 cycles
LLC AVERAGE dMISS LATENCY: 111.463 cycles
LLC AVERAGE itMISS LATENCY: 0.670123 cycles
LLC AVERAGE dtMISS LATENCY: 6.45831 cycles
LLC PAGE CROSSINGS (TLB HIT):         0 
LLC PAGE CROSSINGS (TLB MISS):         0 
LLC AVERAGE MISS LATENCY: 164.285 cycles

PageTableWalker TOTAL       ACCESS:      72021  
PageTableWalker AVERAGE LATENCY: 4.72156 cycles
PageTableWalker TOTAL LATENCY: 340051 cycles

DRAM Statistics
Channel 0
 RQ ROW_BUFFER_HIT:     250738
  ROW_BUFFER_MISS:     626178
 AVG DBUS CONGESTED CYCLE:     3.6771
 WQ ROW_BUFFER_HIT:      24680
  ROW_BUFFER_MISS:      46630  FULL:          0

