last_page:0x200000000000000
VMEM_RES_CAP:0x100000
PAGE_SIZE:4096
LOG2_PAGE_SIZE:12
LOG2_PAGE_TABLE_SIZE:9
page_table_levels:5
WARNING: physical memory size is smaller than virtual memory size
FDiP enabled with aggresivity 16

*** ChampSim Multicore Out-of-Order Simulator ***

Warmup Instructions: 50000000
Simulation Instructions: 100000000
Number of CPUs: 1
Small page size: 4096
Large page size: 2097152

CPU 0 Bimodal branch predictor
Basic BTB sets: 1024 ways: 8 indirect buffer size: 4096 RAS size: 64
Instruction page size distrubution: 0
Loading instruction page size distribution from /home/bsc/bsc018186/scratch/itp_asplos25_AE/dump/srv180_ap.pdst
Data page size distrubution: 0
Loading data page size distribution from /home/bsc/bsc018186/scratch/itp_asplos25_AE/dump/srv180_ap.pdst
cpu0_L2C IP-based stride prefetcher
cpu0_L1D next line prefetcher
cpu0_STLB using iTP with max lru@8
cpu0_STLB using iTP with instr@0 and data@2
Init sat counter with 3 bits (max:50).
cpu0_L1I next line prefetcher
Off-chip DRAM Size: 4 GiB Channels: 1 Width: 64-bit Data Rate: 3200 MT/s
Heartbeat CPU 0 instructions: 10000002 cycles: 2500256 heartbeat IPC: 3.9996 cumulative IPC: 3.9996 (Simulation time: 0 hr 0 min 37 sec) 
Heartbeat CPU 0 instructions: 20000001 cycles: 5000316 heartbeat IPC: 3.99991 cumulative IPC: 3.99975 (Simulation time: 0 hr 1 min 16 sec) 
Heartbeat CPU 0 instructions: 30000000 cycles: 7500342 heartbeat IPC: 3.99996 cumulative IPC: 3.99982 (Simulation time: 0 hr 1 min 56 sec) 
Heartbeat CPU 0 instructions: 40000003 cycles: 10000346 heartbeat IPC: 4 cumulative IPC: 3.99987 (Simulation time: 0 hr 2 min 36 sec) 
Heartbeat CPU 0 instructions: 50000002 cycles: 12500367 heartbeat IPC: 3.99997 cumulative IPC: 3.99989 (Simulation time: 0 hr 3 min 16 sec) 
Warmup finished CPU 0 instructions: 50000002 cycles: 12500368 cumulative IPC: 3.99989 (Simulation time: 0 hr 3 min 16 sec) 

Warmup complete CPU 0 instructions: 50000002 cycles: 12500368 (Simulation time: 0 hr 3 min 16 sec) 

Heartbeat CPU 0 instructions: 60000002 cycles: 26662660 heartbeat IPC: 0.706101 cumulative IPC: 0.706101 (Simulation time: 0 hr 4 min 19 sec) 
Heartbeat CPU 0 instructions: 70000002 cycles: 40290936 heartbeat IPC: 0.733769 cumulative IPC: 0.719669 (Simulation time: 0 hr 5 min 22 sec) 
Heartbeat CPU 0 instructions: 80000002 cycles: 53747042 heartbeat IPC: 0.743158 cumulative IPC: 0.727332 (Simulation time: 0 hr 6 min 24 sec) 
Heartbeat CPU 0 instructions: 90000001 cycles: 67920109 heartbeat IPC: 0.705564 cumulative IPC: 0.721765 (Simulation time: 0 hr 7 min 29 sec) 
Heartbeat CPU 0 instructions: 100000000 cycles: 81129151 heartbeat IPC: 0.757058 cumulative IPC: 0.728558 (Simulation time: 0 hr 8 min 33 sec) 
*** Reached end of trace: /gpfs/projects/bsc18/MN4/bsc18/romol/ChampSim/traces/qualcomm_srv/srv180_ap.champsimtrace.xz
Heartbeat CPU 0 instructions: 110000002 cycles: 95442954 heartbeat IPC: 0.698627 cumulative IPC: 0.723392 (Simulation time: 0 hr 9 min 38 sec) 
Heartbeat CPU 0 instructions: 120000001 cycles: 108723451 heartbeat IPC: 0.752984 cumulative IPC: 0.727477 (Simulation time: 0 hr 10 min 42 sec) 
Heartbeat CPU 0 instructions: 130000000 cycles: 122619227 heartbeat IPC: 0.719644 cumulative IPC: 0.726488 (Simulation time: 0 hr 11 min 47 sec) 
Heartbeat CPU 0 instructions: 140000001 cycles: 136206998 heartbeat IPC: 0.735956 cumulative IPC: 0.727528 (Simulation time: 0 hr 12 min 51 sec) 
Heartbeat CPU 0 instructions: 150000000 cycles: 149752187 heartbeat IPC: 0.73827 cumulative IPC: 0.728588 (Simulation time: 0 hr 13 min 55 sec) 
Simulation finished CPU 0 instructions: 100000000 cycles: 137251821 cumulative IPC: 0.728588 (Simulation time: 0 hr 13 min 55 sec) 

Simulation complete CPU 0 instructions: 100000000 cycles: 137251821 (Simulation time: 0 hr 13 min 55 sec) 


ChampSim completed all CPUs

Saving instructions large page distribution to /home/bsc/bsc018186/scratch/itp_asplos25_AE/dump/srv180_ap.pdst...
Saving data large page distribution to /home/bsc/bsc018186/scratch/itp_asplos25_AE/dump/srv180_ap.pdst...
=== Simulation ===
CPU 0 runs /gpfs/projects/bsc18/MN4/bsc18/romol/ChampSim/traces/qualcomm_srv/srv180_ap.champsimtrace.xz

Region of Interest Statistics

CPU 0 cumulative IPC: 0.728588 instructions: 100000000 cycles: 137251821
CPU 0 Branch Prediction Accuracy: 83.4184% MPKI: 29.7702 Average ROB Occupancy at Mispredict: 12.4719
Branch type MPKI
BRANCH_DIRECT_JUMP: 0.945161
BRANCH_INDIRECT: 15.4666
BRANCH_CONDITIONAL: 9.74066
BRANCH_DIRECT_CALL: 1.80651
BRANCH_INDIRECT_CALL: 0.494821
BRANCH_RETURN: 1.31646

Instructions large pages: 0
Instructions small pages: 1015
Large page distribution for instructions: 0%

Data large pages: 0
Data small pages: 9026
Large page distribution for data: 0%

cpu0_L1I TOTAL       ACCESS:   35053918  HIT:   26494801  MISS:    8559117  iACCESS:   35053918  iHIT:   26494801  iMISS:    8559117  dACCESS:          0  dHIT:          0  dMISS:          0  itACCESS:          0  itHIT:          0  itMISS:          0  dtACCESS:          0  dtHIT:          0  dtMISS:          0
cpu0_L1I LOAD         ACCESS:   10203529  HIT:    7802374  MISS:    2401155  iACCESS:   10203529  iHIT:    7802374  iMISS:    2401155  dACCESS:          0  dHIT:          0  dMISS:          0  itACCESS:          0  itHIT:          0  itMISS:          0  dtACCESS:          0  dtHIT:          0  dtMISS:          0
cpu0_L1I RFO          ACCESS:          0  HIT:          0  MISS:          0  iACCESS:          0  iHIT:          0  iMISS:          0  dACCESS:          0  dHIT:          0  dMISS:          0  itACCESS:          0  itHIT:          0  itMISS:          0  dtACCESS:          0  dtHIT:          0  dtMISS:          0
cpu0_L1I PREFETCH     ACCESS:   24850389  HIT:   18692427  MISS:    6157962  iACCESS:   24850389  iHIT:   18692427  iMISS:    6157962  dACCESS:          0  dHIT:          0  dMISS:          0  itACCESS:          0  itHIT:          0  itMISS:          0  dtACCESS:          0  dtHIT:          0  dtMISS:          0
cpu0_L1I WRITE        ACCESS:          0  HIT:          0  MISS:          0  iACCESS:          0  iHIT:          0  iMISS:          0  dACCESS:          0  dHIT:          0  dMISS:          0  itACCESS:          0  itHIT:          0  itMISS:          0  dtACCESS:          0  dtHIT:          0  dtMISS:          0
cpu0_L1I TRANSLATION  ACCESS:          0  HIT:          0  MISS:          0  iACCESS:          0  iHIT:          0  iMISS:          0  dACCESS:          0  dHIT:          0  dMISS:          0  itACCESS:          0  itHIT:          0  itMISS:          0  dtACCESS:          0  dtHIT:          0  dtMISS:          0
cpu0_L1I PREFETCH  REQUESTED:   27093264  ISSUED:   27090243  CROSSED:          0  USEFUL:    1946628  USELESS:     641419
cpu0_L1I AVERAGE iMISS LATENCY: 12.8451 cycles
cpu0_L1I AVERAGE dMISS LATENCY: 0 cycles
cpu0_L1I AVERAGE itMISS LATENCY: 0 cycles
cpu0_L1I AVERAGE dtMISS LATENCY: 0 cycles
cpu0_L1I PAGE CROSSINGS (TLB HIT):         0 
cpu0_L1I PAGE CROSSINGS (TLB MISS):         0 
cpu0_L1I AVERAGE MISS LATENCY: 12.8451 cycles
cpu0_ITLB TOTAL       ACCESS:   29034277  HIT:   27031559  MISS:    2002718  iACCESS:   29034277  iHIT:   27031559  iMISS:    2002718  dACCESS:          0  dHIT:          0  dMISS:          0  itACCESS:          0  itHIT:          0  itMISS:          0  dtACCESS:          0  dtHIT:          0  dtMISS:          0
cpu0_ITLB LOAD         ACCESS:   29034277  HIT:   27031559  MISS:    2002718  iACCESS:   29034277  iHIT:   27031559  iMISS:    2002718  dACCESS:          0  dHIT:          0  dMISS:          0  itACCESS:          0  itHIT:          0  itMISS:          0  dtACCESS:          0  dtHIT:          0  dtMISS:          0
cpu0_ITLB RFO          ACCESS:          0  HIT:          0  MISS:          0  iACCESS:          0  iHIT:          0  iMISS:          0  dACCESS:          0  dHIT:          0  dMISS:          0  itACCESS:          0  itHIT:          0  itMISS:          0  dtACCESS:          0  dtHIT:          0  dtMISS:          0
cpu0_ITLB PREFETCH     ACCESS:          0  HIT:          0  MISS:          0  iACCESS:          0  iHIT:          0  iMISS:          0  dACCESS:          0  dHIT:          0  dMISS:          0  itACCESS:          0  itHIT:          0  itMISS:          0  dtACCESS:          0  dtHIT:          0  dtMISS:          0
cpu0_ITLB WRITE        ACCESS:          0  HIT:          0  MISS:          0  iACCESS:          0  iHIT:          0  iMISS:          0  dACCESS:          0  dHIT:          0  dMISS:          0  itACCESS:          0  itHIT:          0  itMISS:          0  dtACCESS:          0  dtHIT:          0  dtMISS:          0
cpu0_ITLB TRANSLATION  ACCESS:          0  HIT:          0  MISS:          0  iACCESS:          0  iHIT:          0  iMISS:          0  dACCESS:          0  dHIT:          0  dMISS:          0  itACCESS:          0  itHIT:          0  itMISS:          0  dtACCESS:          0  dtHIT:          0  dtMISS:          0
cpu0_ITLB PREFETCH  REQUESTED:          0  ISSUED:          0  CROSSED:          0  USEFUL:     327712  USELESS:      63351
cpu0_ITLB AVERAGE iMISS LATENCY: 1.7816 cycles
cpu0_ITLB AVERAGE dMISS LATENCY: 0 cycles
cpu0_ITLB AVERAGE itMISS LATENCY: 0 cycles
cpu0_ITLB AVERAGE dtMISS LATENCY: 0 cycles
cpu0_ITLB PAGE CROSSINGS (TLB HIT):         0 
cpu0_ITLB PAGE CROSSINGS (TLB MISS):         0 
cpu0_ITLB AVERAGE MISS LATENCY: 1.7816 cycles
cpu0_DTLB TOTAL       ACCESS:   27713711  HIT:   25866516  MISS:    1847195  iACCESS:          0  iHIT:          0  iMISS:          0  dACCESS:   27713711  dHIT:   25866516  dMISS:    1847195  itACCESS:          0  itHIT:          0  itMISS:          0  dtACCESS:          0  dtHIT:          0  dtMISS:          0
cpu0_DTLB LOAD         ACCESS:   27713711  HIT:   25866516  MISS:    1847195  iACCESS:          0  iHIT:          0  iMISS:          0  dACCESS:   27713711  dHIT:   25866516  dMISS:    1847195  itACCESS:          0  itHIT:          0  itMISS:          0  dtACCESS:          0  dtHIT:          0  dtMISS:          0
cpu0_DTLB RFO          ACCESS:          0  HIT:          0  MISS:          0  iACCESS:          0  iHIT:          0  iMISS:          0  dACCESS:          0  dHIT:          0  dMISS:          0  itACCESS:          0  itHIT:          0  itMISS:          0  dtACCESS:          0  dtHIT:          0  dtMISS:          0
cpu0_DTLB PREFETCH     ACCESS:          0  HIT:          0  MISS:          0  iACCESS:          0  iHIT:          0  iMISS:          0  dACCESS:          0  dHIT:          0  dMISS:          0  itACCESS:          0  itHIT:          0  itMISS:          0  dtACCESS:          0  dtHIT:          0  dtMISS:          0
cpu0_DTLB WRITE        ACCESS:          0  HIT:          0  MISS:          0  iACCESS:          0  iHIT:          0  iMISS:          0  dACCESS:          0  dHIT:          0  dMISS:          0  itACCESS:          0  itHIT:          0  itMISS:          0  dtACCESS:          0  dtHIT:          0  dtMISS:          0
cpu0_DTLB TRANSLATION  ACCESS:          0  HIT:          0  MISS:          0  iACCESS:          0  iHIT:          0  iMISS:          0  dACCESS:          0  dHIT:          0  dMISS:          0  itACCESS:          0  itHIT:          0  itMISS:          0  dtACCESS:          0  dtHIT:          0  dtMISS:          0
cpu0_DTLB PREFETCH  REQUESTED:          0  ISSUED:          0  CROSSED:          0  USEFUL:          0  USELESS:          0
cpu0_DTLB AVERAGE iMISS LATENCY: 0 cycles
cpu0_DTLB AVERAGE dMISS LATENCY: 11.5053 cycles
cpu0_DTLB AVERAGE itMISS LATENCY: 0 cycles
cpu0_DTLB AVERAGE dtMISS LATENCY: 0 cycles
cpu0_DTLB PAGE CROSSINGS (TLB HIT):         0 
cpu0_DTLB PAGE CROSSINGS (TLB MISS):         0 
cpu0_DTLB AVERAGE MISS LATENCY: 11.5053 cycles
cpu0_STLB TOTAL       ACCESS:    1521022  HIT:    1387601  MISS:     133421  iACCESS:     391115  iHIT:     385959  iMISS:       5156  dACCESS:    1129907  dHIT:    1001642  dMISS:     128265  itACCESS:          0  itHIT:          0  itMISS:          0  dtACCESS:          0  dtHIT:          0  dtMISS:          0
cpu0_STLB LOAD         ACCESS:    1521022  HIT:    1387601  MISS:     133421  iACCESS:     391115  iHIT:     385959  iMISS:       5156  dACCESS:    1129907  dHIT:    1001642  dMISS:     128265  itACCESS:          0  itHIT:          0  itMISS:          0  dtACCESS:          0  dtHIT:          0  dtMISS:          0
cpu0_STLB RFO          ACCESS:          0  HIT:          0  MISS:          0  iACCESS:          0  iHIT:          0  iMISS:          0  dACCESS:          0  dHIT:          0  dMISS:          0  itACCESS:          0  itHIT:          0  itMISS:          0  dtACCESS:          0  dtHIT:          0  dtMISS:          0
cpu0_STLB PREFETCH     ACCESS:          0  HIT:          0  MISS:          0  iACCESS:          0  iHIT:          0  iMISS:          0  dACCESS:          0  dHIT:          0  dMISS:          0  itACCESS:          0  itHIT:          0  itMISS:          0  dtACCESS:          0  dtHIT:          0  dtMISS:          0
cpu0_STLB WRITE        ACCESS:          0  HIT:          0  MISS:          0  iACCESS:          0  iHIT:          0  iMISS:          0  dACCESS:          0  dHIT:          0  dMISS:          0  itACCESS:          0  itHIT:          0  itMISS:          0  dtACCESS:          0  dtHIT:          0  dtMISS:          0
cpu0_STLB TRANSLATION  ACCESS:          0  HIT:          0  MISS:          0  iACCESS:          0  iHIT:          0  iMISS:          0  dACCESS:          0  dHIT:          0  dMISS:          0  itACCESS:          0  itHIT:          0  itMISS:          0  dtACCESS:          0  dtHIT:          0  dtMISS:          0
cpu0_STLB PREFETCH  REQUESTED:          0  ISSUED:          0  CROSSED:          0  USEFUL:          0  USELESS:          0
cpu0_STLB AVERAGE iMISS LATENCY: 4.02363 cycles
cpu0_STLB AVERAGE dMISS LATENCY: 91.5794 cycles
cpu0_STLB AVERAGE itMISS LATENCY: 0 cycles
cpu0_STLB AVERAGE dtMISS LATENCY: 0 cycles
cpu0_STLB PAGE CROSSINGS (TLB HIT):         0 
cpu0_STLB PAGE CROSSINGS (TLB MISS):         0 
cpu0_STLB AVERAGE MISS LATENCY: 95.6031 cycles
cpu0_L1D TOTAL       ACCESS:   41468150  HIT:   37944197  MISS:    3523953  iACCESS:          0  iHIT:          0  iMISS:          0  dACCESS:   41266544  dHIT:   37931950  dMISS:    3334594  itACCESS:       6330  itHIT:        656  itMISS:       5674  dtACCESS:     195276  dtHIT:      11591  dtMISS:     183685
cpu0_L1D LOAD         ACCESS:   18971957  HIT:   17444829  MISS:    1527128  iACCESS:          0  iHIT:          0  iMISS:          0  dACCESS:   18971957  dHIT:   17444829  dMISS:    1527128  itACCESS:          0  itHIT:          0  itMISS:          0  dtACCESS:          0  dtHIT:          0  dtMISS:          0
cpu0_L1D RFO          ACCESS:          0  HIT:          0  MISS:          0  iACCESS:          0  iHIT:          0  iMISS:          0  dACCESS:          0  dHIT:          0  dMISS:          0  itACCESS:          0  itHIT:          0  itMISS:          0  dtACCESS:          0  dtHIT:          0  dtMISS:          0
cpu0_L1D PREFETCH     ACCESS:   12156903  HIT:   10775085  MISS:    1381818  iACCESS:          0  iHIT:          0  iMISS:          0  dACCESS:   12156903  dHIT:   10775085  dMISS:    1381818  itACCESS:          0  itHIT:          0  itMISS:          0  dtACCESS:          0  dtHIT:          0  dtMISS:          0
cpu0_L1D WRITE        ACCESS:   10137684  HIT:    9712036  MISS:     425648  iACCESS:          0  iHIT:          0  iMISS:          0  dACCESS:   10137684  dHIT:    9712036  dMISS:     425648  itACCESS:          0  itHIT:          0  itMISS:          0  dtACCESS:          0  dtHIT:          0  dtMISS:          0
cpu0_L1D TRANSLATION  ACCESS:     201606  HIT:      12247  MISS:     189359  iACCESS:          0  iHIT:          0  iMISS:          0  dACCESS:          0  dHIT:          0  dMISS:          0  itACCESS:       6330  itHIT:        656  itMISS:       5674  dtACCESS:     195276  dtHIT:      11591  dtMISS:     183685
cpu0_L1D PREFETCH  REQUESTED:   18971957  ISSUED:   16945746  CROSSED:          0  USEFUL:     311789  USELESS:     705725
cpu0_L1D AVERAGE iMISS LATENCY: 0 cycles
cpu0_L1D AVERAGE dMISS LATENCY: 31.8433 cycles
cpu0_L1D AVERAGE itMISS LATENCY: 0.135774 cycles
cpu0_L1D AVERAGE dtMISS LATENCY: 2.75892 cycles
cpu0_L1D PAGE CROSSINGS (TLB HIT):         0 
cpu0_L1D PAGE CROSSINGS (TLB MISS):         0 
cpu0_L1D AVERAGE MISS LATENCY: 34.738 cycles
cpu0_L2C TOTAL       ACCESS:    7030163  HIT:    1713124  MISS:    5317039  iACCESS:    3348136  iHIT:     883023  iMISS:    2465113  dACCESS:    3505597  dHIT:     733674  dMISS:    2771923  itACCESS:       5519  itHIT:       2596  itMISS:       2923  dtACCESS:     170911  dtHIT:      93831  dtMISS:      77080
cpu0_L2C LOAD         ACCESS:    1739950  HIT:     314678  MISS:    1425272  iACCESS:     800279  iHIT:     155152  iMISS:     645127  dACCESS:     939671  dHIT:     159526  dMISS:     780145  itACCESS:          0  itHIT:          0  itMISS:          0  dtACCESS:          0  dtHIT:          0  dtMISS:          0
cpu0_L2C RFO          ACCESS:     155558  HIT:      54830  MISS:     100728  iACCESS:          0  iHIT:          0  iMISS:          0  dACCESS:     155558  dHIT:      54830  dMISS:     100728  itACCESS:          0  itHIT:          0  itMISS:          0  dtACCESS:          0  dtHIT:          0  dtMISS:          0
cpu0_L2C PREFETCH     ACCESS:    4672512  HIT:    1099949  MISS:    3572563  iACCESS:    2547857  iHIT:     727871  iMISS:    1819986  dACCESS:    2124655  dHIT:     372078  dMISS:    1752577  itACCESS:          0  itHIT:          0  itMISS:          0  dtACCESS:          0  dtHIT:          0  dtMISS:          0
cpu0_L2C WRITE        ACCESS:     285713  HIT:     147240  MISS:     138473  iACCESS:          0  iHIT:          0  iMISS:          0  dACCESS:     285713  dHIT:     147240  dMISS:     138473  itACCESS:          0  itHIT:          0  itMISS:          0  dtACCESS:          0  dtHIT:          0  dtMISS:          0
cpu0_L2C TRANSLATION  ACCESS:     176430  HIT:      96427  MISS:      80003  iACCESS:          0  iHIT:          0  iMISS:          0  dACCESS:          0  dHIT:          0  dMISS:          0  itACCESS:       5519  itHIT:       2596  itMISS:       2923  dtACCESS:     170911  dtHIT:      93831  dtMISS:      77080
cpu0_L2C PREFETCH  REQUESTED:    1394996  ISSUED:    1394996  CROSSED:          0  USEFUL:     401305  USELESS:     380730
cpu0_L2C AVERAGE iMISS LATENCY: 14.7796 cycles
cpu0_L2C AVERAGE dMISS LATENCY: 24.1674 cycles
cpu0_L2C AVERAGE itMISS LATENCY: 0.0800711 cycles
cpu0_L2C AVERAGE dtMISS LATENCY: 1.52288 cycles
cpu0_L2C PAGE CROSSINGS (TLB HIT):         0 
cpu0_L2C PAGE CROSSINGS (TLB MISS):         0 
cpu0_L2C AVERAGE MISS LATENCY: 40.55 cycles
LLC TOTAL       ACCESS:    5198593  HIT:    4438300  MISS:     760293  iACCESS:    2409124  iHIT:    2188612  iMISS:     220512  dACCESS:    2709466  dHIT:    2209202  dMISS:     500264  itACCESS:       2923  itHIT:        822  itMISS:       2101  dtACCESS:      77080  dtHIT:      39664  dtMISS:      37416
LLC LOAD         ACCESS:    1423123  HIT:    1255895  MISS:     167228  iACCESS:     643291  iHIT:     596346  iMISS:      46945  dACCESS:     779832  dHIT:     659549  dMISS:     120283  itACCESS:          0  itHIT:          0  itMISS:          0  dtACCESS:          0  dtHIT:          0  dtMISS:          0
LLC RFO          ACCESS:     100726  HIT:      64449  MISS:      36277  iACCESS:          0  iHIT:          0  iMISS:          0  dACCESS:     100726  dHIT:      64449  dMISS:      36277  itACCESS:          0  itHIT:          0  itMISS:          0  dtACCESS:          0  dtHIT:          0  dtMISS:          0
LLC PREFETCH     ACCESS:    3468876  HIT:    2960557  MISS:     508319  iACCESS:    1765833  iHIT:    1592266  iMISS:     173567  dACCESS:    1703043  dHIT:    1368291  dMISS:     334752  itACCESS:          0  itHIT:          0  itMISS:          0  dtACCESS:          0  dtHIT:          0  dtMISS:          0
LLC WRITE        ACCESS:     125865  HIT:     116913  MISS:       8952  iACCESS:          0  iHIT:          0  iMISS:          0  dACCESS:     125865  dHIT:     116913  dMISS:       8952  itACCESS:          0  itHIT:          0  itMISS:          0  dtACCESS:          0  dtHIT:          0  dtMISS:          0
LLC TRANSLATION  ACCESS:      80003  HIT:      40486  MISS:      39517  iACCESS:          0  iHIT:          0  iMISS:          0  dACCESS:          0  dHIT:          0  dMISS:          0  itACCESS:       2923  itHIT:        822  itMISS:       2101  dtACCESS:      77080  dtHIT:      39664  dtMISS:      37416
LLC PREFETCH  REQUESTED:          0  ISSUED:          0  CROSSED:          0  USEFUL:          0  USELESS:          0
LLC AVERAGE iMISS LATENCY: 42.2196 cycles
LLC AVERAGE dMISS LATENCY: 103.387 cycles
LLC AVERAGE itMISS LATENCY: 0.484369 cycles
LLC AVERAGE dtMISS LATENCY: 8.675 cycles
LLC PAGE CROSSINGS (TLB HIT):         0 
LLC PAGE CROSSINGS (TLB MISS):         0 
LLC AVERAGE MISS LATENCY: 154.766 cycles

PageTableWalker TOTAL       ACCESS:      66857  
PageTableWalker AVERAGE LATENCY: 5.09069 cycles
PageTableWalker TOTAL LATENCY: 340348 cycles

DRAM Statistics
Channel 0
 RQ ROW_BUFFER_HIT:     215107
  ROW_BUFFER_MISS:     536194
 AVG DBUS CONGESTED CYCLE:    3.61909
 WQ ROW_BUFFER_HIT:      14274
  ROW_BUFFER_MISS:      20380  FULL:          0

