last_page:0x200000000000000
VMEM_RES_CAP:0x100000
PAGE_SIZE:4096
LOG2_PAGE_SIZE:12
LOG2_PAGE_TABLE_SIZE:9
page_table_levels:5
WARNING: physical memory size is smaller than virtual memory size
FDiP enabled with aggresivity 16

*** ChampSim Multicore Out-of-Order Simulator ***

Warmup Instructions: 50000000
Simulation Instructions: 100000000
Number of CPUs: 1
Small page size: 4096
Large page size: 2097152

CPU 0 Bimodal branch predictor
Basic BTB sets: 1024 ways: 8 indirect buffer size: 4096 RAS size: 64
Instruction page size distrubution: 0
Loading instruction page size distribution from /home/bsc/bsc018186/scratch/itp_asplos25_AE/dump/srv16_ap.pdst
Data page size distrubution: 0
Loading data page size distribution from /home/bsc/bsc018186/scratch/itp_asplos25_AE/dump/srv16_ap.pdst
cpu0_L2C IP-based stride prefetcher
cpu0_L2C is using PTP replacement policy:
	TLB_STRESS_THRESHOLD:0
	PTE_EVICTION_RATIO:0
cpu0_L1D next line prefetcher
cpu0_L1I next line prefetcher
Off-chip DRAM Size: 4 GiB Channels: 1 Width: 64-bit Data Rate: 3200 MT/s
Heartbeat CPU 0 instructions: 10000000 cycles: 2500214 heartbeat IPC: 3.99966 cumulative IPC: 3.99966 (Simulation time: 0 hr 0 min 38 sec) 
Heartbeat CPU 0 instructions: 20000000 cycles: 5000221 heartbeat IPC: 3.99999 cumulative IPC: 3.99983 (Simulation time: 0 hr 1 min 18 sec) 
Heartbeat CPU 0 instructions: 30000002 cycles: 7500292 heartbeat IPC: 3.99989 cumulative IPC: 3.99985 (Simulation time: 0 hr 1 min 59 sec) 
Heartbeat CPU 0 instructions: 40000002 cycles: 10000292 heartbeat IPC: 4 cumulative IPC: 3.99989 (Simulation time: 0 hr 2 min 40 sec) 
Heartbeat CPU 0 instructions: 50000000 cycles: 12500334 heartbeat IPC: 3.99994 cumulative IPC: 3.9999 (Simulation time: 0 hr 3 min 21 sec) 
Warmup finished CPU 0 instructions: 50000000 cycles: 12500335 cumulative IPC: 3.9999 (Simulation time: 0 hr 3 min 21 sec) 

Warmup complete CPU 0 instructions: 50000000 cycles: 12500335 (Simulation time: 0 hr 3 min 21 sec) 

Heartbeat CPU 0 instructions: 60000001 cycles: 26352445 heartbeat IPC: 0.721912 cumulative IPC: 0.721912 (Simulation time: 0 hr 4 min 25 sec) 
Heartbeat CPU 0 instructions: 70000004 cycles: 40355097 heartbeat IPC: 0.714151 cumulative IPC: 0.718011 (Simulation time: 0 hr 5 min 28 sec) 
Heartbeat CPU 0 instructions: 80000003 cycles: 54470990 heartbeat IPC: 0.708422 cumulative IPC: 0.714786 (Simulation time: 0 hr 6 min 32 sec) 
Heartbeat CPU 0 instructions: 90000000 cycles: 68583526 heartbeat IPC: 0.70859 cumulative IPC: 0.713227 (Simulation time: 0 hr 7 min 36 sec) 
Heartbeat CPU 0 instructions: 100000001 cycles: 82648851 heartbeat IPC: 0.710969 cumulative IPC: 0.712774 (Simulation time: 0 hr 8 min 40 sec) 
*** Reached end of trace: /gpfs/projects/bsc18/MN4/bsc18/romol/ChampSim/traces/qualcomm_srv/srv16_ap.champsimtrace.xz
Heartbeat CPU 0 instructions: 110000002 cycles: 96999337 heartbeat IPC: 0.696841 cumulative IPC: 0.710068 (Simulation time: 0 hr 9 min 44 sec) 
Heartbeat CPU 0 instructions: 120000002 cycles: 110633281 heartbeat IPC: 0.733464 cumulative IPC: 0.713319 (Simulation time: 0 hr 10 min 48 sec) 
Heartbeat CPU 0 instructions: 130000002 cycles: 124700718 heartbeat IPC: 0.710862 cumulative IPC: 0.713011 (Simulation time: 0 hr 11 min 51 sec) 
Heartbeat CPU 0 instructions: 140000000 cycles: 138227357 heartbeat IPC: 0.739282 cumulative IPC: 0.715837 (Simulation time: 0 hr 12 min 53 sec) 
Heartbeat CPU 0 instructions: 150000001 cycles: 152431723 heartbeat IPC: 0.704009 cumulative IPC: 0.714636 (Simulation time: 0 hr 13 min 55 sec) 
Simulation finished CPU 0 instructions: 100000001 cycles: 139931389 cumulative IPC: 0.714636 (Simulation time: 0 hr 13 min 55 sec) 

Simulation complete CPU 0 instructions: 100000001 cycles: 139931389 (Simulation time: 0 hr 13 min 55 sec) 


ChampSim completed all CPUs

Saving instructions large page distribution to /home/bsc/bsc018186/scratch/itp_asplos25_AE/dump/srv16_ap.pdst...
Saving data large page distribution to /home/bsc/bsc018186/scratch/itp_asplos25_AE/dump/srv16_ap.pdst...
=== Simulation ===
CPU 0 runs /gpfs/projects/bsc18/MN4/bsc18/romol/ChampSim/traces/qualcomm_srv/srv16_ap.champsimtrace.xz

Region of Interest Statistics

CPU 0 cumulative IPC: 0.714636 instructions: 100000001 cycles: 139931389
CPU 0 Branch Prediction Accuracy: 83.3333% MPKI: 29.9146 Average ROB Occupancy at Mispredict: 12.2633
Branch type MPKI
BRANCH_DIRECT_JUMP: 0.96503
BRANCH_INDIRECT: 15.5278
BRANCH_CONDITIONAL: 9.75804
BRANCH_DIRECT_CALL: 1.83742
BRANCH_INDIRECT_CALL: 0.49222
BRANCH_RETURN: 1.33411

Instructions large pages: 0
Instructions small pages: 9894
Large page distribution for instructions: 0%

Data large pages: 0
Data small pages: 9057
Large page distribution for data: 0%

cpu0_L1I TOTAL       ACCESS:   35168588  HIT:   26523800  MISS:    8644788  iACCESS:   35168588  iHIT:   26523800  iMISS:    8644788  dACCESS:          0  dHIT:          0  dMISS:          0  itACCESS:          0  itHIT:          0  itMISS:          0  dtACCESS:          0  dtHIT:          0  dtMISS:          0
cpu0_L1I LOAD         ACCESS:   10251828  HIT:    7828773  MISS:    2423055  iACCESS:   10251828  iHIT:    7828773  iMISS:    2423055  dACCESS:          0  dHIT:          0  dMISS:          0  itACCESS:          0  itHIT:          0  itMISS:          0  dtACCESS:          0  dtHIT:          0  dtMISS:          0
cpu0_L1I RFO          ACCESS:          0  HIT:          0  MISS:          0  iACCESS:          0  iHIT:          0  iMISS:          0  dACCESS:          0  dHIT:          0  dMISS:          0  itACCESS:          0  itHIT:          0  itMISS:          0  dtACCESS:          0  dtHIT:          0  dtMISS:          0
cpu0_L1I PREFETCH     ACCESS:   24916760  HIT:   18695027  MISS:    6221733  iACCESS:   24916760  iHIT:   18695027  iMISS:    6221733  dACCESS:          0  dHIT:          0  dMISS:          0  itACCESS:          0  itHIT:          0  itMISS:          0  dtACCESS:          0  dtHIT:          0  dtMISS:          0
cpu0_L1I WRITE        ACCESS:          0  HIT:          0  MISS:          0  iACCESS:          0  iHIT:          0  iMISS:          0  dACCESS:          0  dHIT:          0  dMISS:          0  itACCESS:          0  itHIT:          0  itMISS:          0  dtACCESS:          0  dtHIT:          0  dtMISS:          0
cpu0_L1I TRANSLATION  ACCESS:          0  HIT:          0  MISS:          0  iACCESS:          0  iHIT:          0  iMISS:          0  dACCESS:          0  dHIT:          0  dMISS:          0  itACCESS:          0  itHIT:          0  itMISS:          0  dtACCESS:          0  dtHIT:          0  dtMISS:          0
cpu0_L1I PREFETCH  REQUESTED:   27145018  ISSUED:   27140144  CROSSED:          0  USEFUL:    1942549  USELESS:     636864
cpu0_L1I AVERAGE iMISS LATENCY: 13.7174 cycles
cpu0_L1I AVERAGE dMISS LATENCY: 0 cycles
cpu0_L1I AVERAGE itMISS LATENCY: 0 cycles
cpu0_L1I AVERAGE dtMISS LATENCY: 0 cycles
cpu0_L1I PAGE CROSSINGS (TLB HIT):         0 
cpu0_L1I PAGE CROSSINGS (TLB MISS):         0 
cpu0_L1I AVERAGE MISS LATENCY: 13.7174 cycles
cpu0_ITLB TOTAL       ACCESS:   29065561  HIT:   27072104  MISS:    1993457  iACCESS:   29065561  iHIT:   27072104  iMISS:    1993457  dACCESS:          0  dHIT:          0  dMISS:          0  itACCESS:          0  itHIT:          0  itMISS:          0  dtACCESS:          0  dtHIT:          0  dtMISS:          0
cpu0_ITLB LOAD         ACCESS:   29065561  HIT:   27072104  MISS:    1993457  iACCESS:   29065561  iHIT:   27072104  iMISS:    1993457  dACCESS:          0  dHIT:          0  dMISS:          0  itACCESS:          0  itHIT:          0  itMISS:          0  dtACCESS:          0  dtHIT:          0  dtMISS:          0
cpu0_ITLB RFO          ACCESS:          0  HIT:          0  MISS:          0  iACCESS:          0  iHIT:          0  iMISS:          0  dACCESS:          0  dHIT:          0  dMISS:          0  itACCESS:          0  itHIT:          0  itMISS:          0  dtACCESS:          0  dtHIT:          0  dtMISS:          0
cpu0_ITLB PREFETCH     ACCESS:          0  HIT:          0  MISS:          0  iACCESS:          0  iHIT:          0  iMISS:          0  dACCESS:          0  dHIT:          0  dMISS:          0  itACCESS:          0  itHIT:          0  itMISS:          0  dtACCESS:          0  dtHIT:          0  dtMISS:          0
cpu0_ITLB WRITE        ACCESS:          0  HIT:          0  MISS:          0  iACCESS:          0  iHIT:          0  iMISS:          0  dACCESS:          0  dHIT:          0  dMISS:          0  itACCESS:          0  itHIT:          0  itMISS:          0  dtACCESS:          0  dtHIT:          0  dtMISS:          0
cpu0_ITLB TRANSLATION  ACCESS:          0  HIT:          0  MISS:          0  iACCESS:          0  iHIT:          0  iMISS:          0  dACCESS:          0  dHIT:          0  dMISS:          0  itACCESS:          0  itHIT:          0  itMISS:          0  dtACCESS:          0  dtHIT:          0  dtMISS:          0
cpu0_ITLB PREFETCH  REQUESTED:          0  ISSUED:          0  CROSSED:          0  USEFUL:     326952  USELESS:      61953
cpu0_ITLB AVERAGE iMISS LATENCY: 2.52629 cycles
cpu0_ITLB AVERAGE dMISS LATENCY: 0 cycles
cpu0_ITLB AVERAGE itMISS LATENCY: 0 cycles
cpu0_ITLB AVERAGE dtMISS LATENCY: 0 cycles
cpu0_ITLB PAGE CROSSINGS (TLB HIT):         0 
cpu0_ITLB PAGE CROSSINGS (TLB MISS):         0 
cpu0_ITLB AVERAGE MISS LATENCY: 2.52629 cycles
cpu0_DTLB TOTAL       ACCESS:   27737670  HIT:   25631385  MISS:    2106285  iACCESS:          0  iHIT:          0  iMISS:          0  dACCESS:   27737670  dHIT:   25631385  dMISS:    2106285  itACCESS:          0  itHIT:          0  itMISS:          0  dtACCESS:          0  dtHIT:          0  dtMISS:          0
cpu0_DTLB LOAD         ACCESS:   27737670  HIT:   25631385  MISS:    2106285  iACCESS:          0  iHIT:          0  iMISS:          0  dACCESS:   27737670  dHIT:   25631385  dMISS:    2106285  itACCESS:          0  itHIT:          0  itMISS:          0  dtACCESS:          0  dtHIT:          0  dtMISS:          0
cpu0_DTLB RFO          ACCESS:          0  HIT:          0  MISS:          0  iACCESS:          0  iHIT:          0  iMISS:          0  dACCESS:          0  dHIT:          0  dMISS:          0  itACCESS:          0  itHIT:          0  itMISS:          0  dtACCESS:          0  dtHIT:          0  dtMISS:          0
cpu0_DTLB PREFETCH     ACCESS:          0  HIT:          0  MISS:          0  iACCESS:          0  iHIT:          0  iMISS:          0  dACCESS:          0  dHIT:          0  dMISS:          0  itACCESS:          0  itHIT:          0  itMISS:          0  dtACCESS:          0  dtHIT:          0  dtMISS:          0
cpu0_DTLB WRITE        ACCESS:          0  HIT:          0  MISS:          0  iACCESS:          0  iHIT:          0  iMISS:          0  dACCESS:          0  dHIT:          0  dMISS:          0  itACCESS:          0  itHIT:          0  itMISS:          0  dtACCESS:          0  dtHIT:          0  dtMISS:          0
cpu0_DTLB TRANSLATION  ACCESS:          0  HIT:          0  MISS:          0  iACCESS:          0  iHIT:          0  iMISS:          0  dACCESS:          0  dHIT:          0  dMISS:          0  itACCESS:          0  itHIT:          0  itMISS:          0  dtACCESS:          0  dtHIT:          0  dtMISS:          0
cpu0_DTLB PREFETCH  REQUESTED:          0  ISSUED:          0  CROSSED:          0  USEFUL:          0  USELESS:          0
cpu0_DTLB AVERAGE iMISS LATENCY: 0 cycles
cpu0_DTLB AVERAGE dMISS LATENCY: 8.15303 cycles
cpu0_DTLB AVERAGE itMISS LATENCY: 0 cycles
cpu0_DTLB AVERAGE dtMISS LATENCY: 0 cycles
cpu0_DTLB PAGE CROSSINGS (TLB HIT):         0 
cpu0_DTLB PAGE CROSSINGS (TLB MISS):         0 
cpu0_DTLB AVERAGE MISS LATENCY: 8.15303 cycles
cpu0_STLB TOTAL       ACCESS:    1645714  HIT:    1483255  MISS:     162459  iACCESS:     388946  iHIT:     332272  iMISS:      56674  dACCESS:    1256768  dHIT:    1150983  dMISS:     105785  itACCESS:          0  itHIT:          0  itMISS:          0  dtACCESS:          0  dtHIT:          0  dtMISS:          0
cpu0_STLB LOAD         ACCESS:    1645714  HIT:    1483255  MISS:     162459  iACCESS:     388946  iHIT:     332272  iMISS:      56674  dACCESS:    1256768  dHIT:    1150983  dMISS:     105785  itACCESS:          0  itHIT:          0  itMISS:          0  dtACCESS:          0  dtHIT:          0  dtMISS:          0
cpu0_STLB RFO          ACCESS:          0  HIT:          0  MISS:          0  iACCESS:          0  iHIT:          0  iMISS:          0  dACCESS:          0  dHIT:          0  dMISS:          0  itACCESS:          0  itHIT:          0  itMISS:          0  dtACCESS:          0  dtHIT:          0  dtMISS:          0
cpu0_STLB PREFETCH     ACCESS:          0  HIT:          0  MISS:          0  iACCESS:          0  iHIT:          0  iMISS:          0  dACCESS:          0  dHIT:          0  dMISS:          0  itACCESS:          0  itHIT:          0  itMISS:          0  dtACCESS:          0  dtHIT:          0  dtMISS:          0
cpu0_STLB WRITE        ACCESS:          0  HIT:          0  MISS:          0  iACCESS:          0  iHIT:          0  iMISS:          0  dACCESS:          0  dHIT:          0  dMISS:          0  itACCESS:          0  itHIT:          0  itMISS:          0  dtACCESS:          0  dtHIT:          0  dtMISS:          0
cpu0_STLB TRANSLATION  ACCESS:          0  HIT:          0  MISS:          0  iACCESS:          0  iHIT:          0  iMISS:          0  dACCESS:          0  dHIT:          0  dMISS:          0  itACCESS:          0  itHIT:          0  itMISS:          0  dtACCESS:          0  dtHIT:          0  dtMISS:          0
cpu0_STLB PREFETCH  REQUESTED:          0  ISSUED:          0  CROSSED:          0  USEFUL:          0  USELESS:          0
cpu0_STLB AVERAGE iMISS LATENCY: 12.1227 cycles
cpu0_STLB AVERAGE dMISS LATENCY: 44.1036 cycles
cpu0_STLB AVERAGE itMISS LATENCY: 0 cycles
cpu0_STLB AVERAGE dtMISS LATENCY: 0 cycles
cpu0_STLB PAGE CROSSINGS (TLB HIT):         0 
cpu0_STLB PAGE CROSSINGS (TLB MISS):         0 
cpu0_STLB AVERAGE MISS LATENCY: 56.2262 cycles
cpu0_L1D TOTAL       ACCESS:   41550150  HIT:   37984157  MISS:    3565993  iACCESS:          0  iHIT:          0  iMISS:          0  dACCESS:   41325182  dHIT:   37964582  dMISS:    3360600  itACCESS:      61356  itHIT:       9011  itMISS:      52345  dtACCESS:     163612  dtHIT:      10564  dtMISS:     153048
cpu0_L1D LOAD         ACCESS:   18950130  HIT:   17418600  MISS:    1531530  iACCESS:          0  iHIT:          0  iMISS:          0  dACCESS:   18950130  dHIT:   17418600  dMISS:    1531530  itACCESS:          0  itHIT:          0  itMISS:          0  dtACCESS:          0  dtHIT:          0  dtMISS:          0
cpu0_L1D RFO          ACCESS:          0  HIT:          0  MISS:          0  iACCESS:          0  iHIT:          0  iMISS:          0  dACCESS:          0  dHIT:          0  dMISS:          0  itACCESS:          0  itHIT:          0  itMISS:          0  dtACCESS:          0  dtHIT:          0  dtMISS:          0
cpu0_L1D PREFETCH     ACCESS:   12230576  HIT:   10843238  MISS:    1387338  iACCESS:          0  iHIT:          0  iMISS:          0  dACCESS:   12230576  dHIT:   10843238  dMISS:    1387338  itACCESS:          0  itHIT:          0  itMISS:          0  dtACCESS:          0  dtHIT:          0  dtMISS:          0
cpu0_L1D WRITE        ACCESS:   10144476  HIT:    9702744  MISS:     441732  iACCESS:          0  iHIT:          0  iMISS:          0  dACCESS:   10144476  dHIT:    9702744  dMISS:     441732  itACCESS:          0  itHIT:          0  itMISS:          0  dtACCESS:          0  dtHIT:          0  dtMISS:          0
cpu0_L1D TRANSLATION  ACCESS:     224968  HIT:      19575  MISS:     205393  iACCESS:          0  iHIT:          0  iMISS:          0  dACCESS:          0  dHIT:          0  dMISS:          0  itACCESS:      61356  itHIT:       9011  itMISS:      52345  dtACCESS:     163612  dtHIT:      10564  dtMISS:     153048
cpu0_L1D PREFETCH  REQUESTED:   18950130  ISSUED:   17074404  CROSSED:          0  USEFUL:     310049  USELESS:     707717
cpu0_L1D AVERAGE iMISS LATENCY: 0 cycles
cpu0_L1D AVERAGE dMISS LATENCY: 34.2509 cycles
cpu0_L1D AVERAGE itMISS LATENCY: 0.415468 cycles
cpu0_L1D AVERAGE dtMISS LATENCY: 1.37504 cycles
cpu0_L1D PAGE CROSSINGS (TLB HIT):         0 
cpu0_L1D PAGE CROSSINGS (TLB MISS):         0 
cpu0_L1D AVERAGE MISS LATENCY: 36.0414 cycles
cpu0_L2C TOTAL       ACCESS:    7038256  HIT:    1241258  MISS:    5796998  iACCESS:    3332190  iHIT:     699631  iMISS:    2632559  dACCESS:    3514101  dHIT:     380050  dMISS:    3134051  itACCESS:      52345  itHIT:      44664  itMISS:       7681  dtACCESS:     139620  dtHIT:     116913  dtMISS:      22707
cpu0_L2C LOAD         ACCESS:    1732115  HIT:     148540  MISS:    1583575  iACCESS:     792015  iHIT:     107455  iMISS:     684560  dACCESS:     940100  dHIT:      41085  dMISS:     899015  itACCESS:          0  itHIT:          0  itMISS:          0  dtACCESS:          0  dtHIT:          0  dtMISS:          0
cpu0_L2C RFO          ACCESS:     156308  HIT:       8868  MISS:     147440  iACCESS:          0  iHIT:          0  iMISS:          0  dACCESS:     156308  dHIT:       8868  dMISS:     147440  itACCESS:          0  itHIT:          0  itMISS:          0  dtACCESS:          0  dtHIT:          0  dtMISS:          0
cpu0_L2C PREFETCH     ACCESS:    4671640  HIT:     862118  MISS:    3809522  iACCESS:    2540175  iHIT:     592176  iMISS:    1947999  dACCESS:    2131465  dHIT:     269942  dMISS:    1861523  itACCESS:          0  itHIT:          0  itMISS:          0  dtACCESS:          0  dtHIT:          0  dtMISS:          0
cpu0_L2C WRITE        ACCESS:     286228  HIT:      60155  MISS:     226073  iACCESS:          0  iHIT:          0  iMISS:          0  dACCESS:     286228  dHIT:      60155  dMISS:     226073  itACCESS:          0  itHIT:          0  itMISS:          0  dtACCESS:          0  dtHIT:          0  dtMISS:          0
cpu0_L2C TRANSLATION  ACCESS:     191965  HIT:     161577  MISS:      30388  iACCESS:          0  iHIT:          0  iMISS:          0  dACCESS:          0  dHIT:          0  dMISS:          0  itACCESS:      52345  itHIT:      44664  itMISS:       7681  dtACCESS:     139620  dtHIT:     116913  dtMISS:      22707
cpu0_L2C PREFETCH  REQUESTED:    1402149  ISSUED:    1402149  CROSSED:          0  USEFUL:     422726  USELESS:     402238
cpu0_L2C AVERAGE iMISS LATENCY: 15.0233 cycles
cpu0_L2C AVERAGE dMISS LATENCY: 24.5474 cycles
cpu0_L2C AVERAGE itMISS LATENCY: 0.172821 cycles
cpu0_L2C AVERAGE dtMISS LATENCY: 0.62392 cycles
cpu0_L2C PAGE CROSSINGS (TLB HIT):         0 
cpu0_L2C PAGE CROSSINGS (TLB MISS):         0 
cpu0_L2C AVERAGE MISS LATENCY: 40.3675 cycles
LLC TOTAL       ACCESS:    5714938  HIT:    4905068  MISS:     809870  iACCESS:    2573495  iHIT:    2321677  iMISS:     251818  dACCESS:    3111055  dHIT:    2575797  dMISS:     535258  itACCESS:       7681  itHIT:       2679  itMISS:       5002  dtACCESS:      22707  dtHIT:       4915  dtMISS:      17792
LLC LOAD         ACCESS:    1581205  HIT:    1392874  MISS:     188331  iACCESS:     682718  iHIT:     626764  iMISS:      55954  dACCESS:     898487  dHIT:     766110  dMISS:     132377  itACCESS:          0  itHIT:          0  itMISS:          0  dtACCESS:          0  dtHIT:          0  dtMISS:          0
LLC RFO          ACCESS:     147435  HIT:     107862  MISS:      39573  iACCESS:          0  iHIT:          0  iMISS:          0  dACCESS:     147435  dHIT:     107862  dMISS:      39573  itACCESS:          0  itHIT:          0  itMISS:          0  dtACCESS:          0  dtHIT:          0  dtMISS:          0
LLC PREFETCH     ACCESS:    3697326  HIT:    3138154  MISS:     559172  iACCESS:    1890777  iHIT:    1694913  iMISS:     195864  dACCESS:    1806549  dHIT:    1443241  dMISS:     363308  itACCESS:          0  itHIT:          0  itMISS:          0  dtACCESS:          0  dtHIT:          0  dtMISS:          0
LLC WRITE        ACCESS:     258584  HIT:     258584  MISS:          0  iACCESS:          0  iHIT:          0  iMISS:          0  dACCESS:     258584  dHIT:     258584  dMISS:          0  itACCESS:          0  itHIT:          0  itMISS:          0  dtACCESS:          0  dtHIT:          0  dtMISS:          0
LLC TRANSLATION  ACCESS:      30388  HIT:       7594  MISS:      22794  iACCESS:          0  iHIT:          0  iMISS:          0  dACCESS:          0  dHIT:          0  dMISS:          0  itACCESS:       7681  itHIT:       2679  itMISS:       5002  dtACCESS:      22707  dtHIT:       4915  dtMISS:      17792
LLC PREFETCH  REQUESTED:          0  ISSUED:          0  CROSSED:          0  USEFUL:          0  USELESS:          0
LLC AVERAGE iMISS LATENCY: 46.1658 cycles
LLC AVERAGE dMISS LATENCY: 107.634 cycles
LLC AVERAGE itMISS LATENCY: 1.05103 cycles
LLC AVERAGE dtMISS LATENCY: 3.91384 cycles
LLC PAGE CROSSINGS (TLB HIT):         0 
LLC PAGE CROSSINGS (TLB MISS):         0 
LLC AVERAGE MISS LATENCY: 158.765 cycles

PageTableWalker TOTAL       ACCESS:      81473  
PageTableWalker AVERAGE LATENCY: 4.07786 cycles
PageTableWalker TOTAL LATENCY: 332235 cycles

DRAM Statistics
Channel 0
 RQ ROW_BUFFER_HIT:     217748
  ROW_BUFFER_MISS:     592063
 AVG DBUS CONGESTED CYCLE:    3.62578
 WQ ROW_BUFFER_HIT:      21200
  ROW_BUFFER_MISS:      30522  FULL:          0

