last_page:0x200000000000000
VMEM_RES_CAP:0x100000
PAGE_SIZE:4096
LOG2_PAGE_SIZE:12
LOG2_PAGE_TABLE_SIZE:9
page_table_levels:5
WARNING: physical memory size is smaller than virtual memory size
FDiP enabled with aggresivity 16

*** ChampSim Multicore Out-of-Order Simulator ***

Warmup Instructions: 50000000
Simulation Instructions: 100000000
Number of CPUs: 1
Small page size: 4096
Large page size: 2097152

CPU 0 Bimodal branch predictor
Basic BTB sets: 1024 ways: 8 indirect buffer size: 4096 RAS size: 64
Instruction page size distrubution: 0
Loading instruction page size distribution from /home/bsc/bsc018186/scratch/itp_asplos25_AE/dump/srv194_ap.pdst
Data page size distrubution: 0
Loading data page size distribution from /home/bsc/bsc018186/scratch/itp_asplos25_AE/dump/srv194_ap.pdst
cpu0_L2C IP-based stride prefetcher
cpu0_L1D next line prefetcher
cpu0_STLB using iTP with max lru@8
cpu0_STLB using iTP with instr@0 and data@2
Init sat counter with 3 bits (max:50).
cpu0_L1I next line prefetcher
Off-chip DRAM Size: 4 GiB Channels: 1 Width: 64-bit Data Rate: 3200 MT/s
Heartbeat CPU 0 instructions: 10000003 cycles: 2500171 heartbeat IPC: 3.99973 cumulative IPC: 3.99973 (Simulation time: 0 hr 0 min 38 sec) 
Heartbeat CPU 0 instructions: 20000002 cycles: 5001620 heartbeat IPC: 3.99769 cumulative IPC: 3.99871 (Simulation time: 0 hr 1 min 18 sec) 
Heartbeat CPU 0 instructions: 30000003 cycles: 7883922 heartbeat IPC: 3.46945 cumulative IPC: 3.80522 (Simulation time: 0 hr 1 min 57 sec) 
Heartbeat CPU 0 instructions: 40000003 cycles: 10539934 heartbeat IPC: 3.76505 cumulative IPC: 3.7951 (Simulation time: 0 hr 2 min 38 sec) 
Heartbeat CPU 0 instructions: 50000000 cycles: 13040037 heartbeat IPC: 3.99984 cumulative IPC: 3.83435 (Simulation time: 0 hr 3 min 19 sec) 
Warmup finished CPU 0 instructions: 50000000 cycles: 13040038 cumulative IPC: 3.83435 (Simulation time: 0 hr 3 min 19 sec) 

Warmup complete CPU 0 instructions: 50000000 cycles: 13040038 (Simulation time: 0 hr 3 min 19 sec) 

Heartbeat CPU 0 instructions: 60000002 cycles: 35547139 heartbeat IPC: 0.444305 cumulative IPC: 0.444305 (Simulation time: 0 hr 4 min 35 sec) 
Heartbeat CPU 0 instructions: 70000001 cycles: 59007641 heartbeat IPC: 0.426249 cumulative IPC: 0.43509 (Simulation time: 0 hr 5 min 50 sec) 
Heartbeat CPU 0 instructions: 80000003 cycles: 75363433 heartbeat IPC: 0.611405 cumulative IPC: 0.481361 (Simulation time: 0 hr 6 min 56 sec) 
Heartbeat CPU 0 instructions: 90000001 cycles: 85055544 heartbeat IPC: 1.03177 cumulative IPC: 0.555436 (Simulation time: 0 hr 7 min 51 sec) 
Heartbeat CPU 0 instructions: 100000002 cycles: 106836734 heartbeat IPC: 0.459112 cumulative IPC: 0.533068 (Simulation time: 0 hr 9 min 2 sec) 
*** Reached end of trace: /gpfs/projects/bsc18/MN4/bsc18/romol/ChampSim/traces/qualcomm_srv/srv194_ap.champsimtrace.xz
Heartbeat CPU 0 instructions: 110000002 cycles: 129745420 heartbeat IPC: 0.436516 cumulative IPC: 0.514116 (Simulation time: 0 hr 10 min 17 sec) 
Heartbeat CPU 0 instructions: 120000000 cycles: 152422798 heartbeat IPC: 0.440968 cumulative IPC: 0.502215 (Simulation time: 0 hr 11 min 30 sec) 
Heartbeat CPU 0 instructions: 130000001 cycles: 163576263 heartbeat IPC: 0.896583 cumulative IPC: 0.531434 (Simulation time: 0 hr 12 min 26 sec) 
Heartbeat CPU 0 instructions: 140000001 cycles: 175804947 heartbeat IPC: 0.81775 cumulative IPC: 0.552945 (Simulation time: 0 hr 13 min 26 sec) 
Heartbeat CPU 0 instructions: 150000003 cycles: 199205244 heartbeat IPC: 0.427346 cumulative IPC: 0.537158 (Simulation time: 0 hr 14 min 41 sec) 
Simulation finished CPU 0 instructions: 100000003 cycles: 186165207 cumulative IPC: 0.537158 (Simulation time: 0 hr 14 min 41 sec) 

Simulation complete CPU 0 instructions: 100000003 cycles: 186165207 (Simulation time: 0 hr 14 min 41 sec) 


ChampSim completed all CPUs

Saving instructions large page distribution to /home/bsc/bsc018186/scratch/itp_asplos25_AE/dump/srv194_ap.pdst...
Saving data large page distribution to /home/bsc/bsc018186/scratch/itp_asplos25_AE/dump/srv194_ap.pdst...
=== Simulation ===
CPU 0 runs /gpfs/projects/bsc18/MN4/bsc18/romol/ChampSim/traces/qualcomm_srv/srv194_ap.champsimtrace.xz

Region of Interest Statistics

CPU 0 cumulative IPC: 0.537158 instructions: 100000003 cycles: 186165207
CPU 0 Branch Prediction Accuracy: 84.5002% MPKI: 31.9989 Average ROB Occupancy at Mispredict: 12.0293
Branch type MPKI
BRANCH_DIRECT_JUMP: 1.09386
BRANCH_INDIRECT: 16.0702
BRANCH_CONDITIONAL: 10.3626
BRANCH_DIRECT_CALL: 2.0325
BRANCH_INDIRECT_CALL: 1.02917
BRANCH_RETURN: 1.41063

Instructions large pages: 0
Instructions small pages: 1703
Large page distribution for instructions: 0%

Data large pages: 0
Data small pages: 5948
Large page distribution for data: 0%

cpu0_L1I TOTAL       ACCESS:   32674736  HIT:   26470778  MISS:    6203958  iACCESS:   32674736  iHIT:   26470778  iMISS:    6203958  dACCESS:          0  dHIT:          0  dMISS:          0  itACCESS:          0  itHIT:          0  itMISS:          0  dtACCESS:          0  dtHIT:          0  dtMISS:          0
cpu0_L1I LOAD         ACCESS:    7547140  HIT:    5822104  MISS:    1725036  iACCESS:    7547140  iHIT:    5822104  iMISS:    1725036  dACCESS:          0  dHIT:          0  dMISS:          0  itACCESS:          0  itHIT:          0  itMISS:          0  dtACCESS:          0  dtHIT:          0  dtMISS:          0
cpu0_L1I RFO          ACCESS:          0  HIT:          0  MISS:          0  iACCESS:          0  iHIT:          0  iMISS:          0  dACCESS:          0  dHIT:          0  dMISS:          0  itACCESS:          0  itHIT:          0  itMISS:          0  dtACCESS:          0  dtHIT:          0  dtMISS:          0
cpu0_L1I PREFETCH     ACCESS:   25127596  HIT:   20648674  MISS:    4478922  iACCESS:   25127596  iHIT:   20648674  iMISS:    4478922  dACCESS:          0  dHIT:          0  dMISS:          0  itACCESS:          0  itHIT:          0  itMISS:          0  dtACCESS:          0  dtHIT:          0  dtMISS:          0
cpu0_L1I WRITE        ACCESS:          0  HIT:          0  MISS:          0  iACCESS:          0  iHIT:          0  iMISS:          0  dACCESS:          0  dHIT:          0  dMISS:          0  itACCESS:          0  itHIT:          0  itMISS:          0  dtACCESS:          0  dtHIT:          0  dtMISS:          0
cpu0_L1I TRANSLATION  ACCESS:          0  HIT:          0  MISS:          0  iACCESS:          0  iHIT:          0  iMISS:          0  dACCESS:          0  dHIT:          0  dMISS:          0  itACCESS:          0  itHIT:          0  itMISS:          0  dtACCESS:          0  dtHIT:          0  dtMISS:          0
cpu0_L1I PREFETCH  REQUESTED:   26739169  ISSUED:   26739167  CROSSED:          0  USEFUL:    1526112  USELESS:     557122
cpu0_L1I AVERAGE iMISS LATENCY: 21.329 cycles
cpu0_L1I AVERAGE dMISS LATENCY: 0 cycles
cpu0_L1I AVERAGE itMISS LATENCY: 0 cycles
cpu0_L1I AVERAGE dtMISS LATENCY: 0 cycles
cpu0_L1I PAGE CROSSINGS (TLB HIT):         0 
cpu0_L1I PAGE CROSSINGS (TLB MISS):         0 
cpu0_L1I AVERAGE MISS LATENCY: 21.329 cycles
cpu0_ITLB TOTAL       ACCESS:   28009134  HIT:   26476739  MISS:    1532395  iACCESS:   28009134  iHIT:   26476739  iMISS:    1532395  dACCESS:          0  dHIT:          0  dMISS:          0  itACCESS:          0  itHIT:          0  itMISS:          0  dtACCESS:          0  dtHIT:          0  dtMISS:          0
cpu0_ITLB LOAD         ACCESS:   28009134  HIT:   26476739  MISS:    1532395  iACCESS:   28009134  iHIT:   26476739  iMISS:    1532395  dACCESS:          0  dHIT:          0  dMISS:          0  itACCESS:          0  itHIT:          0  itMISS:          0  dtACCESS:          0  dtHIT:          0  dtMISS:          0
cpu0_ITLB RFO          ACCESS:          0  HIT:          0  MISS:          0  iACCESS:          0  iHIT:          0  iMISS:          0  dACCESS:          0  dHIT:          0  dMISS:          0  itACCESS:          0  itHIT:          0  itMISS:          0  dtACCESS:          0  dtHIT:          0  dtMISS:          0
cpu0_ITLB PREFETCH     ACCESS:          0  HIT:          0  MISS:          0  iACCESS:          0  iHIT:          0  iMISS:          0  dACCESS:          0  dHIT:          0  dMISS:          0  itACCESS:          0  itHIT:          0  itMISS:          0  dtACCESS:          0  dtHIT:          0  dtMISS:          0
cpu0_ITLB WRITE        ACCESS:          0  HIT:          0  MISS:          0  iACCESS:          0  iHIT:          0  iMISS:          0  dACCESS:          0  dHIT:          0  dMISS:          0  itACCESS:          0  itHIT:          0  itMISS:          0  dtACCESS:          0  dtHIT:          0  dtMISS:          0
cpu0_ITLB TRANSLATION  ACCESS:          0  HIT:          0  MISS:          0  iACCESS:          0  iHIT:          0  iMISS:          0  dACCESS:          0  dHIT:          0  dMISS:          0  itACCESS:          0  itHIT:          0  itMISS:          0  dtACCESS:          0  dtHIT:          0  dtMISS:          0
cpu0_ITLB PREFETCH  REQUESTED:          0  ISSUED:          0  CROSSED:          0  USEFUL:     262875  USELESS:      54453
cpu0_ITLB AVERAGE iMISS LATENCY: 4.93546 cycles
cpu0_ITLB AVERAGE dMISS LATENCY: 0 cycles
cpu0_ITLB AVERAGE itMISS LATENCY: 0 cycles
cpu0_ITLB AVERAGE dtMISS LATENCY: 0 cycles
cpu0_ITLB PAGE CROSSINGS (TLB HIT):         0 
cpu0_ITLB PAGE CROSSINGS (TLB MISS):         0 
cpu0_ITLB AVERAGE MISS LATENCY: 4.93546 cycles
cpu0_DTLB TOTAL       ACCESS:   31823654  HIT:   25900642  MISS:    5923012  iACCESS:          0  iHIT:          0  iMISS:          0  dACCESS:   31823654  dHIT:   25900642  dMISS:    5923012  itACCESS:          0  itHIT:          0  itMISS:          0  dtACCESS:          0  dtHIT:          0  dtMISS:          0
cpu0_DTLB LOAD         ACCESS:   31823654  HIT:   25900642  MISS:    5923012  iACCESS:          0  iHIT:          0  iMISS:          0  dACCESS:   31823654  dHIT:   25900642  dMISS:    5923012  itACCESS:          0  itHIT:          0  itMISS:          0  dtACCESS:          0  dtHIT:          0  dtMISS:          0
cpu0_DTLB RFO          ACCESS:          0  HIT:          0  MISS:          0  iACCESS:          0  iHIT:          0  iMISS:          0  dACCESS:          0  dHIT:          0  dMISS:          0  itACCESS:          0  itHIT:          0  itMISS:          0  dtACCESS:          0  dtHIT:          0  dtMISS:          0
cpu0_DTLB PREFETCH     ACCESS:          0  HIT:          0  MISS:          0  iACCESS:          0  iHIT:          0  iMISS:          0  dACCESS:          0  dHIT:          0  dMISS:          0  itACCESS:          0  itHIT:          0  itMISS:          0  dtACCESS:          0  dtHIT:          0  dtMISS:          0
cpu0_DTLB WRITE        ACCESS:          0  HIT:          0  MISS:          0  iACCESS:          0  iHIT:          0  iMISS:          0  dACCESS:          0  dHIT:          0  dMISS:          0  itACCESS:          0  itHIT:          0  itMISS:          0  dtACCESS:          0  dtHIT:          0  dtMISS:          0
cpu0_DTLB TRANSLATION  ACCESS:          0  HIT:          0  MISS:          0  iACCESS:          0  iHIT:          0  iMISS:          0  dACCESS:          0  dHIT:          0  dMISS:          0  itACCESS:          0  itHIT:          0  itMISS:          0  dtACCESS:          0  dtHIT:          0  dtMISS:          0
cpu0_DTLB PREFETCH  REQUESTED:          0  ISSUED:          0  CROSSED:          0  USEFUL:          0  USELESS:          0
cpu0_DTLB AVERAGE iMISS LATENCY: 0 cycles
cpu0_DTLB AVERAGE dMISS LATENCY: 9.3942 cycles
cpu0_DTLB AVERAGE itMISS LATENCY: 0 cycles
cpu0_DTLB AVERAGE dtMISS LATENCY: 0 cycles
cpu0_DTLB PAGE CROSSINGS (TLB HIT):         0 
cpu0_DTLB PAGE CROSSINGS (TLB MISS):         0 
cpu0_DTLB AVERAGE MISS LATENCY: 9.3942 cycles
cpu0_STLB TOTAL       ACCESS:    3316082  HIT:    3136208  MISS:     179874  iACCESS:     317331  iHIT:     286181  iMISS:      31150  dACCESS:    2998751  dHIT:    2850027  dMISS:     148724  itACCESS:          0  itHIT:          0  itMISS:          0  dtACCESS:          0  dtHIT:          0  dtMISS:          0
cpu0_STLB LOAD         ACCESS:    3316082  HIT:    3136208  MISS:     179874  iACCESS:     317331  iHIT:     286181  iMISS:      31150  dACCESS:    2998751  dHIT:    2850027  dMISS:     148724  itACCESS:          0  itHIT:          0  itMISS:          0  dtACCESS:          0  dtHIT:          0  dtMISS:          0
cpu0_STLB RFO          ACCESS:          0  HIT:          0  MISS:          0  iACCESS:          0  iHIT:          0  iMISS:          0  dACCESS:          0  dHIT:          0  dMISS:          0  itACCESS:          0  itHIT:          0  itMISS:          0  dtACCESS:          0  dtHIT:          0  dtMISS:          0
cpu0_STLB PREFETCH     ACCESS:          0  HIT:          0  MISS:          0  iACCESS:          0  iHIT:          0  iMISS:          0  dACCESS:          0  dHIT:          0  dMISS:          0  itACCESS:          0  itHIT:          0  itMISS:          0  dtACCESS:          0  dtHIT:          0  dtMISS:          0
cpu0_STLB WRITE        ACCESS:          0  HIT:          0  MISS:          0  iACCESS:          0  iHIT:          0  iMISS:          0  dACCESS:          0  dHIT:          0  dMISS:          0  itACCESS:          0  itHIT:          0  itMISS:          0  dtACCESS:          0  dtHIT:          0  dtMISS:          0
cpu0_STLB TRANSLATION  ACCESS:          0  HIT:          0  MISS:          0  iACCESS:          0  iHIT:          0  iMISS:          0  dACCESS:          0  dHIT:          0  dMISS:          0  itACCESS:          0  itHIT:          0  itMISS:          0  dtACCESS:          0  dtHIT:          0  dtMISS:          0
cpu0_STLB PREFETCH  REQUESTED:          0  ISSUED:          0  CROSSED:          0  USEFUL:          0  USELESS:          0
cpu0_STLB AVERAGE iMISS LATENCY: 28.218 cycles
cpu0_STLB AVERAGE dMISS LATENCY: 173.796 cycles
cpu0_STLB AVERAGE itMISS LATENCY: 0 cycles
cpu0_STLB AVERAGE dtMISS LATENCY: 0 cycles
cpu0_STLB PAGE CROSSINGS (TLB HIT):         0 
cpu0_STLB PAGE CROSSINGS (TLB MISS):         0 
cpu0_STLB AVERAGE MISS LATENCY: 202.014 cycles
cpu0_L1D TOTAL       ACCESS:   48365215  HIT:   40378815  MISS:    7986400  iACCESS:          0  iHIT:          0  iMISS:          0  dACCESS:   48114637  dHIT:   40362370  dMISS:    7752267  itACCESS:      36300  itHIT:       3565  itMISS:      32735  dtACCESS:     214278  dtHIT:      12880  dtMISS:     201398
cpu0_L1D LOAD         ACCESS:   24052078  HIT:   19083471  MISS:    4968607  iACCESS:          0  iHIT:          0  iMISS:          0  dACCESS:   24052078  dHIT:   19083471  dMISS:    4968607  itACCESS:          0  itHIT:          0  itMISS:          0  dtACCESS:          0  dtHIT:          0  dtMISS:          0
cpu0_L1D RFO          ACCESS:          0  HIT:          0  MISS:          0  iACCESS:          0  iHIT:          0  iMISS:          0  dACCESS:          0  dHIT:          0  dMISS:          0  itACCESS:          0  itHIT:          0  itMISS:          0  dtACCESS:          0  dtHIT:          0  dtMISS:          0
cpu0_L1D PREFETCH     ACCESS:   14398847  HIT:   12125603  MISS:    2273244  iACCESS:          0  iHIT:          0  iMISS:          0  dACCESS:   14398847  dHIT:   12125603  dMISS:    2273244  itACCESS:          0  itHIT:          0  itMISS:          0  dtACCESS:          0  dtHIT:          0  dtMISS:          0
cpu0_L1D WRITE        ACCESS:    9663712  HIT:    9153296  MISS:     510416  iACCESS:          0  iHIT:          0  iMISS:          0  dACCESS:    9663712  dHIT:    9153296  dMISS:     510416  itACCESS:          0  itHIT:          0  itMISS:          0  dtACCESS:          0  dtHIT:          0  dtMISS:          0
cpu0_L1D TRANSLATION  ACCESS:     250578  HIT:      16445  MISS:     234133  iACCESS:          0  iHIT:          0  iMISS:          0  dACCESS:          0  dHIT:          0  dMISS:          0  itACCESS:      36300  itHIT:       3565  itMISS:      32735  dtACCESS:     214278  dtHIT:      12880  dtMISS:     201398
cpu0_L1D PREFETCH  REQUESTED:   24052078  ISSUED:   18521618  CROSSED:          0  USEFUL:     237687  USELESS:     874526
cpu0_L1D AVERAGE iMISS LATENCY: 0 cycles
cpu0_L1D AVERAGE dMISS LATENCY: 24.7571 cycles
cpu0_L1D AVERAGE itMISS LATENCY: 0.595555 cycles
cpu0_L1D AVERAGE dtMISS LATENCY: 3.64804 cycles
cpu0_L1D PAGE CROSSINGS (TLB HIT):         0 
cpu0_L1D PAGE CROSSINGS (TLB MISS):         0 
cpu0_L1D AVERAGE MISS LATENCY: 29.0007 cycles
cpu0_L2C TOTAL       ACCESS:    9041192  HIT:    6211159  MISS:    2830033  iACCESS:    2686261  iHIT:    1624259  iMISS:    1062002  dACCESS:    6138115  dHIT:    4552139  dMISS:    1585976  itACCESS:      31278  itHIT:       5421  itMISS:      25857  dtACCESS:     185538  dtHIT:      29340  dtMISS:     156198
cpu0_L2C LOAD         ACCESS:    4324281  HIT:    3668219  MISS:     656062  iACCESS:     627899  iHIT:     410931  iMISS:     216968  dACCESS:    3696382  dHIT:    3257288  dMISS:     439094  itACCESS:          0  itHIT:          0  itMISS:          0  dtACCESS:          0  dtHIT:          0  dtMISS:          0
cpu0_L2C RFO          ACCESS:     181040  HIT:      84306  MISS:      96734  iACCESS:          0  iHIT:          0  iMISS:          0  dACCESS:     181040  dHIT:      84306  dMISS:      96734  itACCESS:          0  itHIT:          0  itMISS:          0  dtACCESS:          0  dtHIT:          0  dtMISS:          0
cpu0_L2C PREFETCH     ACCESS:    4106015  HIT:    2212182  MISS:    1893833  iACCESS:    2058362  iHIT:    1213328  iMISS:     845034  dACCESS:    2047653  dHIT:     998854  dMISS:    1048799  itACCESS:          0  itHIT:          0  itMISS:          0  dtACCESS:          0  dtHIT:          0  dtMISS:          0
cpu0_L2C WRITE        ACCESS:     213040  HIT:     211691  MISS:       1349  iACCESS:          0  iHIT:          0  iMISS:          0  dACCESS:     213040  dHIT:     211691  dMISS:       1349  itACCESS:          0  itHIT:          0  itMISS:          0  dtACCESS:          0  dtHIT:          0  dtMISS:          0
cpu0_L2C TRANSLATION  ACCESS:     216816  HIT:      34761  MISS:     182055  iACCESS:          0  iHIT:          0  iMISS:          0  dACCESS:          0  dHIT:          0  dMISS:          0  itACCESS:      31278  itHIT:       5421  itMISS:      25857  dtACCESS:     185538  dtHIT:      29340  dtMISS:     156198
cpu0_L2C PREFETCH  REQUESTED:    1103704  ISSUED:    1103703  CROSSED:          0  USEFUL:     247454  USELESS:     227799
cpu0_L2C AVERAGE iMISS LATENCY: 38.6266 cycles
cpu0_L2C AVERAGE dMISS LATENCY: 69.1477 cycles
cpu0_L2C AVERAGE itMISS LATENCY: 1.57175 cycles
cpu0_L2C AVERAGE dtMISS LATENCY: 9.64552 cycles
cpu0_L2C PAGE CROSSINGS (TLB HIT):         0 
cpu0_L2C PAGE CROSSINGS (TLB MISS):         0 
cpu0_L2C AVERAGE MISS LATENCY: 118.992 cycles
LLC TOTAL       ACCESS:    2812068  HIT:    1089736  MISS:    1722332  iACCESS:    1004790  iHIT:     416066  iMISS:     588724  dACCESS:    1625223  dHIT:     639873  dMISS:     985350  itACCESS:      25857  itHIT:       3561  itMISS:      22296  dtACCESS:     156198  dtHIT:      30236  dtMISS:     125962
LLC LOAD         ACCESS:     650155  HIT:     259166  MISS:     390989  iACCESS:     216078  iHIT:      91917  iMISS:     124161  dACCESS:     434077  dHIT:     167249  dMISS:     266828  itACCESS:          0  itHIT:          0  itMISS:          0  dtACCESS:          0  dtHIT:          0  dtMISS:          0
LLC RFO          ACCESS:      96728  HIT:      29525  MISS:      67203  iACCESS:          0  iHIT:          0  iMISS:          0  dACCESS:      96728  dHIT:      29525  dMISS:      67203  itACCESS:          0  itHIT:          0  itMISS:          0  dtACCESS:          0  dtHIT:          0  dtMISS:          0
LLC PREFETCH     ACCESS:    1759710  HIT:     650312  MISS:    1109398  iACCESS:     788712  iHIT:     324149  iMISS:     464563  dACCESS:     970998  dHIT:     326163  dMISS:     644835  itACCESS:          0  itHIT:          0  itMISS:          0  dtACCESS:          0  dtHIT:          0  dtMISS:          0
LLC WRITE        ACCESS:     123420  HIT:     116936  MISS:       6484  iACCESS:          0  iHIT:          0  iMISS:          0  dACCESS:     123420  dHIT:     116936  dMISS:       6484  itACCESS:          0  itHIT:          0  itMISS:          0  dtACCESS:          0  dtHIT:          0  dtMISS:          0
LLC TRANSLATION  ACCESS:     182055  HIT:      33797  MISS:     148258  iACCESS:          0  iHIT:          0  iMISS:          0  dACCESS:          0  dHIT:          0  dMISS:          0  itACCESS:      25857  itHIT:       3561  itMISS:      22296  dtACCESS:     156198  dtHIT:      30236  dtMISS:     125962
LLC PREFETCH  REQUESTED:          0  ISSUED:          0  CROSSED:          0  USEFUL:          0  USELESS:          0
LLC AVERAGE iMISS LATENCY: 52.0382 cycles
LLC AVERAGE dMISS LATENCY: 97.497 cycles
LLC AVERAGE itMISS LATENCY: 2.28568 cycles
LLC AVERAGE dtMISS LATENCY: 14.062 cycles
LLC PAGE CROSSINGS (TLB HIT):         0 
LLC PAGE CROSSINGS (TLB MISS):         0 
LLC AVERAGE MISS LATENCY: 165.883 cycles

PageTableWalker TOTAL       ACCESS:      88212  
PageTableWalker AVERAGE LATENCY: 5.49912 cycles
PageTableWalker TOTAL LATENCY: 485088 cycles

DRAM Statistics
Channel 0
 RQ ROW_BUFFER_HIT:     444491
  ROW_BUFFER_MISS:    1259392
 AVG DBUS CONGESTED CYCLE:     3.6436
 WQ ROW_BUFFER_HIT:      35205
  ROW_BUFFER_MISS:      26663  FULL:          0

