last_page:0x200000000000000
VMEM_RES_CAP:0x100000
PAGE_SIZE:4096
LOG2_PAGE_SIZE:12
LOG2_PAGE_TABLE_SIZE:9
page_table_levels:5
WARNING: physical memory size is smaller than virtual memory size
FDiP enabled with aggresivity 16

*** ChampSim Multicore Out-of-Order Simulator ***

Warmup Instructions: 50000000
Simulation Instructions: 100000000
Number of CPUs: 1
Small page size: 4096
Large page size: 2097152

CPU 0 Bimodal branch predictor
Basic BTB sets: 1024 ways: 8 indirect buffer size: 4096 RAS size: 64
Instruction page size distrubution: 0
Loading instruction page size distribution from /home/bsc/bsc018186/scratch/itp_asplos25_AE/dump/srv162_ap.pdst
Data page size distrubution: 0
Loading data page size distribution from /home/bsc/bsc018186/scratch/itp_asplos25_AE/dump/srv162_ap.pdst
cpu0_L2C IP-based stride prefetcher
cpu0_L1D next line prefetcher
cpu0_STLB using iTP with max lru@8
cpu0_STLB using iTP with instr@0 and data@2
Init sat counter with 3 bits (max:50).
cpu0_L1I next line prefetcher
Off-chip DRAM Size: 4 GiB Channels: 1 Width: 64-bit Data Rate: 3200 MT/s
Heartbeat CPU 0 instructions: 10000003 cycles: 2500154 heartbeat IPC: 3.99976 cumulative IPC: 3.99976 (Simulation time: 0 hr 0 min 37 sec) 
Heartbeat CPU 0 instructions: 20000002 cycles: 5001820 heartbeat IPC: 3.99734 cumulative IPC: 3.99855 (Simulation time: 0 hr 1 min 16 sec) 
Heartbeat CPU 0 instructions: 30000001 cycles: 7501918 heartbeat IPC: 3.99985 cumulative IPC: 3.99898 (Simulation time: 0 hr 1 min 56 sec) 
Heartbeat CPU 0 instructions: 40000001 cycles: 10001918 heartbeat IPC: 4 cumulative IPC: 3.99924 (Simulation time: 0 hr 2 min 36 sec) 
Heartbeat CPU 0 instructions: 50000003 cycles: 12501927 heartbeat IPC: 3.99999 cumulative IPC: 3.99939 (Simulation time: 0 hr 3 min 17 sec) 
Warmup finished CPU 0 instructions: 50000003 cycles: 12501928 cumulative IPC: 3.99939 (Simulation time: 0 hr 3 min 17 sec) 

Warmup complete CPU 0 instructions: 50000003 cycles: 12501928 (Simulation time: 0 hr 3 min 17 sec) 

Heartbeat CPU 0 instructions: 60000001 cycles: 26483490 heartbeat IPC: 0.715228 cumulative IPC: 0.715228 (Simulation time: 0 hr 4 min 20 sec) 
Heartbeat CPU 0 instructions: 70000004 cycles: 40618165 heartbeat IPC: 0.707481 cumulative IPC: 0.711333 (Simulation time: 0 hr 5 min 25 sec) 
Heartbeat CPU 0 instructions: 80000003 cycles: 54930029 heartbeat IPC: 0.698721 cumulative IPC: 0.707079 (Simulation time: 0 hr 6 min 30 sec) 
Heartbeat CPU 0 instructions: 90000000 cycles: 68859518 heartbeat IPC: 0.717902 cumulative IPC: 0.709754 (Simulation time: 0 hr 7 min 36 sec) 
Heartbeat CPU 0 instructions: 100000000 cycles: 82744476 heartbeat IPC: 0.720204 cumulative IPC: 0.71182 (Simulation time: 0 hr 8 min 41 sec) 
*** Reached end of trace: /gpfs/projects/bsc18/MN4/bsc18/romol/ChampSim/traces/qualcomm_srv/srv162_ap.champsimtrace.xz
Heartbeat CPU 0 instructions: 110000003 cycles: 95992408 heartbeat IPC: 0.754836 cumulative IPC: 0.718645 (Simulation time: 0 hr 9 min 45 sec) 
Heartbeat CPU 0 instructions: 120000000 cycles: 110301409 heartbeat IPC: 0.698861 cumulative IPC: 0.715751 (Simulation time: 0 hr 10 min 50 sec) 
Heartbeat CPU 0 instructions: 130000001 cycles: 124013123 heartbeat IPC: 0.729304 cumulative IPC: 0.717417 (Simulation time: 0 hr 11 min 54 sec) 
Heartbeat CPU 0 instructions: 140000004 cycles: 137275563 heartbeat IPC: 0.75401 cumulative IPC: 0.721307 (Simulation time: 0 hr 12 min 58 sec) 
Heartbeat CPU 0 instructions: 150000001 cycles: 151464736 heartbeat IPC: 0.704763 cumulative IPC: 0.719617 (Simulation time: 0 hr 14 min 2 sec) 
Simulation finished CPU 0 instructions: 100000000 cycles: 138962810 cumulative IPC: 0.719617 (Simulation time: 0 hr 14 min 2 sec) 

Simulation complete CPU 0 instructions: 100000000 cycles: 138962810 (Simulation time: 0 hr 14 min 2 sec) 


ChampSim completed all CPUs

Saving instructions large page distribution to /home/bsc/bsc018186/scratch/itp_asplos25_AE/dump/srv162_ap.pdst...
Saving data large page distribution to /home/bsc/bsc018186/scratch/itp_asplos25_AE/dump/srv162_ap.pdst...
=== Simulation ===
CPU 0 runs /gpfs/projects/bsc18/MN4/bsc18/romol/ChampSim/traces/qualcomm_srv/srv162_ap.champsimtrace.xz

Region of Interest Statistics

CPU 0 cumulative IPC: 0.719617 instructions: 100000000 cycles: 138962810
CPU 0 Branch Prediction Accuracy: 83.3515% MPKI: 29.89 Average ROB Occupancy at Mispredict: 12.2667
Branch type MPKI
BRANCH_DIRECT_JUMP: 0.958501
BRANCH_INDIRECT: 15.4862
BRANCH_CONDITIONAL: 9.78296
BRANCH_DIRECT_CALL: 1.8333
BRANCH_INDIRECT_CALL: 0.498451
BRANCH_RETURN: 1.33068

Instructions large pages: 0
Instructions small pages: 10372
Large page distribution for instructions: 0%

Data large pages: 0
Data small pages: 9441
Large page distribution for data: 0%

cpu0_L1I TOTAL       ACCESS:   34981689  HIT:   26509458  MISS:    8472231  iACCESS:   34981689  iHIT:   26509458  iMISS:    8472231  dACCESS:          0  dHIT:          0  dMISS:          0  itACCESS:          0  itHIT:          0  itMISS:          0  dtACCESS:          0  dtHIT:          0  dtMISS:          0
cpu0_L1I LOAD         ACCESS:   10176432  HIT:    7807660  MISS:    2368772  iACCESS:   10176432  iHIT:    7807660  iMISS:    2368772  dACCESS:          0  dHIT:          0  dMISS:          0  itACCESS:          0  itHIT:          0  itMISS:          0  dtACCESS:          0  dtHIT:          0  dtMISS:          0
cpu0_L1I RFO          ACCESS:          0  HIT:          0  MISS:          0  iACCESS:          0  iHIT:          0  iMISS:          0  dACCESS:          0  dHIT:          0  dMISS:          0  itACCESS:          0  itHIT:          0  itMISS:          0  dtACCESS:          0  dtHIT:          0  dtMISS:          0
cpu0_L1I PREFETCH     ACCESS:   24805257  HIT:   18701798  MISS:    6103459  iACCESS:   24805257  iHIT:   18701798  iMISS:    6103459  dACCESS:          0  dHIT:          0  dMISS:          0  itACCESS:          0  itHIT:          0  itMISS:          0  dtACCESS:          0  dtHIT:          0  dtMISS:          0
cpu0_L1I WRITE        ACCESS:          0  HIT:          0  MISS:          0  iACCESS:          0  iHIT:          0  iMISS:          0  dACCESS:          0  dHIT:          0  dMISS:          0  itACCESS:          0  itHIT:          0  itMISS:          0  dtACCESS:          0  dtHIT:          0  dtMISS:          0
cpu0_L1I TRANSLATION  ACCESS:          0  HIT:          0  MISS:          0  iACCESS:          0  iHIT:          0  iMISS:          0  dACCESS:          0  dHIT:          0  dMISS:          0  itACCESS:          0  itHIT:          0  itMISS:          0  dtACCESS:          0  dtHIT:          0  dtMISS:          0
cpu0_L1I PREFETCH  REQUESTED:   27056789  ISSUED:   27055418  CROSSED:          0  USEFUL:    1942078  USELESS:     637159
cpu0_L1I AVERAGE iMISS LATENCY: 13.1771 cycles
cpu0_L1I AVERAGE dMISS LATENCY: 0 cycles
cpu0_L1I AVERAGE itMISS LATENCY: 0 cycles
cpu0_L1I AVERAGE dtMISS LATENCY: 0 cycles
cpu0_L1I PAGE CROSSINGS (TLB HIT):         0 
cpu0_L1I PAGE CROSSINGS (TLB MISS):         0 
cpu0_L1I AVERAGE MISS LATENCY: 13.1771 cycles
cpu0_ITLB TOTAL       ACCESS:   29008545  HIT:   27020761  MISS:    1987784  iACCESS:   29008545  iHIT:   27020761  iMISS:    1987784  dACCESS:          0  dHIT:          0  dMISS:          0  itACCESS:          0  itHIT:          0  itMISS:          0  dtACCESS:          0  dtHIT:          0  dtMISS:          0
cpu0_ITLB LOAD         ACCESS:   29008545  HIT:   27020761  MISS:    1987784  iACCESS:   29008545  iHIT:   27020761  iMISS:    1987784  dACCESS:          0  dHIT:          0  dMISS:          0  itACCESS:          0  itHIT:          0  itMISS:          0  dtACCESS:          0  dtHIT:          0  dtMISS:          0
cpu0_ITLB RFO          ACCESS:          0  HIT:          0  MISS:          0  iACCESS:          0  iHIT:          0  iMISS:          0  dACCESS:          0  dHIT:          0  dMISS:          0  itACCESS:          0  itHIT:          0  itMISS:          0  dtACCESS:          0  dtHIT:          0  dtMISS:          0
cpu0_ITLB PREFETCH     ACCESS:          0  HIT:          0  MISS:          0  iACCESS:          0  iHIT:          0  iMISS:          0  dACCESS:          0  dHIT:          0  dMISS:          0  itACCESS:          0  itHIT:          0  itMISS:          0  dtACCESS:          0  dtHIT:          0  dtMISS:          0
cpu0_ITLB WRITE        ACCESS:          0  HIT:          0  MISS:          0  iACCESS:          0  iHIT:          0  iMISS:          0  dACCESS:          0  dHIT:          0  dMISS:          0  itACCESS:          0  itHIT:          0  itMISS:          0  dtACCESS:          0  dtHIT:          0  dtMISS:          0
cpu0_ITLB TRANSLATION  ACCESS:          0  HIT:          0  MISS:          0  iACCESS:          0  iHIT:          0  iMISS:          0  dACCESS:          0  dHIT:          0  dMISS:          0  itACCESS:          0  itHIT:          0  itMISS:          0  dtACCESS:          0  dtHIT:          0  dtMISS:          0
cpu0_ITLB PREFETCH  REQUESTED:          0  ISSUED:          0  CROSSED:          0  USEFUL:     326175  USELESS:      62862
cpu0_ITLB AVERAGE iMISS LATENCY: 1.81572 cycles
cpu0_ITLB AVERAGE dMISS LATENCY: 0 cycles
cpu0_ITLB AVERAGE itMISS LATENCY: 0 cycles
cpu0_ITLB AVERAGE dtMISS LATENCY: 0 cycles
cpu0_ITLB PAGE CROSSINGS (TLB HIT):         0 
cpu0_ITLB PAGE CROSSINGS (TLB MISS):         0 
cpu0_ITLB AVERAGE MISS LATENCY: 1.81572 cycles
cpu0_DTLB TOTAL       ACCESS:   27719331  HIT:   25875614  MISS:    1843717  iACCESS:          0  iHIT:          0  iMISS:          0  dACCESS:   27719331  dHIT:   25875614  dMISS:    1843717  itACCESS:          0  itHIT:          0  itMISS:          0  dtACCESS:          0  dtHIT:          0  dtMISS:          0
cpu0_DTLB LOAD         ACCESS:   27719331  HIT:   25875614  MISS:    1843717  iACCESS:          0  iHIT:          0  iMISS:          0  dACCESS:   27719331  dHIT:   25875614  dMISS:    1843717  itACCESS:          0  itHIT:          0  itMISS:          0  dtACCESS:          0  dtHIT:          0  dtMISS:          0
cpu0_DTLB RFO          ACCESS:          0  HIT:          0  MISS:          0  iACCESS:          0  iHIT:          0  iMISS:          0  dACCESS:          0  dHIT:          0  dMISS:          0  itACCESS:          0  itHIT:          0  itMISS:          0  dtACCESS:          0  dtHIT:          0  dtMISS:          0
cpu0_DTLB PREFETCH     ACCESS:          0  HIT:          0  MISS:          0  iACCESS:          0  iHIT:          0  iMISS:          0  dACCESS:          0  dHIT:          0  dMISS:          0  itACCESS:          0  itHIT:          0  itMISS:          0  dtACCESS:          0  dtHIT:          0  dtMISS:          0
cpu0_DTLB WRITE        ACCESS:          0  HIT:          0  MISS:          0  iACCESS:          0  iHIT:          0  iMISS:          0  dACCESS:          0  dHIT:          0  dMISS:          0  itACCESS:          0  itHIT:          0  itMISS:          0  dtACCESS:          0  dtHIT:          0  dtMISS:          0
cpu0_DTLB TRANSLATION  ACCESS:          0  HIT:          0  MISS:          0  iACCESS:          0  iHIT:          0  iMISS:          0  dACCESS:          0  dHIT:          0  dMISS:          0  itACCESS:          0  itHIT:          0  itMISS:          0  dtACCESS:          0  dtHIT:          0  dtMISS:          0
cpu0_DTLB PREFETCH  REQUESTED:          0  ISSUED:          0  CROSSED:          0  USEFUL:          0  USELESS:          0
cpu0_DTLB AVERAGE iMISS LATENCY: 0 cycles
cpu0_DTLB AVERAGE dMISS LATENCY: 11.5359 cycles
cpu0_DTLB AVERAGE itMISS LATENCY: 0 cycles
cpu0_DTLB AVERAGE dtMISS LATENCY: 0 cycles
cpu0_DTLB PAGE CROSSINGS (TLB HIT):         0 
cpu0_DTLB PAGE CROSSINGS (TLB MISS):         0 
cpu0_DTLB AVERAGE MISS LATENCY: 11.5359 cycles
cpu0_STLB TOTAL       ACCESS:    1514856  HIT:    1381156  MISS:     133700  iACCESS:     389108  iHIT:     382900  iMISS:       6208  dACCESS:    1125748  dHIT:     998256  dMISS:     127492  itACCESS:          0  itHIT:          0  itMISS:          0  dtACCESS:          0  dtHIT:          0  dtMISS:          0
cpu0_STLB LOAD         ACCESS:    1514856  HIT:    1381156  MISS:     133700  iACCESS:     389108  iHIT:     382900  iMISS:       6208  dACCESS:    1125748  dHIT:     998256  dMISS:     127492  itACCESS:          0  itHIT:          0  itMISS:          0  dtACCESS:          0  dtHIT:          0  dtMISS:          0
cpu0_STLB RFO          ACCESS:          0  HIT:          0  MISS:          0  iACCESS:          0  iHIT:          0  iMISS:          0  dACCESS:          0  dHIT:          0  dMISS:          0  itACCESS:          0  itHIT:          0  itMISS:          0  dtACCESS:          0  dtHIT:          0  dtMISS:          0
cpu0_STLB PREFETCH     ACCESS:          0  HIT:          0  MISS:          0  iACCESS:          0  iHIT:          0  iMISS:          0  dACCESS:          0  dHIT:          0  dMISS:          0  itACCESS:          0  itHIT:          0  itMISS:          0  dtACCESS:          0  dtHIT:          0  dtMISS:          0
cpu0_STLB WRITE        ACCESS:          0  HIT:          0  MISS:          0  iACCESS:          0  iHIT:          0  iMISS:          0  dACCESS:          0  dHIT:          0  dMISS:          0  itACCESS:          0  itHIT:          0  itMISS:          0  dtACCESS:          0  dtHIT:          0  dtMISS:          0
cpu0_STLB TRANSLATION  ACCESS:          0  HIT:          0  MISS:          0  iACCESS:          0  iHIT:          0  iMISS:          0  dACCESS:          0  dHIT:          0  dMISS:          0  itACCESS:          0  itHIT:          0  itMISS:          0  dtACCESS:          0  dtHIT:          0  dtMISS:          0
cpu0_STLB PREFETCH  REQUESTED:          0  ISSUED:          0  CROSSED:          0  USEFUL:          0  USELESS:          0
cpu0_STLB AVERAGE iMISS LATENCY: 4.43457 cycles
cpu0_STLB AVERAGE dMISS LATENCY: 91.777 cycles
cpu0_STLB AVERAGE itMISS LATENCY: 0 cycles
cpu0_STLB AVERAGE dtMISS LATENCY: 0 cycles
cpu0_STLB PAGE CROSSINGS (TLB HIT):         0 
cpu0_STLB PAGE CROSSINGS (TLB MISS):         0 
cpu0_STLB AVERAGE MISS LATENCY: 96.2116 cycles
cpu0_L1D TOTAL       ACCESS:   41522514  HIT:   37920796  MISS:    3601718  iACCESS:          0  iHIT:          0  iMISS:          0  dACCESS:   41320800  dHIT:   37908369  dMISS:    3412431  itACCESS:       7317  itHIT:        658  itMISS:       6659  dtACCESS:     194397  dtHIT:      11769  dtMISS:     182628
cpu0_L1D LOAD         ACCESS:   19003822  HIT:   17437913  MISS:    1565909  iACCESS:          0  iHIT:          0  iMISS:          0  dACCESS:   19003822  dHIT:   17437913  dMISS:    1565909  itACCESS:          0  itHIT:          0  itMISS:          0  dtACCESS:          0  dtHIT:          0  dtMISS:          0
cpu0_L1D RFO          ACCESS:          0  HIT:          0  MISS:          0  iACCESS:          0  iHIT:          0  iMISS:          0  dACCESS:          0  dHIT:          0  dMISS:          0  itACCESS:          0  itHIT:          0  itMISS:          0  dtACCESS:          0  dtHIT:          0  dtMISS:          0
cpu0_L1D PREFETCH     ACCESS:   12176975  HIT:   10760779  MISS:    1416196  iACCESS:          0  iHIT:          0  iMISS:          0  dACCESS:   12176975  dHIT:   10760779  dMISS:    1416196  itACCESS:          0  itHIT:          0  itMISS:          0  dtACCESS:          0  dtHIT:          0  dtMISS:          0
cpu0_L1D WRITE        ACCESS:   10140003  HIT:    9709677  MISS:     430326  iACCESS:          0  iHIT:          0  iMISS:          0  dACCESS:   10140003  dHIT:    9709677  dMISS:     430326  itACCESS:          0  itHIT:          0  itMISS:          0  dtACCESS:          0  dtHIT:          0  dtMISS:          0
cpu0_L1D TRANSLATION  ACCESS:     201714  HIT:      12427  MISS:     189287  iACCESS:          0  iHIT:          0  iMISS:          0  dACCESS:          0  dHIT:          0  dMISS:          0  itACCESS:       7317  itHIT:        658  itMISS:       6659  dtACCESS:     194397  dtHIT:      11769  dtMISS:     182628
cpu0_L1D PREFETCH  REQUESTED:   19003822  ISSUED:   16962756  CROSSED:          0  USEFUL:     310766  USELESS:     709337
cpu0_L1D AVERAGE iMISS LATENCY: 0 cycles
cpu0_L1D AVERAGE dMISS LATENCY: 31.8302 cycles
cpu0_L1D AVERAGE itMISS LATENCY: 0.145015 cycles
cpu0_L1D AVERAGE dtMISS LATENCY: 2.69013 cycles
cpu0_L1D PAGE CROSSINGS (TLB HIT):         0 
cpu0_L1D PAGE CROSSINGS (TLB MISS):         0 
cpu0_L1D AVERAGE MISS LATENCY: 34.6653 cycles
cpu0_L2C TOTAL       ACCESS:    7031710  HIT:    1704220  MISS:    5327490  iACCESS:    3332680  iHIT:     878118  iMISS:    2454562  dACCESS:    3522438  dHIT:     731085  dMISS:    2791353  itACCESS:       6659  itHIT:       3436  itMISS:       3223  dtACCESS:     169933  dtHIT:      91581  dtMISS:      78352
cpu0_L2C LOAD         ACCESS:    1738145  HIT:     313566  MISS:    1424579  iACCESS:     792438  iHIT:     153829  iMISS:     638609  dACCESS:     945707  dHIT:     159737  dMISS:     785970  itACCESS:          0  itHIT:          0  itMISS:          0  dtACCESS:          0  dtHIT:          0  dtMISS:          0
cpu0_L2C RFO          ACCESS:     156730  HIT:      52687  MISS:     104043  iACCESS:          0  iHIT:          0  iMISS:          0  dACCESS:     156730  dHIT:      52687  dMISS:     104043  itACCESS:          0  itHIT:          0  itMISS:          0  dtACCESS:          0  dtHIT:          0  dtMISS:          0
cpu0_L2C PREFETCH     ACCESS:    4673665  HIT:    1097159  MISS:    3576506  iACCESS:    2540242  iHIT:     724289  iMISS:    1815953  dACCESS:    2133423  dHIT:     372870  dMISS:    1760553  itACCESS:          0  itHIT:          0  itMISS:          0  dtACCESS:          0  dtHIT:          0  dtMISS:          0
cpu0_L2C WRITE        ACCESS:     286578  HIT:     145791  MISS:     140787  iACCESS:          0  iHIT:          0  iMISS:          0  dACCESS:     286578  dHIT:     145791  dMISS:     140787  itACCESS:          0  itHIT:          0  itMISS:          0  dtACCESS:          0  dtHIT:          0  dtMISS:          0
cpu0_L2C TRANSLATION  ACCESS:     176592  HIT:      95017  MISS:      81575  iACCESS:          0  iHIT:          0  iMISS:          0  dACCESS:          0  dHIT:          0  dMISS:          0  itACCESS:       6659  itHIT:       3436  itMISS:       3223  dtACCESS:     169933  dtHIT:      91581  dtMISS:      78352
cpu0_L2C PREFETCH  REQUESTED:    1402371  ISSUED:    1402371  CROSSED:          0  USEFUL:     407877  USELESS:     383457
cpu0_L2C AVERAGE iMISS LATENCY: 15.1556 cycles
cpu0_L2C AVERAGE dMISS LATENCY: 24.726 cycles
cpu0_L2C AVERAGE itMISS LATENCY: 0.0861669 cycles
cpu0_L2C AVERAGE dtMISS LATENCY: 1.51507 cycles
cpu0_L2C PAGE CROSSINGS (TLB HIT):         0 
cpu0_L2C PAGE CROSSINGS (TLB MISS):         0 
cpu0_L2C AVERAGE MISS LATENCY: 41.4827 cycles
LLC TOTAL       ACCESS:    5211878  HIT:    4429045  MISS:     782833  iACCESS:    2399729  iHIT:    2165655  iMISS:     234074  dACCESS:    2730574  dHIT:    2220901  dMISS:     509673  itACCESS:       3223  itHIT:        961  itMISS:       2262  dtACCESS:      78352  dtHIT:      41528  dtMISS:      36824
LLC LOAD         ACCESS:    1421653  HIT:    1246042  MISS:     175611  iACCESS:     636726  iHIT:     586969  iMISS:      49757  dACCESS:     784927  dHIT:     659073  dMISS:     125854  itACCESS:          0  itHIT:          0  itMISS:          0  dtACCESS:          0  dtHIT:          0  dtMISS:          0
LLC RFO          ACCESS:     104040  HIT:      70820  MISS:      33220  iACCESS:          0  iHIT:          0  iMISS:          0  dACCESS:     104040  dHIT:      70820  dMISS:      33220  itACCESS:          0  itHIT:          0  itMISS:          0  dtACCESS:          0  dtHIT:          0  dtMISS:          0
LLC PREFETCH     ACCESS:    3475062  HIT:    2949109  MISS:     525953  iACCESS:    1763003  iHIT:    1578686  iMISS:     184317  dACCESS:    1712059  dHIT:    1370423  dMISS:     341636  itACCESS:          0  itHIT:          0  itMISS:          0  dtACCESS:          0  dtHIT:          0  dtMISS:          0
LLC WRITE        ACCESS:     129548  HIT:     120585  MISS:       8963  iACCESS:          0  iHIT:          0  iMISS:          0  dACCESS:     129548  dHIT:     120585  dMISS:       8963  itACCESS:          0  itHIT:          0  itMISS:          0  dtACCESS:          0  dtHIT:          0  dtMISS:          0
LLC TRANSLATION  ACCESS:      81575  HIT:      42489  MISS:      39086  iACCESS:          0  iHIT:          0  iMISS:          0  dACCESS:          0  dHIT:          0  dMISS:          0  itACCESS:       3223  itHIT:        961  itMISS:       2262  dtACCESS:      78352  dtHIT:      41528  dtMISS:      36824
LLC PREFETCH  REQUESTED:          0  ISSUED:          0  CROSSED:          0  USEFUL:          0  USELESS:          0
LLC AVERAGE iMISS LATENCY: 43.9937 cycles
LLC AVERAGE dMISS LATENCY: 104.278 cycles
LLC AVERAGE itMISS LATENCY: 0.50552 cycles
LLC AVERAGE dtMISS LATENCY: 8.36214 cycles
LLC PAGE CROSSINGS (TLB HIT):         0 
LLC PAGE CROSSINGS (TLB MISS):         0 
LLC AVERAGE MISS LATENCY: 157.139 cycles

PageTableWalker TOTAL       ACCESS:      65824  
PageTableWalker AVERAGE LATENCY: 5.05521 cycles
PageTableWalker TOTAL LATENCY: 332754 cycles

DRAM Statistics
Channel 0
 RQ ROW_BUFFER_HIT:     215075
  ROW_BUFFER_MISS:     558191
 AVG DBUS CONGESTED CYCLE:    3.62545
 WQ ROW_BUFFER_HIT:      14542
  ROW_BUFFER_MISS:      20988  FULL:          0

