last_page:0x200000000000000
VMEM_RES_CAP:0x100000
PAGE_SIZE:4096
LOG2_PAGE_SIZE:12
LOG2_PAGE_TABLE_SIZE:9
page_table_levels:5
WARNING: physical memory size is smaller than virtual memory size
FDiP enabled with aggresivity 16

*** ChampSim Multicore Out-of-Order Simulator ***

Warmup Instructions: 50000000
Simulation Instructions: 100000000
Number of CPUs: 1
Small page size: 4096
Large page size: 2097152

CPU 0 Bimodal branch predictor
Basic BTB sets: 1024 ways: 8 indirect buffer size: 4096 RAS size: 64
Instruction page size distrubution: 0
Loading instruction page size distribution from /home/bsc/bsc018186/scratch/itp_asplos25_AE/dump/srv151_ap.pdst
Data page size distrubution: 0
Loading data page size distribution from /home/bsc/bsc018186/scratch/itp_asplos25_AE/dump/srv151_ap.pdst
cpu0_L2C IP-based stride prefetcher
cpu0_L2C is using PTP replacement policy:
	TLB_STRESS_THRESHOLD:0
	PTE_EVICTION_RATIO:0
cpu0_L1D next line prefetcher
cpu0_STLB using iTP with max lru@8
cpu0_STLB using iTP with instr@0 and data@2
Init sat counter with 3 bits (max:50).
cpu0_L1I next line prefetcher
Off-chip DRAM Size: 4 GiB Channels: 1 Width: 64-bit Data Rate: 3200 MT/s
Heartbeat CPU 0 instructions: 10000002 cycles: 2500140 heartbeat IPC: 3.99978 cumulative IPC: 3.99978 (Simulation time: 0 hr 0 min 36 sec) 
Heartbeat CPU 0 instructions: 20000003 cycles: 5000172 heartbeat IPC: 3.99995 cumulative IPC: 3.99987 (Simulation time: 0 hr 1 min 15 sec) 
Heartbeat CPU 0 instructions: 30000001 cycles: 7500190 heartbeat IPC: 3.99998 cumulative IPC: 3.9999 (Simulation time: 0 hr 1 min 54 sec) 
Heartbeat CPU 0 instructions: 40000000 cycles: 10000274 heartbeat IPC: 3.99987 cumulative IPC: 3.9999 (Simulation time: 0 hr 2 min 33 sec) 
Heartbeat CPU 0 instructions: 50000001 cycles: 12500281 heartbeat IPC: 3.99999 cumulative IPC: 3.99992 (Simulation time: 0 hr 3 min 11 sec) 
Warmup finished CPU 0 instructions: 50000001 cycles: 12500282 cumulative IPC: 3.99991 (Simulation time: 0 hr 3 min 11 sec) 

Warmup complete CPU 0 instructions: 50000001 cycles: 12500282 (Simulation time: 0 hr 3 min 11 sec) 

Heartbeat CPU 0 instructions: 60000000 cycles: 27382983 heartbeat IPC: 0.671921 cumulative IPC: 0.671921 (Simulation time: 0 hr 4 min 11 sec) 
Heartbeat CPU 0 instructions: 70000002 cycles: 42157568 heartbeat IPC: 0.676839 cumulative IPC: 0.674371 (Simulation time: 0 hr 5 min 11 sec) 
Heartbeat CPU 0 instructions: 80000002 cycles: 55928930 heartbeat IPC: 0.726145 cumulative IPC: 0.690789 (Simulation time: 0 hr 6 min 10 sec) 
Heartbeat CPU 0 instructions: 90000000 cycles: 70014194 heartbeat IPC: 0.709962 cumulative IPC: 0.695484 (Simulation time: 0 hr 7 min 9 sec) 
Heartbeat CPU 0 instructions: 100000000 cycles: 84092204 heartbeat IPC: 0.710328 cumulative IPC: 0.698403 (Simulation time: 0 hr 8 min 8 sec) 
*** Reached end of trace: /gpfs/projects/bsc18/MN4/bsc18/romol/ChampSim/traces/qualcomm_srv/srv151_ap.champsimtrace.xz
Heartbeat CPU 0 instructions: 110000000 cycles: 98176629 heartbeat IPC: 0.710005 cumulative IPC: 0.70031 (Simulation time: 0 hr 9 min 6 sec) 
Heartbeat CPU 0 instructions: 120000002 cycles: 112141005 heartbeat IPC: 0.716109 cumulative IPC: 0.702525 (Simulation time: 0 hr 10 min 4 sec) 
Heartbeat CPU 0 instructions: 130000000 cycles: 126584698 heartbeat IPC: 0.692344 cumulative IPC: 0.701236 (Simulation time: 0 hr 11 min 3 sec) 
Heartbeat CPU 0 instructions: 140000003 cycles: 140684320 heartbeat IPC: 0.70924 cumulative IPC: 0.702116 (Simulation time: 0 hr 12 min 2 sec) 
Heartbeat CPU 0 instructions: 150000002 cycles: 155126997 heartbeat IPC: 0.692393 cumulative IPC: 0.701131 (Simulation time: 0 hr 13 min 0 sec) 
Simulation finished CPU 0 instructions: 100000001 cycles: 142626716 cumulative IPC: 0.701131 (Simulation time: 0 hr 13 min 0 sec) 

Simulation complete CPU 0 instructions: 100000001 cycles: 142626716 (Simulation time: 0 hr 13 min 0 sec) 


ChampSim completed all CPUs

Saving instructions large page distribution to /home/bsc/bsc018186/scratch/itp_asplos25_AE/dump/srv151_ap.pdst...
Saving data large page distribution to /home/bsc/bsc018186/scratch/itp_asplos25_AE/dump/srv151_ap.pdst...
=== Simulation ===
CPU 0 runs /gpfs/projects/bsc18/MN4/bsc18/romol/ChampSim/traces/qualcomm_srv/srv151_ap.champsimtrace.xz

Region of Interest Statistics

CPU 0 cumulative IPC: 0.701131 instructions: 100000001 cycles: 142626716
CPU 0 Branch Prediction Accuracy: 83.2513% MPKI: 30.0025 Average ROB Occupancy at Mispredict: 13.1579
Branch type MPKI
BRANCH_DIRECT_JUMP: 1.01974
BRANCH_INDIRECT: 15.6431
BRANCH_CONDITIONAL: 9.6763
BRANCH_DIRECT_CALL: 1.83277
BRANCH_INDIRECT_CALL: 0.50392
BRANCH_RETURN: 1.32665

Instructions large pages: 0
Instructions small pages: 11188
Large page distribution for instructions: 0%

Data large pages: 0
Data small pages: 10219
Large page distribution for data: 0%

cpu0_L1I TOTAL       ACCESS:   35396539  HIT:   27031753  MISS:    8364786  iACCESS:   35396539  iHIT:   27031753  iMISS:    8364786  dACCESS:          0  dHIT:          0  dMISS:          0  itACCESS:          0  itHIT:          0  itMISS:          0  dtACCESS:          0  dtHIT:          0  dtMISS:          0
cpu0_L1I LOAD         ACCESS:   10403042  HIT:    8064358  MISS:    2338684  iACCESS:   10403042  iHIT:    8064358  iMISS:    2338684  dACCESS:          0  dHIT:          0  dMISS:          0  itACCESS:          0  itHIT:          0  itMISS:          0  dtACCESS:          0  dtHIT:          0  dtMISS:          0
cpu0_L1I RFO          ACCESS:          0  HIT:          0  MISS:          0  iACCESS:          0  iHIT:          0  iMISS:          0  dACCESS:          0  dHIT:          0  dMISS:          0  itACCESS:          0  itHIT:          0  itMISS:          0  dtACCESS:          0  dtHIT:          0  dtMISS:          0
cpu0_L1I PREFETCH     ACCESS:   24993497  HIT:   18967395  MISS:    6026102  iACCESS:   24993497  iHIT:   18967395  iMISS:    6026102  dACCESS:          0  dHIT:          0  dMISS:          0  itACCESS:          0  itHIT:          0  itMISS:          0  dtACCESS:          0  dtHIT:          0  dtMISS:          0
cpu0_L1I WRITE        ACCESS:          0  HIT:          0  MISS:          0  iACCESS:          0  iHIT:          0  iMISS:          0  dACCESS:          0  dHIT:          0  dMISS:          0  itACCESS:          0  itHIT:          0  itMISS:          0  dtACCESS:          0  dtHIT:          0  dtMISS:          0
cpu0_L1I TRANSLATION  ACCESS:          0  HIT:          0  MISS:          0  iACCESS:          0  iHIT:          0  iMISS:          0  dACCESS:          0  dHIT:          0  dMISS:          0  itACCESS:          0  itHIT:          0  itMISS:          0  dtACCESS:          0  dtHIT:          0  dtMISS:          0
cpu0_L1I PREFETCH  REQUESTED:   27330633  ISSUED:   27328363  CROSSED:          0  USEFUL:    1889745  USELESS:     621872
cpu0_L1I AVERAGE iMISS LATENCY: 14.1659 cycles
cpu0_L1I AVERAGE dMISS LATENCY: 0 cycles
cpu0_L1I AVERAGE itMISS LATENCY: 0 cycles
cpu0_L1I AVERAGE dtMISS LATENCY: 0 cycles
cpu0_L1I PAGE CROSSINGS (TLB HIT):         0 
cpu0_L1I PAGE CROSSINGS (TLB MISS):         0 
cpu0_L1I AVERAGE MISS LATENCY: 14.1659 cycles
cpu0_ITLB TOTAL       ACCESS:   29216941  HIT:   27266054  MISS:    1950887  iACCESS:   29216941  iHIT:   27266054  iMISS:    1950887  dACCESS:          0  dHIT:          0  dMISS:          0  itACCESS:          0  itHIT:          0  itMISS:          0  dtACCESS:          0  dtHIT:          0  dtMISS:          0
cpu0_ITLB LOAD         ACCESS:   29216941  HIT:   27266054  MISS:    1950887  iACCESS:   29216941  iHIT:   27266054  iMISS:    1950887  dACCESS:          0  dHIT:          0  dMISS:          0  itACCESS:          0  itHIT:          0  itMISS:          0  dtACCESS:          0  dtHIT:          0  dtMISS:          0
cpu0_ITLB RFO          ACCESS:          0  HIT:          0  MISS:          0  iACCESS:          0  iHIT:          0  iMISS:          0  dACCESS:          0  dHIT:          0  dMISS:          0  itACCESS:          0  itHIT:          0  itMISS:          0  dtACCESS:          0  dtHIT:          0  dtMISS:          0
cpu0_ITLB PREFETCH     ACCESS:          0  HIT:          0  MISS:          0  iACCESS:          0  iHIT:          0  iMISS:          0  dACCESS:          0  dHIT:          0  dMISS:          0  itACCESS:          0  itHIT:          0  itMISS:          0  dtACCESS:          0  dtHIT:          0  dtMISS:          0
cpu0_ITLB WRITE        ACCESS:          0  HIT:          0  MISS:          0  iACCESS:          0  iHIT:          0  iMISS:          0  dACCESS:          0  dHIT:          0  dMISS:          0  itACCESS:          0  itHIT:          0  itMISS:          0  dtACCESS:          0  dtHIT:          0  dtMISS:          0
cpu0_ITLB TRANSLATION  ACCESS:          0  HIT:          0  MISS:          0  iACCESS:          0  iHIT:          0  iMISS:          0  dACCESS:          0  dHIT:          0  dMISS:          0  itACCESS:          0  itHIT:          0  itMISS:          0  dtACCESS:          0  dtHIT:          0  dtMISS:          0
cpu0_ITLB PREFETCH  REQUESTED:          0  ISSUED:          0  CROSSED:          0  USEFUL:     319683  USELESS:      66197
cpu0_ITLB AVERAGE iMISS LATENCY: 2.00388 cycles
cpu0_ITLB AVERAGE dMISS LATENCY: 0 cycles
cpu0_ITLB AVERAGE itMISS LATENCY: 0 cycles
cpu0_ITLB AVERAGE dtMISS LATENCY: 0 cycles
cpu0_ITLB PAGE CROSSINGS (TLB HIT):         0 
cpu0_ITLB PAGE CROSSINGS (TLB MISS):         0 
cpu0_ITLB AVERAGE MISS LATENCY: 2.00388 cycles
cpu0_DTLB TOTAL       ACCESS:   27853691  HIT:   25827168  MISS:    2026523  iACCESS:          0  iHIT:          0  iMISS:          0  dACCESS:   27853691  dHIT:   25827168  dMISS:    2026523  itACCESS:          0  itHIT:          0  itMISS:          0  dtACCESS:          0  dtHIT:          0  dtMISS:          0
cpu0_DTLB LOAD         ACCESS:   27853691  HIT:   25827168  MISS:    2026523  iACCESS:          0  iHIT:          0  iMISS:          0  dACCESS:   27853691  dHIT:   25827168  dMISS:    2026523  itACCESS:          0  itHIT:          0  itMISS:          0  dtACCESS:          0  dtHIT:          0  dtMISS:          0
cpu0_DTLB RFO          ACCESS:          0  HIT:          0  MISS:          0  iACCESS:          0  iHIT:          0  iMISS:          0  dACCESS:          0  dHIT:          0  dMISS:          0  itACCESS:          0  itHIT:          0  itMISS:          0  dtACCESS:          0  dtHIT:          0  dtMISS:          0
cpu0_DTLB PREFETCH     ACCESS:          0  HIT:          0  MISS:          0  iACCESS:          0  iHIT:          0  iMISS:          0  dACCESS:          0  dHIT:          0  dMISS:          0  itACCESS:          0  itHIT:          0  itMISS:          0  dtACCESS:          0  dtHIT:          0  dtMISS:          0
cpu0_DTLB WRITE        ACCESS:          0  HIT:          0  MISS:          0  iACCESS:          0  iHIT:          0  iMISS:          0  dACCESS:          0  dHIT:          0  dMISS:          0  itACCESS:          0  itHIT:          0  itMISS:          0  dtACCESS:          0  dtHIT:          0  dtMISS:          0
cpu0_DTLB TRANSLATION  ACCESS:          0  HIT:          0  MISS:          0  iACCESS:          0  iHIT:          0  iMISS:          0  dACCESS:          0  dHIT:          0  dMISS:          0  itACCESS:          0  itHIT:          0  itMISS:          0  dtACCESS:          0  dtHIT:          0  dtMISS:          0
cpu0_DTLB PREFETCH  REQUESTED:          0  ISSUED:          0  CROSSED:          0  USEFUL:          0  USELESS:          0
cpu0_DTLB AVERAGE iMISS LATENCY: 0 cycles
cpu0_DTLB AVERAGE dMISS LATENCY: 10.4289 cycles
cpu0_DTLB AVERAGE itMISS LATENCY: 0 cycles
cpu0_DTLB AVERAGE dtMISS LATENCY: 0 cycles
cpu0_DTLB PAGE CROSSINGS (TLB HIT):         0 
cpu0_DTLB PAGE CROSSINGS (TLB MISS):         0 
cpu0_DTLB AVERAGE MISS LATENCY: 10.4289 cycles
cpu0_STLB TOTAL       ACCESS:    1619481  HIT:    1473835  MISS:     145646  iACCESS:     385902  iHIT:     377373  iMISS:       8529  dACCESS:    1233579  dHIT:    1096462  dMISS:     137117  itACCESS:          0  itHIT:          0  itMISS:          0  dtACCESS:          0  dtHIT:          0  dtMISS:          0
cpu0_STLB LOAD         ACCESS:    1619481  HIT:    1473835  MISS:     145646  iACCESS:     385902  iHIT:     377373  iMISS:       8529  dACCESS:    1233579  dHIT:    1096462  dMISS:     137117  itACCESS:          0  itHIT:          0  itMISS:          0  dtACCESS:          0  dtHIT:          0  dtMISS:          0
cpu0_STLB RFO          ACCESS:          0  HIT:          0  MISS:          0  iACCESS:          0  iHIT:          0  iMISS:          0  dACCESS:          0  dHIT:          0  dMISS:          0  itACCESS:          0  itHIT:          0  itMISS:          0  dtACCESS:          0  dtHIT:          0  dtMISS:          0
cpu0_STLB PREFETCH     ACCESS:          0  HIT:          0  MISS:          0  iACCESS:          0  iHIT:          0  iMISS:          0  dACCESS:          0  dHIT:          0  dMISS:          0  itACCESS:          0  itHIT:          0  itMISS:          0  dtACCESS:          0  dtHIT:          0  dtMISS:          0
cpu0_STLB WRITE        ACCESS:          0  HIT:          0  MISS:          0  iACCESS:          0  iHIT:          0  iMISS:          0  dACCESS:          0  dHIT:          0  dMISS:          0  itACCESS:          0  itHIT:          0  itMISS:          0  dtACCESS:          0  dtHIT:          0  dtMISS:          0
cpu0_STLB TRANSLATION  ACCESS:          0  HIT:          0  MISS:          0  iACCESS:          0  iHIT:          0  iMISS:          0  dACCESS:          0  dHIT:          0  dMISS:          0  itACCESS:          0  itHIT:          0  itMISS:          0  dtACCESS:          0  dtHIT:          0  dtMISS:          0
cpu0_STLB PREFETCH  REQUESTED:          0  ISSUED:          0  CROSSED:          0  USEFUL:          0  USELESS:          0
cpu0_STLB AVERAGE iMISS LATENCY: 6.28673 cycles
cpu0_STLB AVERAGE dMISS LATENCY: 77.3272 cycles
cpu0_STLB AVERAGE itMISS LATENCY: 0 cycles
cpu0_STLB AVERAGE dtMISS LATENCY: 0 cycles
cpu0_STLB PAGE CROSSINGS (TLB HIT):         0 
cpu0_STLB PAGE CROSSINGS (TLB MISS):         0 
cpu0_STLB AVERAGE MISS LATENCY: 83.6139 cycles
cpu0_L1D TOTAL       ACCESS:   41618094  HIT:   38147029  MISS:    3471065  iACCESS:          0  iHIT:          0  iMISS:          0  dACCESS:   41403667  dHIT:   38132882  dMISS:    3270785  itACCESS:      10348  itHIT:       1156  itMISS:       9192  dtACCESS:     204079  dtHIT:      12991  dtMISS:     191088
cpu0_L1D LOAD         ACCESS:   19033228  HIT:   17550561  MISS:    1482667  iACCESS:          0  iHIT:          0  iMISS:          0  dACCESS:   19033228  dHIT:   17550561  dMISS:    1482667  itACCESS:          0  itHIT:          0  itMISS:          0  dtACCESS:          0  dtHIT:          0  dtMISS:          0
cpu0_L1D RFO          ACCESS:          0  HIT:          0  MISS:          0  iACCESS:          0  iHIT:          0  iMISS:          0  dACCESS:          0  dHIT:          0  dMISS:          0  itACCESS:          0  itHIT:          0  itMISS:          0  dtACCESS:          0  dtHIT:          0  dtMISS:          0
cpu0_L1D PREFETCH     ACCESS:   12183094  HIT:   10833641  MISS:    1349453  iACCESS:          0  iHIT:          0  iMISS:          0  dACCESS:   12183094  dHIT:   10833641  dMISS:    1349453  itACCESS:          0  itHIT:          0  itMISS:          0  dtACCESS:          0  dtHIT:          0  dtMISS:          0
cpu0_L1D WRITE        ACCESS:   10187345  HIT:    9748680  MISS:     438665  iACCESS:          0  iHIT:          0  iMISS:          0  dACCESS:   10187345  dHIT:    9748680  dMISS:     438665  itACCESS:          0  itHIT:          0  itMISS:          0  dtACCESS:          0  dtHIT:          0  dtMISS:          0
cpu0_L1D TRANSLATION  ACCESS:     214427  HIT:      14147  MISS:     200280  iACCESS:          0  iHIT:          0  iMISS:          0  dACCESS:          0  dHIT:          0  dMISS:          0  itACCESS:      10348  itHIT:       1156  itMISS:       9192  dtACCESS:     204079  dtHIT:      12991  dtMISS:     191088
cpu0_L1D PREFETCH  REQUESTED:   19033228  ISSUED:   16996982  CROSSED:          0  USEFUL:     303298  USELESS:     690945
cpu0_L1D AVERAGE iMISS LATENCY: 0 cycles
cpu0_L1D AVERAGE dMISS LATENCY: 35.9756 cycles
cpu0_L1D AVERAGE itMISS LATENCY: 0.237874 cycles
cpu0_L1D AVERAGE dtMISS LATENCY: 2.44447 cycles
cpu0_L1D PAGE CROSSINGS (TLB HIT):         0 
cpu0_L1D PAGE CROSSINGS (TLB MISS):         0 
cpu0_L1D AVERAGE MISS LATENCY: 38.6579 cycles
cpu0_L2C TOTAL       ACCESS:    6873913  HIT:    1185491  MISS:    5688422  iACCESS:    3257399  iHIT:     672613  iMISS:    2584786  dACCESS:    3424264  dHIT:     372782  dMISS:    3051482  itACCESS:       9077  itHIT:       3061  itMISS:       6016  dtACCESS:     183173  dtHIT:     137035  dtMISS:      46138
cpu0_L2C LOAD         ACCESS:    1698118  HIT:     132650  MISS:    1565468  iACCESS:     779519  iHIT:      95637  iMISS:     683882  dACCESS:     918599  dHIT:      37013  dMISS:     881586  itACCESS:          0  itHIT:          0  itMISS:          0  dtACCESS:          0  dtHIT:          0  dtMISS:          0
cpu0_L2C RFO          ACCESS:     156087  HIT:       8498  MISS:     147589  iACCESS:          0  iHIT:          0  iMISS:          0  dACCESS:     156087  dHIT:       8498  dMISS:     147589  itACCESS:          0  itHIT:          0  itMISS:          0  dtACCESS:          0  dtHIT:          0  dtMISS:          0
cpu0_L2C PREFETCH     ACCESS:    4545689  HIT:     845903  MISS:    3699786  iACCESS:    2477880  iHIT:     576976  iMISS:    1900904  dACCESS:    2067809  dHIT:     268927  dMISS:    1798882  itACCESS:          0  itHIT:          0  itMISS:          0  dtACCESS:          0  dtHIT:          0  dtMISS:          0
cpu0_L2C WRITE        ACCESS:     281769  HIT:      58344  MISS:     223425  iACCESS:          0  iHIT:          0  iMISS:          0  dACCESS:     281769  dHIT:      58344  dMISS:     223425  itACCESS:          0  itHIT:          0  itMISS:          0  dtACCESS:          0  dtHIT:          0  dtMISS:          0
cpu0_L2C TRANSLATION  ACCESS:     192250  HIT:     140096  MISS:      52154  iACCESS:          0  iHIT:          0  iMISS:          0  dACCESS:          0  dHIT:          0  dMISS:          0  itACCESS:       9077  itHIT:       3061  itMISS:       6016  dtACCESS:     183173  dtHIT:     137035  dtMISS:      46138
cpu0_L2C PREFETCH  REQUESTED:    1321146  ISSUED:    1321146  CROSSED:          0  USEFUL:     403204  USELESS:     377677
cpu0_L2C AVERAGE iMISS LATENCY: 15.5523 cycles
cpu0_L2C AVERAGE dMISS LATENCY: 25.3957 cycles
cpu0_L2C AVERAGE itMISS LATENCY: 0.129702 cycles
cpu0_L2C AVERAGE dtMISS LATENCY: 1.1921 cycles
cpu0_L2C PAGE CROSSINGS (TLB HIT):         0 
cpu0_L2C PAGE CROSSINGS (TLB MISS):         0 
cpu0_L2C AVERAGE MISS LATENCY: 42.2697 cycles
LLC TOTAL       ACCESS:    5610152  HIT:    4759547  MISS:     850605  iACCESS:    2530632  iHIT:    2265685  iMISS:     264947  dACCESS:    3027366  dHIT:    2478804  dMISS:     548562  itACCESS:       6016  itHIT:       2475  itMISS:       3541  dtACCESS:      46138  dtHIT:      12583  dtMISS:      33555
LLC LOAD         ACCESS:    1563453  HIT:    1362893  MISS:     200560  iACCESS:     682322  iHIT:     625143  iMISS:      57179  dACCESS:     881131  dHIT:     737750  dMISS:     143381  itACCESS:          0  itHIT:          0  itMISS:          0  dtACCESS:          0  dtHIT:          0  dtMISS:          0
LLC RFO          ACCESS:     147588  HIT:     110266  MISS:      37322  iACCESS:          0  iHIT:          0  iMISS:          0  dACCESS:     147588  dHIT:     110266  dMISS:      37322  itACCESS:          0  itHIT:          0  itMISS:          0  dtACCESS:          0  dtHIT:          0  dtMISS:          0
LLC PREFETCH     ACCESS:    3590341  HIT:    3014715  MISS:     575626  iACCESS:    1848310  iHIT:    1640542  iMISS:     207768  dACCESS:    1742031  dHIT:    1374173  dMISS:     367858  itACCESS:          0  itHIT:          0  itMISS:          0  dtACCESS:          0  dtHIT:          0  dtMISS:          0
LLC WRITE        ACCESS:     256616  HIT:     256615  MISS:          1  iACCESS:          0  iHIT:          0  iMISS:          0  dACCESS:     256616  dHIT:     256615  dMISS:          1  itACCESS:          0  itHIT:          0  itMISS:          0  dtACCESS:          0  dtHIT:          0  dtMISS:          0
LLC TRANSLATION  ACCESS:      52154  HIT:      15058  MISS:      37096  iACCESS:          0  iHIT:          0  iMISS:          0  dACCESS:          0  dHIT:          0  dMISS:          0  itACCESS:       6016  itHIT:       2475  itMISS:       3541  dtACCESS:      46138  dtHIT:      12583  dtMISS:      33555
LLC PREFETCH  REQUESTED:          0  ISSUED:          0  CROSSED:          0  USEFUL:          0  USELESS:          0
LLC AVERAGE iMISS LATENCY: 46.5767 cycles
LLC AVERAGE dMISS LATENCY: 107.151 cycles
LLC AVERAGE itMISS LATENCY: 0.729109 cycles
LLC AVERAGE dtMISS LATENCY: 6.90484 cycles
LLC PAGE CROSSINGS (TLB HIT):         0 
LLC PAGE CROSSINGS (TLB MISS):         0 
LLC AVERAGE MISS LATENCY: 161.362 cycles

PageTableWalker TOTAL       ACCESS:      72276  
PageTableWalker AVERAGE LATENCY: 4.84536 cycles
PageTableWalker TOTAL LATENCY: 350203 cycles

DRAM Statistics
Channel 0
 RQ ROW_BUFFER_HIT:     228561
  ROW_BUFFER_MISS:     621935
 AVG DBUS CONGESTED CYCLE:    3.63391
 WQ ROW_BUFFER_HIT:      21348
  ROW_BUFFER_MISS:      29175  FULL:          0

