last_page:0x200000000000000
VMEM_RES_CAP:0x100000
PAGE_SIZE:4096
LOG2_PAGE_SIZE:12
LOG2_PAGE_TABLE_SIZE:9
page_table_levels:5
WARNING: physical memory size is smaller than virtual memory size
FDiP enabled with aggresivity 16

*** ChampSim Multicore Out-of-Order Simulator ***

Warmup Instructions: 50000000
Simulation Instructions: 100000000
Number of CPUs: 1
Small page size: 4096
Large page size: 2097152

CPU 0 Bimodal branch predictor
Basic BTB sets: 1024 ways: 8 indirect buffer size: 4096 RAS size: 64
Instruction page size distrubution: 0
Loading instruction page size distribution from /home/bsc/bsc018186/scratch/itp_asplos25_AE/dump/srv147_ap.pdst
Data page size distrubution: 0
Loading data page size distribution from /home/bsc/bsc018186/scratch/itp_asplos25_AE/dump/srv147_ap.pdst
cpu0_L2C IP-based stride prefetcher
cpu0_L1D next line prefetcher
cpu0_STLB using iTP with max lru@8
cpu0_STLB using iTP with instr@0 and data@2
Init sat counter with 3 bits (max:50).
cpu0_L1I next line prefetcher
Off-chip DRAM Size: 4 GiB Channels: 1 Width: 64-bit Data Rate: 3200 MT/s
Heartbeat CPU 0 instructions: 10000001 cycles: 2500185 heartbeat IPC: 3.99971 cumulative IPC: 3.99971 (Simulation time: 0 hr 0 min 37 sec) 
Heartbeat CPU 0 instructions: 20000001 cycles: 5000232 heartbeat IPC: 3.99993 cumulative IPC: 3.99982 (Simulation time: 0 hr 1 min 16 sec) 
Heartbeat CPU 0 instructions: 30000001 cycles: 7500234 heartbeat IPC: 4 cumulative IPC: 3.99988 (Simulation time: 0 hr 1 min 56 sec) 
Heartbeat CPU 0 instructions: 40000001 cycles: 10000257 heartbeat IPC: 3.99997 cumulative IPC: 3.9999 (Simulation time: 0 hr 2 min 36 sec) 
Heartbeat CPU 0 instructions: 50000001 cycles: 12844524 heartbeat IPC: 3.51585 cumulative IPC: 3.89271 (Simulation time: 0 hr 3 min 18 sec) 
Warmup finished CPU 0 instructions: 50000001 cycles: 12844525 cumulative IPC: 3.89271 (Simulation time: 0 hr 3 min 18 sec) 

Warmup complete CPU 0 instructions: 50000001 cycles: 12844525 (Simulation time: 0 hr 3 min 18 sec) 

Heartbeat CPU 0 instructions: 60000001 cycles: 23631479 heartbeat IPC: 0.927046 cumulative IPC: 0.927046 (Simulation time: 0 hr 4 min 17 sec) 
Heartbeat CPU 0 instructions: 70000002 cycles: 37507748 heartbeat IPC: 0.720655 cumulative IPC: 0.810925 (Simulation time: 0 hr 5 min 21 sec) 
Heartbeat CPU 0 instructions: 80000002 cycles: 52043822 heartbeat IPC: 0.687944 cumulative IPC: 0.76532 (Simulation time: 0 hr 6 min 27 sec) 
Heartbeat CPU 0 instructions: 90000003 cycles: 66636253 heartbeat IPC: 0.685287 cumulative IPC: 0.743609 (Simulation time: 0 hr 7 min 34 sec) 
Heartbeat CPU 0 instructions: 100000000 cycles: 81133495 heartbeat IPC: 0.689787 cumulative IPC: 0.732183 (Simulation time: 0 hr 8 min 39 sec) 
*** Reached end of trace: /gpfs/projects/bsc18/MN4/bsc18/romol/ChampSim/traces/qualcomm_srv/srv147_ap.champsimtrace.xz
Heartbeat CPU 0 instructions: 110000000 cycles: 95174603 heartbeat IPC: 0.712195 cumulative IPC: 0.728774 (Simulation time: 0 hr 9 min 45 sec) 
Heartbeat CPU 0 instructions: 120000003 cycles: 108949922 heartbeat IPC: 0.725937 cumulative IPC: 0.728368 (Simulation time: 0 hr 10 min 49 sec) 
Heartbeat CPU 0 instructions: 130000001 cycles: 122093293 heartbeat IPC: 0.76084 cumulative IPC: 0.732274 (Simulation time: 0 hr 11 min 53 sec) 
Heartbeat CPU 0 instructions: 140000002 cycles: 135863154 heartbeat IPC: 0.726224 cumulative IPC: 0.731597 (Simulation time: 0 hr 12 min 58 sec) 
Heartbeat CPU 0 instructions: 150000003 cycles: 147049146 heartbeat IPC: 0.893976 cumulative IPC: 0.745131 (Simulation time: 0 hr 14 min 0 sec) 
Simulation finished CPU 0 instructions: 100000002 cycles: 134204622 cumulative IPC: 0.745131 (Simulation time: 0 hr 14 min 0 sec) 

Simulation complete CPU 0 instructions: 100000002 cycles: 134204622 (Simulation time: 0 hr 14 min 0 sec) 


ChampSim completed all CPUs

Saving instructions large page distribution to /home/bsc/bsc018186/scratch/itp_asplos25_AE/dump/srv147_ap.pdst...
Saving data large page distribution to /home/bsc/bsc018186/scratch/itp_asplos25_AE/dump/srv147_ap.pdst...
=== Simulation ===
CPU 0 runs /gpfs/projects/bsc18/MN4/bsc18/romol/ChampSim/traces/qualcomm_srv/srv147_ap.champsimtrace.xz

Region of Interest Statistics

CPU 0 cumulative IPC: 0.745131 instructions: 100000002 cycles: 134204622
CPU 0 Branch Prediction Accuracy: 84.8416% MPKI: 28.5957 Average ROB Occupancy at Mispredict: 13.5024
Branch type MPKI
BRANCH_DIRECT_JUMP: 0.94834
BRANCH_INDIRECT: 14.7217
BRANCH_CONDITIONAL: 9.43381
BRANCH_DIRECT_CALL: 1.71992
BRANCH_INDIRECT_CALL: 0.53337
BRANCH_RETURN: 1.23848

Instructions large pages: 0
Instructions small pages: 10728
Large page distribution for instructions: 0%

Data large pages: 0
Data small pages: 9646
Large page distribution for data: 0%

cpu0_L1I TOTAL       ACCESS:   34895392  HIT:   27234964  MISS:    7660428  iACCESS:   34895392  iHIT:   27234964  iMISS:    7660428  dACCESS:          0  dHIT:          0  dMISS:          0  itACCESS:          0  itHIT:          0  itMISS:          0  dtACCESS:          0  dtHIT:          0  dtMISS:          0
cpu0_L1I LOAD         ACCESS:    9638403  HIT:    7498650  MISS:    2139753  iACCESS:    9638403  iHIT:    7498650  iMISS:    2139753  dACCESS:          0  dHIT:          0  dMISS:          0  itACCESS:          0  itHIT:          0  itMISS:          0  dtACCESS:          0  dtHIT:          0  dtMISS:          0
cpu0_L1I RFO          ACCESS:          0  HIT:          0  MISS:          0  iACCESS:          0  iHIT:          0  iMISS:          0  dACCESS:          0  dHIT:          0  dMISS:          0  itACCESS:          0  itHIT:          0  itMISS:          0  dtACCESS:          0  dtHIT:          0  dtMISS:          0
cpu0_L1I PREFETCH     ACCESS:   25256989  HIT:   19736314  MISS:    5520675  iACCESS:   25256989  iHIT:   19736314  iMISS:    5520675  dACCESS:          0  dHIT:          0  dMISS:          0  itACCESS:          0  itHIT:          0  itMISS:          0  dtACCESS:          0  dtHIT:          0  dtMISS:          0
cpu0_L1I WRITE        ACCESS:          0  HIT:          0  MISS:          0  iACCESS:          0  iHIT:          0  iMISS:          0  dACCESS:          0  dHIT:          0  dMISS:          0  itACCESS:          0  itHIT:          0  itMISS:          0  dtACCESS:          0  dtHIT:          0  dtMISS:          0
cpu0_L1I TRANSLATION  ACCESS:          0  HIT:          0  MISS:          0  iACCESS:          0  iHIT:          0  iMISS:          0  dACCESS:          0  dHIT:          0  dMISS:          0  itACCESS:          0  itHIT:          0  itMISS:          0  dtACCESS:          0  dtHIT:          0  dtMISS:          0
cpu0_L1I PREFETCH  REQUESTED:   27394816  ISSUED:   27394246  CROSSED:          0  USEFUL:    1779546  USELESS:     576344
cpu0_L1I AVERAGE iMISS LATENCY: 13.3172 cycles
cpu0_L1I AVERAGE dMISS LATENCY: 0 cycles
cpu0_L1I AVERAGE itMISS LATENCY: 0 cycles
cpu0_L1I AVERAGE dtMISS LATENCY: 0 cycles
cpu0_L1I PAGE CROSSINGS (TLB HIT):         0 
cpu0_L1I PAGE CROSSINGS (TLB MISS):         0 
cpu0_L1I AVERAGE MISS LATENCY: 13.3172 cycles
cpu0_ITLB TOTAL       ACCESS:   28957626  HIT:   27188683  MISS:    1768943  iACCESS:   28957626  iHIT:   27188683  iMISS:    1768943  dACCESS:          0  dHIT:          0  dMISS:          0  itACCESS:          0  itHIT:          0  itMISS:          0  dtACCESS:          0  dtHIT:          0  dtMISS:          0
cpu0_ITLB LOAD         ACCESS:   28957626  HIT:   27188683  MISS:    1768943  iACCESS:   28957626  iHIT:   27188683  iMISS:    1768943  dACCESS:          0  dHIT:          0  dMISS:          0  itACCESS:          0  itHIT:          0  itMISS:          0  dtACCESS:          0  dtHIT:          0  dtMISS:          0
cpu0_ITLB RFO          ACCESS:          0  HIT:          0  MISS:          0  iACCESS:          0  iHIT:          0  iMISS:          0  dACCESS:          0  dHIT:          0  dMISS:          0  itACCESS:          0  itHIT:          0  itMISS:          0  dtACCESS:          0  dtHIT:          0  dtMISS:          0
cpu0_ITLB PREFETCH     ACCESS:          0  HIT:          0  MISS:          0  iACCESS:          0  iHIT:          0  iMISS:          0  dACCESS:          0  dHIT:          0  dMISS:          0  itACCESS:          0  itHIT:          0  itMISS:          0  dtACCESS:          0  dtHIT:          0  dtMISS:          0
cpu0_ITLB WRITE        ACCESS:          0  HIT:          0  MISS:          0  iACCESS:          0  iHIT:          0  iMISS:          0  dACCESS:          0  dHIT:          0  dMISS:          0  itACCESS:          0  itHIT:          0  itMISS:          0  dtACCESS:          0  dtHIT:          0  dtMISS:          0
cpu0_ITLB TRANSLATION  ACCESS:          0  HIT:          0  MISS:          0  iACCESS:          0  iHIT:          0  iMISS:          0  dACCESS:          0  dHIT:          0  dMISS:          0  itACCESS:          0  itHIT:          0  itMISS:          0  dtACCESS:          0  dtHIT:          0  dtMISS:          0
cpu0_ITLB PREFETCH  REQUESTED:          0  ISSUED:          0  CROSSED:          0  USEFUL:     290518  USELESS:      58528
cpu0_ITLB AVERAGE iMISS LATENCY: 2.07469 cycles
cpu0_ITLB AVERAGE dMISS LATENCY: 0 cycles
cpu0_ITLB AVERAGE itMISS LATENCY: 0 cycles
cpu0_ITLB AVERAGE dtMISS LATENCY: 0 cycles
cpu0_ITLB PAGE CROSSINGS (TLB HIT):         0 
cpu0_ITLB PAGE CROSSINGS (TLB MISS):         0 
cpu0_ITLB AVERAGE MISS LATENCY: 2.07469 cycles
cpu0_DTLB TOTAL       ACCESS:   29052792  HIT:   25441807  MISS:    3610985  iACCESS:          0  iHIT:          0  iMISS:          0  dACCESS:   29052792  dHIT:   25441807  dMISS:    3610985  itACCESS:          0  itHIT:          0  itMISS:          0  dtACCESS:          0  dtHIT:          0  dtMISS:          0
cpu0_DTLB LOAD         ACCESS:   29052792  HIT:   25441807  MISS:    3610985  iACCESS:          0  iHIT:          0  iMISS:          0  dACCESS:   29052792  dHIT:   25441807  dMISS:    3610985  itACCESS:          0  itHIT:          0  itMISS:          0  dtACCESS:          0  dtHIT:          0  dtMISS:          0
cpu0_DTLB RFO          ACCESS:          0  HIT:          0  MISS:          0  iACCESS:          0  iHIT:          0  iMISS:          0  dACCESS:          0  dHIT:          0  dMISS:          0  itACCESS:          0  itHIT:          0  itMISS:          0  dtACCESS:          0  dtHIT:          0  dtMISS:          0
cpu0_DTLB PREFETCH     ACCESS:          0  HIT:          0  MISS:          0  iACCESS:          0  iHIT:          0  iMISS:          0  dACCESS:          0  dHIT:          0  dMISS:          0  itACCESS:          0  itHIT:          0  itMISS:          0  dtACCESS:          0  dtHIT:          0  dtMISS:          0
cpu0_DTLB WRITE        ACCESS:          0  HIT:          0  MISS:          0  iACCESS:          0  iHIT:          0  iMISS:          0  dACCESS:          0  dHIT:          0  dMISS:          0  itACCESS:          0  itHIT:          0  itMISS:          0  dtACCESS:          0  dtHIT:          0  dtMISS:          0
cpu0_DTLB TRANSLATION  ACCESS:          0  HIT:          0  MISS:          0  iACCESS:          0  iHIT:          0  iMISS:          0  dACCESS:          0  dHIT:          0  dMISS:          0  itACCESS:          0  itHIT:          0  itMISS:          0  dtACCESS:          0  dtHIT:          0  dtMISS:          0
cpu0_DTLB PREFETCH  REQUESTED:          0  ISSUED:          0  CROSSED:          0  USEFUL:          0  USELESS:          0
cpu0_DTLB AVERAGE iMISS LATENCY: 0 cycles
cpu0_DTLB AVERAGE dMISS LATENCY: 7.75083 cycles
cpu0_DTLB AVERAGE itMISS LATENCY: 0 cycles
cpu0_DTLB AVERAGE dtMISS LATENCY: 0 cycles
cpu0_DTLB PAGE CROSSINGS (TLB HIT):         0 
cpu0_DTLB PAGE CROSSINGS (TLB MISS):         0 
cpu0_DTLB AVERAGE MISS LATENCY: 7.75083 cycles
cpu0_STLB TOTAL       ACCESS:    2279422  HIT:    2146975  MISS:     132447  iACCESS:     349049  iHIT:     339024  iMISS:      10025  dACCESS:    1930373  dHIT:    1807951  dMISS:     122422  itACCESS:          0  itHIT:          0  itMISS:          0  dtACCESS:          0  dtHIT:          0  dtMISS:          0
cpu0_STLB LOAD         ACCESS:    2279422  HIT:    2146975  MISS:     132447  iACCESS:     349049  iHIT:     339024  iMISS:      10025  dACCESS:    1930373  dHIT:    1807951  dMISS:     122422  itACCESS:          0  itHIT:          0  itMISS:          0  dtACCESS:          0  dtHIT:          0  dtMISS:          0
cpu0_STLB RFO          ACCESS:          0  HIT:          0  MISS:          0  iACCESS:          0  iHIT:          0  iMISS:          0  dACCESS:          0  dHIT:          0  dMISS:          0  itACCESS:          0  itHIT:          0  itMISS:          0  dtACCESS:          0  dtHIT:          0  dtMISS:          0
cpu0_STLB PREFETCH     ACCESS:          0  HIT:          0  MISS:          0  iACCESS:          0  iHIT:          0  iMISS:          0  dACCESS:          0  dHIT:          0  dMISS:          0  itACCESS:          0  itHIT:          0  itMISS:          0  dtACCESS:          0  dtHIT:          0  dtMISS:          0
cpu0_STLB WRITE        ACCESS:          0  HIT:          0  MISS:          0  iACCESS:          0  iHIT:          0  iMISS:          0  dACCESS:          0  dHIT:          0  dMISS:          0  itACCESS:          0  itHIT:          0  itMISS:          0  dtACCESS:          0  dtHIT:          0  dtMISS:          0
cpu0_STLB TRANSLATION  ACCESS:          0  HIT:          0  MISS:          0  iACCESS:          0  iHIT:          0  iMISS:          0  dACCESS:          0  dHIT:          0  dMISS:          0  itACCESS:          0  itHIT:          0  itMISS:          0  dtACCESS:          0  dtHIT:          0  dtMISS:          0
cpu0_STLB PREFETCH  REQUESTED:          0  ISSUED:          0  CROSSED:          0  USEFUL:          0  USELESS:          0
cpu0_STLB AVERAGE iMISS LATENCY: 7.26634 cycles
cpu0_STLB AVERAGE dMISS LATENCY: 93.9814 cycles
cpu0_STLB AVERAGE itMISS LATENCY: 0 cycles
cpu0_STLB AVERAGE dtMISS LATENCY: 0 cycles
cpu0_STLB PAGE CROSSINGS (TLB HIT):         0 
cpu0_STLB PAGE CROSSINGS (TLB MISS):         0 
cpu0_STLB AVERAGE MISS LATENCY: 101.248 cycles
cpu0_L1D TOTAL       ACCESS:   43762674  HIT:   38378349  MISS:    5384325  iACCESS:          0  iHIT:          0  iMISS:          0  dACCESS:   43565670  dHIT:   38366367  dMISS:    5199303  itACCESS:      11749  itHIT:       1158  itMISS:      10591  dtACCESS:     185255  dtHIT:      10824  dtMISS:     174431
cpu0_L1D LOAD         ACCESS:   20993172  HIT:   17989242  MISS:    3003930  iACCESS:          0  iHIT:          0  iMISS:          0  dACCESS:   20993172  dHIT:   17989242  dMISS:    3003930  itACCESS:          0  itHIT:          0  itMISS:          0  dtACCESS:          0  dtHIT:          0  dtMISS:          0
cpu0_L1D RFO          ACCESS:          0  HIT:          0  MISS:          0  iACCESS:          0  iHIT:          0  iMISS:          0  dACCESS:          0  dHIT:          0  dMISS:          0  itACCESS:          0  itHIT:          0  itMISS:          0  dtACCESS:          0  dtHIT:          0  dtMISS:          0
cpu0_L1D PREFETCH     ACCESS:   12692414  HIT:   10905425  MISS:    1786989  iACCESS:          0  iHIT:          0  iMISS:          0  dACCESS:   12692414  dHIT:   10905425  dMISS:    1786989  itACCESS:          0  itHIT:          0  itMISS:          0  dtACCESS:          0  dtHIT:          0  dtMISS:          0
cpu0_L1D WRITE        ACCESS:    9880084  HIT:    9471700  MISS:     408384  iACCESS:          0  iHIT:          0  iMISS:          0  dACCESS:    9880084  dHIT:    9471700  dMISS:     408384  itACCESS:          0  itHIT:          0  itMISS:          0  dtACCESS:          0  dtHIT:          0  dtMISS:          0
cpu0_L1D TRANSLATION  ACCESS:     197004  HIT:      11982  MISS:     185022  iACCESS:          0  iHIT:          0  iMISS:          0  dACCESS:          0  dHIT:          0  dMISS:          0  itACCESS:      11749  itHIT:       1158  itMISS:      10591  dtACCESS:     185255  dtHIT:      10824  dtMISS:     174431
cpu0_L1D PREFETCH  REQUESTED:   20993172  ISSUED:   17030610  CROSSED:          0  USEFUL:     280237  USELESS:     700641
cpu0_L1D AVERAGE iMISS LATENCY: 0 cycles
cpu0_L1D AVERAGE dMISS LATENCY: 24.0293 cycles
cpu0_L1D AVERAGE itMISS LATENCY: 0.155588 cycles
cpu0_L1D AVERAGE dtMISS LATENCY: 1.82483 cycles
cpu0_L1D PAGE CROSSINGS (TLB HIT):         0 
cpu0_L1D PAGE CROSSINGS (TLB MISS):         0 
cpu0_L1D AVERAGE MISS LATENCY: 26.0097 cycles
cpu0_L2C TOTAL       ACCESS:    7601049  HIT:    2203205  MISS:    5397844  iACCESS:    3032181  iHIT:     804366  iMISS:    2227815  dACCESS:    4395930  dHIT:    1309973  dMISS:    3085957  itACCESS:      10591  itHIT:       5100  itMISS:       5491  dtACCESS:     162347  dtHIT:      83766  dtMISS:      78581
cpu0_L2C LOAD         ACCESS:    2668932  HIT:     862825  MISS:    1806107  iACCESS:     710842  iHIT:     135927  iMISS:     574915  dACCESS:    1958090  dHIT:     726898  dMISS:    1231192  itACCESS:          0  itHIT:          0  itMISS:          0  dtACCESS:          0  dtHIT:          0  dtMISS:          0
cpu0_L2C RFO          ACCESS:     162541  HIT:      64374  MISS:      98167  iACCESS:          0  iHIT:          0  iMISS:          0  dACCESS:     162541  dHIT:      64374  dMISS:      98167  itACCESS:          0  itHIT:          0  itMISS:          0  dtACCESS:          0  dtHIT:          0  dtMISS:          0
cpu0_L2C PREFETCH     ACCESS:    4338507  HIT:    1062386  MISS:    3276121  iACCESS:    2321339  iHIT:     668439  iMISS:    1652900  dACCESS:    2017168  dHIT:     393947  dMISS:    1623221  itACCESS:          0  itHIT:          0  itMISS:          0  dtACCESS:          0  dtHIT:          0  dtMISS:          0
cpu0_L2C WRITE        ACCESS:     258131  HIT:     124754  MISS:     133377  iACCESS:          0  iHIT:          0  iMISS:          0  dACCESS:     258131  dHIT:     124754  dMISS:     133377  itACCESS:          0  itHIT:          0  itMISS:          0  dtACCESS:          0  dtHIT:          0  dtMISS:          0
cpu0_L2C TRANSLATION  ACCESS:     172938  HIT:      88866  MISS:      84072  iACCESS:          0  iHIT:          0  iMISS:          0  dACCESS:          0  dHIT:          0  dMISS:          0  itACCESS:      10591  itHIT:       5100  itMISS:       5491  dtACCESS:     162347  dtHIT:      83766  dtMISS:      78581
cpu0_L2C PREFETCH  REQUESTED:    1275222  ISSUED:    1275222  CROSSED:          0  USEFUL:     376531  USELESS:     337013
cpu0_L2C AVERAGE iMISS LATENCY: 13.6993 cycles
cpu0_L2C AVERAGE dMISS LATENCY: 24.7208 cycles
cpu0_L2C AVERAGE itMISS LATENCY: 0.136469 cycles
cpu0_L2C AVERAGE dtMISS LATENCY: 1.53337 cycles
cpu0_L2C PAGE CROSSINGS (TLB HIT):         0 
cpu0_L2C PAGE CROSSINGS (TLB MISS):         0 
cpu0_L2C AVERAGE MISS LATENCY: 40.0899 cycles
LLC TOTAL       ACCESS:    5286763  HIT:    4545751  MISS:     741012  iACCESS:    2181174  iHIT:    1966872  iMISS:     214302  dACCESS:    3021517  dHIT:    2536485  dMISS:     485032  itACCESS:       5491  itHIT:       1864  itMISS:       3627  dtACCESS:      78581  dtHIT:      40530  dtMISS:      38051
LLC LOAD         ACCESS:    1804010  HIT:    1641176  MISS:     162834  iACCESS:     573729  iHIT:     529635  iMISS:      44094  dACCESS:    1230281  dHIT:    1111541  dMISS:     118740  itACCESS:          0  itHIT:          0  itMISS:          0  dtACCESS:          0  dtHIT:          0  dtMISS:          0
LLC RFO          ACCESS:      98156  HIT:      64703  MISS:      33453  iACCESS:          0  iHIT:          0  iMISS:          0  dACCESS:      98156  dHIT:      64703  dMISS:      33453  itACCESS:          0  itHIT:          0  itMISS:          0  dtACCESS:          0  dtHIT:          0  dtMISS:          0
LLC PREFETCH     ACCESS:    3177856  HIT:    2683341  MISS:     494515  iACCESS:    1607445  iHIT:    1437237  iMISS:     170208  dACCESS:    1570411  dHIT:    1246104  dMISS:     324307  itACCESS:          0  itHIT:          0  itMISS:          0  dtACCESS:          0  dtHIT:          0  dtMISS:          0
LLC WRITE        ACCESS:     122669  HIT:     114137  MISS:       8532  iACCESS:          0  iHIT:          0  iMISS:          0  dACCESS:     122669  dHIT:     114137  dMISS:       8532  itACCESS:          0  itHIT:          0  itMISS:          0  dtACCESS:          0  dtHIT:          0  dtMISS:          0
LLC TRANSLATION  ACCESS:      84072  HIT:      42394  MISS:      41678  iACCESS:          0  iHIT:          0  iMISS:          0  dACCESS:          0  dHIT:          0  dMISS:          0  itACCESS:       5491  itHIT:       1864  itMISS:       3627  dtACCESS:      78581  dtHIT:      40530  dtMISS:      38051
LLC PREFETCH  REQUESTED:          0  ISSUED:          0  CROSSED:          0  USEFUL:          0  USELESS:          0
LLC AVERAGE iMISS LATENCY: 43.031 cycles
LLC AVERAGE dMISS LATENCY: 104.436 cycles
LLC AVERAGE itMISS LATENCY: 0.848805 cycles
LLC AVERAGE dtMISS LATENCY: 9.10458 cycles
LLC PAGE CROSSINGS (TLB HIT):         0 
LLC PAGE CROSSINGS (TLB MISS):         0 
LLC AVERAGE MISS LATENCY: 157.421 cycles

PageTableWalker TOTAL       ACCESS:      61961  
PageTableWalker AVERAGE LATENCY: 5.02851 cycles
PageTableWalker TOTAL LATENCY: 311571 cycles

DRAM Statistics
Channel 0
 RQ ROW_BUFFER_HIT:     204055
  ROW_BUFFER_MISS:     527665
 AVG DBUS CONGESTED CYCLE:    3.63057
 WQ ROW_BUFFER_HIT:      13334
  ROW_BUFFER_MISS:      20055  FULL:          0

