last_page:0x200000000000000
VMEM_RES_CAP:0x100000
PAGE_SIZE:4096
LOG2_PAGE_SIZE:12
LOG2_PAGE_TABLE_SIZE:9
page_table_levels:5
WARNING: physical memory size is smaller than virtual memory size
FDiP enabled with aggresivity 16

*** ChampSim Multicore Out-of-Order Simulator ***

Warmup Instructions: 50000000
Simulation Instructions: 100000000
Number of CPUs: 1
Small page size: 4096
Large page size: 2097152

CPU 0 Bimodal branch predictor
Basic BTB sets: 1024 ways: 8 indirect buffer size: 4096 RAS size: 64
Instruction page size distrubution: 0
Loading instruction page size distribution from /home/bsc/bsc018186/scratch/itp_asplos25_AE/dump/srv12_ap.pdst
Data page size distrubution: 0
Loading data page size distribution from /home/bsc/bsc018186/scratch/itp_asplos25_AE/dump/srv12_ap.pdst
cpu0_L2C IP-based stride prefetcher
cpu0_L2C is using PTP replacement policy:
	TLB_STRESS_THRESHOLD:0
	PTE_EVICTION_RATIO:0
cpu0_L1D next line prefetcher
CHiRPing...
cpu0_L1I next line prefetcher
Off-chip DRAM Size: 4 GiB Channels: 1 Width: 64-bit Data Rate: 3200 MT/s
Heartbeat CPU 0 instructions: 10000001 cycles: 2500212 heartbeat IPC: 3.99967 cumulative IPC: 3.99967 (Simulation time: 0 hr 0 min 39 sec) 
Heartbeat CPU 0 instructions: 20000000 cycles: 5002078 heartbeat IPC: 3.99702 cumulative IPC: 3.99834 (Simulation time: 0 hr 1 min 20 sec) 
Heartbeat CPU 0 instructions: 30000001 cycles: 7502279 heartbeat IPC: 3.99968 cumulative IPC: 3.99879 (Simulation time: 0 hr 2 min 1 sec) 
Heartbeat CPU 0 instructions: 40000003 cycles: 10002393 heartbeat IPC: 3.99982 cumulative IPC: 3.99905 (Simulation time: 0 hr 2 min 43 sec) 
Heartbeat CPU 0 instructions: 50000000 cycles: 12504533 heartbeat IPC: 3.99658 cumulative IPC: 3.99855 (Simulation time: 0 hr 3 min 24 sec) 
Warmup finished CPU 0 instructions: 50000000 cycles: 12504534 cumulative IPC: 3.99855 (Simulation time: 0 hr 3 min 24 sec) 

Warmup complete CPU 0 instructions: 50000000 cycles: 12504534 (Simulation time: 0 hr 3 min 24 sec) 

Heartbeat CPU 0 instructions: 60000002 cycles: 34099423 heartbeat IPC: 0.463073 cumulative IPC: 0.463073 (Simulation time: 0 hr 4 min 40 sec) 
Heartbeat CPU 0 instructions: 70000001 cycles: 57031956 heartbeat IPC: 0.436062 cumulative IPC: 0.449162 (Simulation time: 0 hr 5 min 56 sec) 
Heartbeat CPU 0 instructions: 80000000 cycles: 79284425 heartbeat IPC: 0.449389 cumulative IPC: 0.449238 (Simulation time: 0 hr 7 min 11 sec) 
Heartbeat CPU 0 instructions: 90000002 cycles: 101387725 heartbeat IPC: 0.452422 cumulative IPC: 0.450029 (Simulation time: 0 hr 8 min 25 sec) 
Heartbeat CPU 0 instructions: 100000000 cycles: 123049150 heartbeat IPC: 0.461651 cumulative IPC: 0.452307 (Simulation time: 0 hr 9 min 39 sec) 
*** Reached end of trace: /gpfs/projects/bsc18/MN4/bsc18/romol/ChampSim/traces/qualcomm_srv/srv12_ap.champsimtrace.xz
Heartbeat CPU 0 instructions: 110000000 cycles: 144969491 heartbeat IPC: 0.456198 cumulative IPC: 0.45295 (Simulation time: 0 hr 10 min 54 sec) 
Heartbeat CPU 0 instructions: 120000001 cycles: 165201118 heartbeat IPC: 0.494276 cumulative IPC: 0.458426 (Simulation time: 0 hr 12 min 8 sec) 
Heartbeat CPU 0 instructions: 130000004 cycles: 188828825 heartbeat IPC: 0.423233 cumulative IPC: 0.45371 (Simulation time: 0 hr 13 min 24 sec) 
Heartbeat CPU 0 instructions: 140000000 cycles: 212906793 heartbeat IPC: 0.415318 cumulative IPC: 0.449097 (Simulation time: 0 hr 14 min 41 sec) 
Heartbeat CPU 0 instructions: 150000000 cycles: 234222711 heartbeat IPC: 0.469133 cumulative IPC: 0.451024 (Simulation time: 0 hr 15 min 53 sec) 
Simulation finished CPU 0 instructions: 100000000 cycles: 221718178 cumulative IPC: 0.451024 (Simulation time: 0 hr 15 min 53 sec) 

Simulation complete CPU 0 instructions: 100000000 cycles: 221718178 (Simulation time: 0 hr 15 min 53 sec) 


ChampSim completed all CPUs

Saving instructions large page distribution to /home/bsc/bsc018186/scratch/itp_asplos25_AE/dump/srv12_ap.pdst...
Saving data large page distribution to /home/bsc/bsc018186/scratch/itp_asplos25_AE/dump/srv12_ap.pdst...
=== Simulation ===
CPU 0 runs /gpfs/projects/bsc18/MN4/bsc18/romol/ChampSim/traces/qualcomm_srv/srv12_ap.champsimtrace.xz

Region of Interest Statistics

CPU 0 cumulative IPC: 0.451024 instructions: 100000000 cycles: 221718178
CPU 0 Branch Prediction Accuracy: 79.1504% MPKI: 37.9192 Average ROB Occupancy at Mispredict: 10.1405
Branch type MPKI
BRANCH_DIRECT_JUMP: 1.46916
BRANCH_INDIRECT: 18.9595
BRANCH_CONDITIONAL: 12.0596
BRANCH_DIRECT_CALL: 2.72087
BRANCH_INDIRECT_CALL: 0.807841
BRANCH_RETURN: 1.90239

Instructions large pages: 0
Instructions small pages: 1649
Large page distribution for instructions: 0%

Data large pages: 0
Data small pages: 6133
Large page distribution for data: 0%

cpu0_L1I TOTAL       ACCESS:   35893217  HIT:   27702877  MISS:    8190340  iACCESS:   35893217  iHIT:   27702877  iMISS:    8190340  dACCESS:          0  dHIT:          0  dMISS:          0  itACCESS:          0  itHIT:          0  itMISS:          0  dtACCESS:          0  dtHIT:          0  dtMISS:          0
cpu0_L1I LOAD         ACCESS:   10306104  HIT:    8049692  MISS:    2256412  iACCESS:   10306104  iHIT:    8049692  iMISS:    2256412  dACCESS:          0  dHIT:          0  dMISS:          0  itACCESS:          0  itHIT:          0  itMISS:          0  dtACCESS:          0  dtHIT:          0  dtMISS:          0
cpu0_L1I RFO          ACCESS:          0  HIT:          0  MISS:          0  iACCESS:          0  iHIT:          0  iMISS:          0  dACCESS:          0  dHIT:          0  dMISS:          0  itACCESS:          0  itHIT:          0  itMISS:          0  dtACCESS:          0  dtHIT:          0  dtMISS:          0
cpu0_L1I PREFETCH     ACCESS:   25587113  HIT:   19653185  MISS:    5933928  iACCESS:   25587113  iHIT:   19653185  iMISS:    5933928  dACCESS:          0  dHIT:          0  dMISS:          0  itACCESS:          0  itHIT:          0  itMISS:          0  dtACCESS:          0  dtHIT:          0  dtMISS:          0
cpu0_L1I WRITE        ACCESS:          0  HIT:          0  MISS:          0  iACCESS:          0  iHIT:          0  iMISS:          0  dACCESS:          0  dHIT:          0  dMISS:          0  itACCESS:          0  itHIT:          0  itMISS:          0  dtACCESS:          0  dtHIT:          0  dtMISS:          0
cpu0_L1I TRANSLATION  ACCESS:          0  HIT:          0  MISS:          0  iACCESS:          0  iHIT:          0  iMISS:          0  dACCESS:          0  dHIT:          0  dMISS:          0  itACCESS:          0  itHIT:          0  itMISS:          0  dtACCESS:          0  dtHIT:          0  dtMISS:          0
cpu0_L1I PREFETCH  REQUESTED:   27994811  ISSUED:   27994805  CROSSED:          0  USEFUL:    2035844  USELESS:     693041
cpu0_L1I AVERAGE iMISS LATENCY: 21.2522 cycles
cpu0_L1I AVERAGE dMISS LATENCY: 0 cycles
cpu0_L1I AVERAGE itMISS LATENCY: 0 cycles
cpu0_L1I AVERAGE dtMISS LATENCY: 0 cycles
cpu0_L1I PAGE CROSSINGS (TLB HIT):         0 
cpu0_L1I PAGE CROSSINGS (TLB MISS):         0 
cpu0_L1I AVERAGE MISS LATENCY: 21.2522 cycles
cpu0_ITLB TOTAL       ACCESS:   30342788  HIT:   28375559  MISS:    1967229  iACCESS:   30342788  iHIT:   28375559  iMISS:    1967229  dACCESS:          0  dHIT:          0  dMISS:          0  itACCESS:          0  itHIT:          0  itMISS:          0  dtACCESS:          0  dtHIT:          0  dtMISS:          0
cpu0_ITLB LOAD         ACCESS:   30342788  HIT:   28375559  MISS:    1967229  iACCESS:   30342788  iHIT:   28375559  iMISS:    1967229  dACCESS:          0  dHIT:          0  dMISS:          0  itACCESS:          0  itHIT:          0  itMISS:          0  dtACCESS:          0  dtHIT:          0  dtMISS:          0
cpu0_ITLB RFO          ACCESS:          0  HIT:          0  MISS:          0  iACCESS:          0  iHIT:          0  iMISS:          0  dACCESS:          0  dHIT:          0  dMISS:          0  itACCESS:          0  itHIT:          0  itMISS:          0  dtACCESS:          0  dtHIT:          0  dtMISS:          0
cpu0_ITLB PREFETCH     ACCESS:          0  HIT:          0  MISS:          0  iACCESS:          0  iHIT:          0  iMISS:          0  dACCESS:          0  dHIT:          0  dMISS:          0  itACCESS:          0  itHIT:          0  itMISS:          0  dtACCESS:          0  dtHIT:          0  dtMISS:          0
cpu0_ITLB WRITE        ACCESS:          0  HIT:          0  MISS:          0  iACCESS:          0  iHIT:          0  iMISS:          0  dACCESS:          0  dHIT:          0  dMISS:          0  itACCESS:          0  itHIT:          0  itMISS:          0  dtACCESS:          0  dtHIT:          0  dtMISS:          0
cpu0_ITLB TRANSLATION  ACCESS:          0  HIT:          0  MISS:          0  iACCESS:          0  iHIT:          0  iMISS:          0  dACCESS:          0  dHIT:          0  dMISS:          0  itACCESS:          0  itHIT:          0  itMISS:          0  dtACCESS:          0  dtHIT:          0  dtMISS:          0
cpu0_ITLB PREFETCH  REQUESTED:          0  ISSUED:          0  CROSSED:          0  USEFUL:     340454  USELESS:      66981
cpu0_ITLB AVERAGE iMISS LATENCY: 7.66971 cycles
cpu0_ITLB AVERAGE dMISS LATENCY: 0 cycles
cpu0_ITLB AVERAGE itMISS LATENCY: 0 cycles
cpu0_ITLB AVERAGE dtMISS LATENCY: 0 cycles
cpu0_ITLB PAGE CROSSINGS (TLB HIT):         0 
cpu0_ITLB PAGE CROSSINGS (TLB MISS):         0 
cpu0_ITLB AVERAGE MISS LATENCY: 7.66971 cycles
cpu0_DTLB TOTAL       ACCESS:   28338666  HIT:   26490612  MISS:    1848054  iACCESS:          0  iHIT:          0  iMISS:          0  dACCESS:   28338666  dHIT:   26490612  dMISS:    1848054  itACCESS:          0  itHIT:          0  itMISS:          0  dtACCESS:          0  dtHIT:          0  dtMISS:          0
cpu0_DTLB LOAD         ACCESS:   28338666  HIT:   26490612  MISS:    1848054  iACCESS:          0  iHIT:          0  iMISS:          0  dACCESS:   28338666  dHIT:   26490612  dMISS:    1848054  itACCESS:          0  itHIT:          0  itMISS:          0  dtACCESS:          0  dtHIT:          0  dtMISS:          0
cpu0_DTLB RFO          ACCESS:          0  HIT:          0  MISS:          0  iACCESS:          0  iHIT:          0  iMISS:          0  dACCESS:          0  dHIT:          0  dMISS:          0  itACCESS:          0  itHIT:          0  itMISS:          0  dtACCESS:          0  dtHIT:          0  dtMISS:          0
cpu0_DTLB PREFETCH     ACCESS:          0  HIT:          0  MISS:          0  iACCESS:          0  iHIT:          0  iMISS:          0  dACCESS:          0  dHIT:          0  dMISS:          0  itACCESS:          0  itHIT:          0  itMISS:          0  dtACCESS:          0  dtHIT:          0  dtMISS:          0
cpu0_DTLB WRITE        ACCESS:          0  HIT:          0  MISS:          0  iACCESS:          0  iHIT:          0  iMISS:          0  dACCESS:          0  dHIT:          0  dMISS:          0  itACCESS:          0  itHIT:          0  itMISS:          0  dtACCESS:          0  dtHIT:          0  dtMISS:          0
cpu0_DTLB TRANSLATION  ACCESS:          0  HIT:          0  MISS:          0  iACCESS:          0  iHIT:          0  iMISS:          0  dACCESS:          0  dHIT:          0  dMISS:          0  itACCESS:          0  itHIT:          0  itMISS:          0  dtACCESS:          0  dtHIT:          0  dtMISS:          0
cpu0_DTLB PREFETCH  REQUESTED:          0  ISSUED:          0  CROSSED:          0  USEFUL:          0  USELESS:          0
cpu0_DTLB AVERAGE iMISS LATENCY: 0 cycles
cpu0_DTLB AVERAGE dMISS LATENCY: 20.8428 cycles
cpu0_DTLB AVERAGE itMISS LATENCY: 0 cycles
cpu0_DTLB AVERAGE dtMISS LATENCY: 0 cycles
cpu0_DTLB PAGE CROSSINGS (TLB HIT):         0 
cpu0_DTLB PAGE CROSSINGS (TLB MISS):         0 
cpu0_DTLB AVERAGE MISS LATENCY: 20.8428 cycles
cpu0_STLB TOTAL       ACCESS:    1550364  HIT:    1292011  MISS:     258353  iACCESS:     407438  iHIT:     308473  iMISS:      98965  dACCESS:    1142926  dHIT:     983538  dMISS:     159388  itACCESS:          0  itHIT:          0  itMISS:          0  dtACCESS:          0  dtHIT:          0  dtMISS:          0
cpu0_STLB LOAD         ACCESS:    1550364  HIT:    1292011  MISS:     258353  iACCESS:     407438  iHIT:     308473  iMISS:      98965  dACCESS:    1142926  dHIT:     983538  dMISS:     159388  itACCESS:          0  itHIT:          0  itMISS:          0  dtACCESS:          0  dtHIT:          0  dtMISS:          0
cpu0_STLB RFO          ACCESS:          0  HIT:          0  MISS:          0  iACCESS:          0  iHIT:          0  iMISS:          0  dACCESS:          0  dHIT:          0  dMISS:          0  itACCESS:          0  itHIT:          0  itMISS:          0  dtACCESS:          0  dtHIT:          0  dtMISS:          0
cpu0_STLB PREFETCH     ACCESS:          0  HIT:          0  MISS:          0  iACCESS:          0  iHIT:          0  iMISS:          0  dACCESS:          0  dHIT:          0  dMISS:          0  itACCESS:          0  itHIT:          0  itMISS:          0  dtACCESS:          0  dtHIT:          0  dtMISS:          0
cpu0_STLB WRITE        ACCESS:          0  HIT:          0  MISS:          0  iACCESS:          0  iHIT:          0  iMISS:          0  dACCESS:          0  dHIT:          0  dMISS:          0  itACCESS:          0  itHIT:          0  itMISS:          0  dtACCESS:          0  dtHIT:          0  dtMISS:          0
cpu0_STLB TRANSLATION  ACCESS:          0  HIT:          0  MISS:          0  iACCESS:          0  iHIT:          0  iMISS:          0  dACCESS:          0  dHIT:          0  dMISS:          0  itACCESS:          0  itHIT:          0  itMISS:          0  dtACCESS:          0  dtHIT:          0  dtMISS:          0
cpu0_STLB PREFETCH  REQUESTED:          0  ISSUED:          0  CROSSED:          0  USEFUL:          0  USELESS:          0
cpu0_STLB AVERAGE iMISS LATENCY: 45.7918 cycles
cpu0_STLB AVERAGE dMISS LATENCY: 113.636 cycles
cpu0_STLB AVERAGE itMISS LATENCY: 0 cycles
cpu0_STLB AVERAGE dtMISS LATENCY: 0 cycles
cpu0_STLB PAGE CROSSINGS (TLB HIT):         0 
cpu0_STLB PAGE CROSSINGS (TLB MISS):         0 
cpu0_STLB AVERAGE MISS LATENCY: 159.428 cycles
cpu0_L1D TOTAL       ACCESS:   43702976  HIT:   39035087  MISS:    4667889  iACCESS:          0  iHIT:          0  iMISS:          0  dACCESS:   43364973  dHIT:   39007730  dMISS:    4357243  itACCESS:     106610  itHIT:      14531  itMISS:      92079  dtACCESS:     231393  dtHIT:      12826  dtMISS:     218567
cpu0_L1D LOAD         ACCESS:   19851875  HIT:   17879050  MISS:    1972825  iACCESS:          0  iHIT:          0  iMISS:          0  dACCESS:   19851875  dHIT:   17879050  dMISS:    1972825  itACCESS:          0  itHIT:          0  itMISS:          0  dtACCESS:          0  dtHIT:          0  dtMISS:          0
cpu0_L1D RFO          ACCESS:          0  HIT:          0  MISS:          0  iACCESS:          0  iHIT:          0  iMISS:          0  dACCESS:          0  dHIT:          0  dMISS:          0  itACCESS:          0  itHIT:          0  itMISS:          0  dtACCESS:          0  dtHIT:          0  dtMISS:          0
cpu0_L1D PREFETCH     ACCESS:   13300693  HIT:   11404621  MISS:    1896072  iACCESS:          0  iHIT:          0  iMISS:          0  dACCESS:   13300693  dHIT:   11404621  dMISS:    1896072  itACCESS:          0  itHIT:          0  itMISS:          0  dtACCESS:          0  dtHIT:          0  dtMISS:          0
cpu0_L1D WRITE        ACCESS:   10212405  HIT:    9724059  MISS:     488346  iACCESS:          0  iHIT:          0  iMISS:          0  dACCESS:   10212405  dHIT:    9724059  dMISS:     488346  itACCESS:          0  itHIT:          0  itMISS:          0  dtACCESS:          0  dtHIT:          0  dtMISS:          0
cpu0_L1D TRANSLATION  ACCESS:     338003  HIT:      27357  MISS:     310646  iACCESS:          0  iHIT:          0  iMISS:          0  dACCESS:          0  dHIT:          0  dMISS:          0  itACCESS:     106610  itHIT:      14531  itMISS:      92079  dtACCESS:     231393  dtHIT:      12826  dtMISS:     218567
cpu0_L1D PREFETCH  REQUESTED:   19851875  ISSUED:   17663468  CROSSED:          0  USEFUL:     316026  USELESS:     739418
cpu0_L1D AVERAGE iMISS LATENCY: 0 cycles
cpu0_L1D AVERAGE dMISS LATENCY: 41.3609 cycles
cpu0_L1D AVERAGE itMISS LATENCY: 2.35114 cycles
cpu0_L1D AVERAGE dtMISS LATENCY: 5.81845 cycles
cpu0_L1D PAGE CROSSINGS (TLB HIT):         0 
cpu0_L1D PAGE CROSSINGS (TLB MISS):         0 
cpu0_L1D AVERAGE MISS LATENCY: 49.5305 cycles
cpu0_L2C TOTAL       ACCESS:    7542917  HIT:    3070033  MISS:    4472884  iACCESS:    3481501  iHIT:    1714176  iMISS:    1767325  dACCESS:    3769849  dHIT:    1277462  dMISS:    2492387  itACCESS:      91671  itHIT:      28086  itMISS:      63585  dtACCESS:     199896  dtHIT:      50309  dtMISS:     149587
cpu0_L2C LOAD         ACCESS:    1788536  HIT:     721999  MISS:    1066537  iACCESS:     788463  iHIT:     398460  iMISS:     390003  dACCESS:    1000073  dHIT:     323539  dMISS:     676534  itACCESS:          0  itHIT:          0  itMISS:          0  dtACCESS:          0  dtHIT:          0  dtMISS:          0
cpu0_L2C RFO          ACCESS:     169469  HIT:      51159  MISS:     118310  iACCESS:          0  iHIT:          0  iMISS:          0  dACCESS:     169469  dHIT:      51159  dMISS:     118310  itACCESS:          0  itHIT:          0  itMISS:          0  dtACCESS:          0  dtHIT:          0  dtMISS:          0
cpu0_L2C PREFETCH     ACCESS:    5009987  HIT:    2006809  MISS:    3003178  iACCESS:    2693038  iHIT:    1315716  iMISS:    1377322  dACCESS:    2316949  dHIT:     691093  dMISS:    1625856  itACCESS:          0  itHIT:          0  itMISS:          0  dtACCESS:          0  dtHIT:          0  dtMISS:          0
cpu0_L2C WRITE        ACCESS:     283358  HIT:     211671  MISS:      71687  iACCESS:          0  iHIT:          0  iMISS:          0  dACCESS:     283358  dHIT:     211671  dMISS:      71687  itACCESS:          0  itHIT:          0  itMISS:          0  dtACCESS:          0  dtHIT:          0  dtMISS:          0
cpu0_L2C TRANSLATION  ACCESS:     291567  HIT:      78395  MISS:     213172  iACCESS:          0  iHIT:          0  iMISS:          0  dACCESS:          0  dHIT:          0  dMISS:          0  itACCESS:      91671  itHIT:      28086  itMISS:      63585  dtACCESS:     199896  dtHIT:      50309  dtMISS:     149587
cpu0_L2C PREFETCH  REQUESTED:    1516069  ISSUED:    1516003  CROSSED:          0  USEFUL:     385309  USELESS:     356533
cpu0_L2C AVERAGE iMISS LATENCY: 32.1803 cycles
cpu0_L2C AVERAGE dMISS LATENCY: 55.2685 cycles
cpu0_L2C AVERAGE itMISS LATENCY: 2.25447 cycles
cpu0_L2C AVERAGE dtMISS LATENCY: 5.63422 cycles
cpu0_L2C PAGE CROSSINGS (TLB HIT):         0 
cpu0_L2C PAGE CROSSINGS (TLB MISS):         0 
cpu0_L2C AVERAGE MISS LATENCY: 95.3374 cycles
LLC TOTAL       ACCESS:    4386517  HIT:    2248428  MISS:    2138089  iACCESS:    1682312  iHIT:     930671  iMISS:     751641  dACCESS:    2491033  dHIT:    1272618  dMISS:    1218415  itACCESS:      63585  itHIT:      13208  itMISS:      50377  dtACCESS:     149587  dtHIT:      31931  dtMISS:     117656
LLC LOAD         ACCESS:    1059030  HIT:     582160  MISS:     476870  iACCESS:     388600  iHIT:     233510  iMISS:     155090  dACCESS:     670430  dHIT:     348650  dMISS:     321780  itACCESS:          0  itHIT:          0  itMISS:          0  dtACCESS:          0  dtHIT:          0  dtMISS:          0
LLC RFO          ACCESS:     118306  HIT:      52169  MISS:      66137  iACCESS:          0  iHIT:          0  iMISS:          0  dACCESS:     118306  dHIT:      52169  dMISS:      66137  itACCESS:          0  itHIT:          0  itMISS:          0  dtACCESS:          0  dtHIT:          0  dtMISS:          0
LLC PREFETCH     ACCESS:    2810301  HIT:    1389311  MISS:    1420990  iACCESS:    1293712  iHIT:     697161  iMISS:     596551  dACCESS:    1516589  dHIT:     692150  dMISS:     824439  itACCESS:          0  itHIT:          0  itMISS:          0  dtACCESS:          0  dtHIT:          0  dtMISS:          0
LLC WRITE        ACCESS:     185708  HIT:     179649  MISS:       6059  iACCESS:          0  iHIT:          0  iMISS:          0  dACCESS:     185708  dHIT:     179649  dMISS:       6059  itACCESS:          0  itHIT:          0  itMISS:          0  dtACCESS:          0  dtHIT:          0  dtMISS:          0
LLC TRANSLATION  ACCESS:     213172  HIT:      45139  MISS:     168033  iACCESS:          0  iHIT:          0  iMISS:          0  dACCESS:          0  dHIT:          0  dMISS:          0  itACCESS:      63585  itHIT:      13208  itMISS:      50377  dtACCESS:     149587  dtHIT:      31931  dtMISS:     117656
LLC PREFETCH  REQUESTED:          0  ISSUED:          0  CROSSED:          0  USEFUL:          0  USELESS:          0
LLC AVERAGE iMISS LATENCY: 51.9731 cycles
LLC AVERAGE dMISS LATENCY: 95.6883 cycles
LLC AVERAGE itMISS LATENCY: 4.12977 cycles
LLC AVERAGE dtMISS LATENCY: 10.4093 cycles
LLC PAGE CROSSINGS (TLB HIT):         0 
LLC PAGE CROSSINGS (TLB MISS):         0 
LLC AVERAGE MISS LATENCY: 162.201 cycles

PageTableWalker TOTAL       ACCESS:     126888  
PageTableWalker AVERAGE LATENCY: 4.21404 cycles
PageTableWalker TOTAL LATENCY: 534711 cycles

DRAM Statistics
Channel 0
 RQ ROW_BUFFER_HIT:     594428
  ROW_BUFFER_MISS:    1519242
 AVG DBUS CONGESTED CYCLE:    3.64234
 WQ ROW_BUFFER_HIT:      44923
  ROW_BUFFER_MISS:      32579  FULL:          0

