last_page:0x200000000000000
VMEM_RES_CAP:0x100000
PAGE_SIZE:4096
LOG2_PAGE_SIZE:12
LOG2_PAGE_TABLE_SIZE:9
page_table_levels:5
WARNING: physical memory size is smaller than virtual memory size
FDiP enabled with aggresivity 16

*** ChampSim Multicore Out-of-Order Simulator ***

Warmup Instructions: 50000000
Simulation Instructions: 100000000
Number of CPUs: 1
Small page size: 4096
Large page size: 2097152

CPU 0 Bimodal branch predictor
Basic BTB sets: 1024 ways: 8 indirect buffer size: 4096 RAS size: 64
Instruction page size distrubution: 0
Loading instruction page size distribution from /home/bsc/bsc018186/scratch/itp_asplos25_AE/dump/srv147_ap.pdst
Data page size distrubution: 0
Loading data page size distribution from /home/bsc/bsc018186/scratch/itp_asplos25_AE/dump/srv147_ap.pdst
cpu0_L2C IP-based stride prefetcher
cpu0_L1D next line prefetcher
cpu0_L1I next line prefetcher
Off-chip DRAM Size: 4 GiB Channels: 1 Width: 64-bit Data Rate: 3200 MT/s
Heartbeat CPU 0 instructions: 10000003 cycles: 2500174 heartbeat IPC: 3.99973 cumulative IPC: 3.99973 (Simulation time: 0 hr 0 min 35 sec) 
Heartbeat CPU 0 instructions: 20000002 cycles: 5000184 heartbeat IPC: 3.99999 cumulative IPC: 3.99986 (Simulation time: 0 hr 1 min 12 sec) 
Heartbeat CPU 0 instructions: 30000002 cycles: 7500184 heartbeat IPC: 4 cumulative IPC: 3.99991 (Simulation time: 0 hr 1 min 49 sec) 
Heartbeat CPU 0 instructions: 40000001 cycles: 10000196 heartbeat IPC: 3.99999 cumulative IPC: 3.99993 (Simulation time: 0 hr 2 min 27 sec) 
Heartbeat CPU 0 instructions: 50000000 cycles: 12844599 heartbeat IPC: 3.51568 cumulative IPC: 3.89269 (Simulation time: 0 hr 3 min 6 sec) 
Warmup finished CPU 0 instructions: 50000000 cycles: 12844600 cumulative IPC: 3.89269 (Simulation time: 0 hr 3 min 6 sec) 

Warmup complete CPU 0 instructions: 50000000 cycles: 12844600 (Simulation time: 0 hr 3 min 6 sec) 

Heartbeat CPU 0 instructions: 60000001 cycles: 23596399 heartbeat IPC: 0.930077 cumulative IPC: 0.930078 (Simulation time: 0 hr 4 min 2 sec) 
Heartbeat CPU 0 instructions: 70000002 cycles: 37499800 heartbeat IPC: 0.719249 cumulative IPC: 0.811188 (Simulation time: 0 hr 5 min 1 sec) 
Heartbeat CPU 0 instructions: 80000002 cycles: 52074042 heartbeat IPC: 0.686143 cumulative IPC: 0.764732 (Simulation time: 0 hr 6 min 2 sec) 
Heartbeat CPU 0 instructions: 90000003 cycles: 66753764 heartbeat IPC: 0.681212 cumulative IPC: 0.741989 (Simulation time: 0 hr 7 min 2 sec) 
Heartbeat CPU 0 instructions: 100000000 cycles: 81247795 heartbeat IPC: 0.689939 cumulative IPC: 0.730961 (Simulation time: 0 hr 8 min 3 sec) 
*** Reached end of trace: /gpfs/projects/bsc18/MN4/bsc18/romol/ChampSim/traces/qualcomm_srv/srv147_ap.champsimtrace.xz
Heartbeat CPU 0 instructions: 110000000 cycles: 95331843 heartbeat IPC: 0.710024 cumulative IPC: 0.727386 (Simulation time: 0 hr 9 min 6 sec) 
Heartbeat CPU 0 instructions: 120000001 cycles: 109054633 heartbeat IPC: 0.728715 cumulative IPC: 0.727575 (Simulation time: 0 hr 10 min 11 sec) 
Heartbeat CPU 0 instructions: 130000001 cycles: 122158314 heartbeat IPC: 0.763145 cumulative IPC: 0.731839 (Simulation time: 0 hr 11 min 16 sec) 
Heartbeat CPU 0 instructions: 140000002 cycles: 135790823 heartbeat IPC: 0.733541 cumulative IPC: 0.732028 (Simulation time: 0 hr 12 min 18 sec) 
Heartbeat CPU 0 instructions: 150000000 cycles: 146963267 heartbeat IPC: 0.89506 cumulative IPC: 0.745609 (Simulation time: 0 hr 13 min 15 sec) 
Simulation finished CPU 0 instructions: 100000000 cycles: 134118668 cumulative IPC: 0.745609 (Simulation time: 0 hr 13 min 15 sec) 

Simulation complete CPU 0 instructions: 100000000 cycles: 134118668 (Simulation time: 0 hr 13 min 15 sec) 


ChampSim completed all CPUs

Saving instructions large page distribution to /home/bsc/bsc018186/scratch/itp_asplos25_AE/dump/srv147_ap.pdst...
Saving data large page distribution to /home/bsc/bsc018186/scratch/itp_asplos25_AE/dump/srv147_ap.pdst...
=== Simulation ===
CPU 0 runs /gpfs/projects/bsc18/MN4/bsc18/romol/ChampSim/traces/qualcomm_srv/srv147_ap.champsimtrace.xz

Region of Interest Statistics

CPU 0 cumulative IPC: 0.745609 instructions: 100000000 cycles: 134118668
CPU 0 Branch Prediction Accuracy: 84.8416% MPKI: 28.5957 Average ROB Occupancy at Mispredict: 13.3929
Branch type MPKI
BRANCH_DIRECT_JUMP: 0.948341
BRANCH_INDIRECT: 14.7218
BRANCH_CONDITIONAL: 9.43382
BRANCH_DIRECT_CALL: 1.71993
BRANCH_INDIRECT_CALL: 0.533371
BRANCH_RETURN: 1.23849

Instructions large pages: 0
Instructions small pages: 10728
Large page distribution for instructions: 0%

Data large pages: 0
Data small pages: 9646
Large page distribution for data: 0%

cpu0_L1I TOTAL       ACCESS:   34897749  HIT:   27244516  MISS:    7653233  iACCESS:   34897749  iHIT:   27244516  iMISS:    7653233  dACCESS:          0  dHIT:          0  dMISS:          0  itACCESS:          0  itHIT:          0  itMISS:          0  dtACCESS:          0  dtHIT:          0  dtMISS:          0
cpu0_L1I LOAD         ACCESS:    9641369  HIT:    7503786  MISS:    2137583  iACCESS:    9641369  iHIT:    7503786  iMISS:    2137583  dACCESS:          0  dHIT:          0  dMISS:          0  itACCESS:          0  itHIT:          0  itMISS:          0  dtACCESS:          0  dtHIT:          0  dtMISS:          0
cpu0_L1I RFO          ACCESS:          0  HIT:          0  MISS:          0  iACCESS:          0  iHIT:          0  iMISS:          0  dACCESS:          0  dHIT:          0  dMISS:          0  itACCESS:          0  itHIT:          0  itMISS:          0  dtACCESS:          0  dtHIT:          0  dtMISS:          0
cpu0_L1I PREFETCH     ACCESS:   25256380  HIT:   19740730  MISS:    5515650  iACCESS:   25256380  iHIT:   19740730  iMISS:    5515650  dACCESS:          0  dHIT:          0  dMISS:          0  itACCESS:          0  itHIT:          0  itMISS:          0  dtACCESS:          0  dtHIT:          0  dtMISS:          0
cpu0_L1I WRITE        ACCESS:          0  HIT:          0  MISS:          0  iACCESS:          0  iHIT:          0  iMISS:          0  dACCESS:          0  dHIT:          0  dMISS:          0  itACCESS:          0  itHIT:          0  itMISS:          0  dtACCESS:          0  dtHIT:          0  dtMISS:          0
cpu0_L1I TRANSLATION  ACCESS:          0  HIT:          0  MISS:          0  iACCESS:          0  iHIT:          0  iMISS:          0  dACCESS:          0  dHIT:          0  dMISS:          0  itACCESS:          0  itHIT:          0  itMISS:          0  dtACCESS:          0  dtHIT:          0  dtMISS:          0
cpu0_L1I PREFETCH  REQUESTED:   27397292  ISSUED:   27396431  CROSSED:          0  USEFUL:    1778410  USELESS:     576357
cpu0_L1I AVERAGE iMISS LATENCY: 13.0131 cycles
cpu0_L1I AVERAGE dMISS LATENCY: 0 cycles
cpu0_L1I AVERAGE itMISS LATENCY: 0 cycles
cpu0_L1I AVERAGE dtMISS LATENCY: 0 cycles
cpu0_L1I PAGE CROSSINGS (TLB HIT):         0 
cpu0_L1I PAGE CROSSINGS (TLB MISS):         0 
cpu0_L1I AVERAGE MISS LATENCY: 13.0131 cycles
cpu0_ITLB TOTAL       ACCESS:   28956008  HIT:   27182811  MISS:    1773197  iACCESS:   28956008  iHIT:   27182811  iMISS:    1773197  dACCESS:          0  dHIT:          0  dMISS:          0  itACCESS:          0  itHIT:          0  itMISS:          0  dtACCESS:          0  dtHIT:          0  dtMISS:          0
cpu0_ITLB LOAD         ACCESS:   28956008  HIT:   27182811  MISS:    1773197  iACCESS:   28956008  iHIT:   27182811  iMISS:    1773197  dACCESS:          0  dHIT:          0  dMISS:          0  itACCESS:          0  itHIT:          0  itMISS:          0  dtACCESS:          0  dtHIT:          0  dtMISS:          0
cpu0_ITLB RFO          ACCESS:          0  HIT:          0  MISS:          0  iACCESS:          0  iHIT:          0  iMISS:          0  dACCESS:          0  dHIT:          0  dMISS:          0  itACCESS:          0  itHIT:          0  itMISS:          0  dtACCESS:          0  dtHIT:          0  dtMISS:          0
cpu0_ITLB PREFETCH     ACCESS:          0  HIT:          0  MISS:          0  iACCESS:          0  iHIT:          0  iMISS:          0  dACCESS:          0  dHIT:          0  dMISS:          0  itACCESS:          0  itHIT:          0  itMISS:          0  dtACCESS:          0  dtHIT:          0  dtMISS:          0
cpu0_ITLB WRITE        ACCESS:          0  HIT:          0  MISS:          0  iACCESS:          0  iHIT:          0  iMISS:          0  dACCESS:          0  dHIT:          0  dMISS:          0  itACCESS:          0  itHIT:          0  itMISS:          0  dtACCESS:          0  dtHIT:          0  dtMISS:          0
cpu0_ITLB TRANSLATION  ACCESS:          0  HIT:          0  MISS:          0  iACCESS:          0  iHIT:          0  iMISS:          0  dACCESS:          0  dHIT:          0  dMISS:          0  itACCESS:          0  itHIT:          0  itMISS:          0  dtACCESS:          0  dtHIT:          0  dtMISS:          0
cpu0_ITLB PREFETCH  REQUESTED:          0  ISSUED:          0  CROSSED:          0  USEFUL:     290447  USELESS:      58608
cpu0_ITLB AVERAGE iMISS LATENCY: 3.28884 cycles
cpu0_ITLB AVERAGE dMISS LATENCY: 0 cycles
cpu0_ITLB AVERAGE itMISS LATENCY: 0 cycles
cpu0_ITLB AVERAGE dtMISS LATENCY: 0 cycles
cpu0_ITLB PAGE CROSSINGS (TLB HIT):         0 
cpu0_ITLB PAGE CROSSINGS (TLB MISS):         0 
cpu0_ITLB AVERAGE MISS LATENCY: 3.28884 cycles
cpu0_DTLB TOTAL       ACCESS:   29054404  HIT:   25451554  MISS:    3602850  iACCESS:          0  iHIT:          0  iMISS:          0  dACCESS:   29054404  dHIT:   25451554  dMISS:    3602850  itACCESS:          0  itHIT:          0  itMISS:          0  dtACCESS:          0  dtHIT:          0  dtMISS:          0
cpu0_DTLB LOAD         ACCESS:   29054404  HIT:   25451554  MISS:    3602850  iACCESS:          0  iHIT:          0  iMISS:          0  dACCESS:   29054404  dHIT:   25451554  dMISS:    3602850  itACCESS:          0  itHIT:          0  itMISS:          0  dtACCESS:          0  dtHIT:          0  dtMISS:          0
cpu0_DTLB RFO          ACCESS:          0  HIT:          0  MISS:          0  iACCESS:          0  iHIT:          0  iMISS:          0  dACCESS:          0  dHIT:          0  dMISS:          0  itACCESS:          0  itHIT:          0  itMISS:          0  dtACCESS:          0  dtHIT:          0  dtMISS:          0
cpu0_DTLB PREFETCH     ACCESS:          0  HIT:          0  MISS:          0  iACCESS:          0  iHIT:          0  iMISS:          0  dACCESS:          0  dHIT:          0  dMISS:          0  itACCESS:          0  itHIT:          0  itMISS:          0  dtACCESS:          0  dtHIT:          0  dtMISS:          0
cpu0_DTLB WRITE        ACCESS:          0  HIT:          0  MISS:          0  iACCESS:          0  iHIT:          0  iMISS:          0  dACCESS:          0  dHIT:          0  dMISS:          0  itACCESS:          0  itHIT:          0  itMISS:          0  dtACCESS:          0  dtHIT:          0  dtMISS:          0
cpu0_DTLB TRANSLATION  ACCESS:          0  HIT:          0  MISS:          0  iACCESS:          0  iHIT:          0  iMISS:          0  dACCESS:          0  dHIT:          0  dMISS:          0  itACCESS:          0  itHIT:          0  itMISS:          0  dtACCESS:          0  dtHIT:          0  dtMISS:          0
cpu0_DTLB PREFETCH  REQUESTED:          0  ISSUED:          0  CROSSED:          0  USEFUL:          0  USELESS:          0
cpu0_DTLB AVERAGE iMISS LATENCY: 0 cycles
cpu0_DTLB AVERAGE dMISS LATENCY: 7.23672 cycles
cpu0_DTLB AVERAGE itMISS LATENCY: 0 cycles
cpu0_DTLB AVERAGE dtMISS LATENCY: 0 cycles
cpu0_DTLB PAGE CROSSINGS (TLB HIT):         0 
cpu0_DTLB PAGE CROSSINGS (TLB MISS):         0 
cpu0_DTLB AVERAGE MISS LATENCY: 7.23672 cycles
cpu0_STLB TOTAL       ACCESS:    2278734  HIT:    2125349  MISS:     153385  iACCESS:     349055  iHIT:     296225  iMISS:      52830  dACCESS:    1929679  dHIT:    1829124  dMISS:     100555  itACCESS:          0  itHIT:          0  itMISS:          0  dtACCESS:          0  dtHIT:          0  dtMISS:          0
cpu0_STLB LOAD         ACCESS:    2278734  HIT:    2125349  MISS:     153385  iACCESS:     349055  iHIT:     296225  iMISS:      52830  dACCESS:    1929679  dHIT:    1829124  dMISS:     100555  itACCESS:          0  itHIT:          0  itMISS:          0  dtACCESS:          0  dtHIT:          0  dtMISS:          0
cpu0_STLB RFO          ACCESS:          0  HIT:          0  MISS:          0  iACCESS:          0  iHIT:          0  iMISS:          0  dACCESS:          0  dHIT:          0  dMISS:          0  itACCESS:          0  itHIT:          0  itMISS:          0  dtACCESS:          0  dtHIT:          0  dtMISS:          0
cpu0_STLB PREFETCH     ACCESS:          0  HIT:          0  MISS:          0  iACCESS:          0  iHIT:          0  iMISS:          0  dACCESS:          0  dHIT:          0  dMISS:          0  itACCESS:          0  itHIT:          0  itMISS:          0  dtACCESS:          0  dtHIT:          0  dtMISS:          0
cpu0_STLB WRITE        ACCESS:          0  HIT:          0  MISS:          0  iACCESS:          0  iHIT:          0  iMISS:          0  dACCESS:          0  dHIT:          0  dMISS:          0  itACCESS:          0  itHIT:          0  itMISS:          0  dtACCESS:          0  dtHIT:          0  dtMISS:          0
cpu0_STLB TRANSLATION  ACCESS:          0  HIT:          0  MISS:          0  iACCESS:          0  iHIT:          0  iMISS:          0  dACCESS:          0  dHIT:          0  dMISS:          0  itACCESS:          0  itHIT:          0  itMISS:          0  dtACCESS:          0  dtHIT:          0  dtMISS:          0
cpu0_STLB PREFETCH  REQUESTED:          0  ISSUED:          0  CROSSED:          0  USEFUL:          0  USELESS:          0
cpu0_STLB AVERAGE iMISS LATENCY: 20.0573 cycles
cpu0_STLB AVERAGE dMISS LATENCY: 68.8402 cycles
cpu0_STLB AVERAGE itMISS LATENCY: 0 cycles
cpu0_STLB AVERAGE dtMISS LATENCY: 0 cycles
cpu0_STLB PAGE CROSSINGS (TLB HIT):         0 
cpu0_STLB PAGE CROSSINGS (TLB MISS):         0 
cpu0_STLB AVERAGE MISS LATENCY: 88.8974 cycles
cpu0_L1D TOTAL       ACCESS:   43746564  HIT:   38391613  MISS:    5354951  iACCESS:          0  iHIT:          0  iMISS:          0  dACCESS:   43537080  dHIT:   38373558  dMISS:    5163522  itACCESS:      57245  itHIT:       8143  itMISS:      49102  dtACCESS:     152239  dtHIT:       9912  dtMISS:     142327
cpu0_L1D LOAD         ACCESS:   20991457  HIT:   18007185  MISS:    2984272  iACCESS:          0  iHIT:          0  iMISS:          0  dACCESS:   20991457  dHIT:   18007185  dMISS:    2984272  itACCESS:          0  itHIT:          0  itMISS:          0  dtACCESS:          0  dtHIT:          0  dtMISS:          0
cpu0_L1D RFO          ACCESS:          0  HIT:          0  MISS:          0  iACCESS:          0  iHIT:          0  iMISS:          0  dACCESS:          0  dHIT:          0  dMISS:          0  itACCESS:          0  itHIT:          0  itMISS:          0  dtACCESS:          0  dtHIT:          0  dtMISS:          0
cpu0_L1D PREFETCH     ACCESS:   12661594  HIT:   10899712  MISS:    1761882  iACCESS:          0  iHIT:          0  iMISS:          0  dACCESS:   12661594  dHIT:   10899712  dMISS:    1761882  itACCESS:          0  itHIT:          0  itMISS:          0  dtACCESS:          0  dtHIT:          0  dtMISS:          0
cpu0_L1D WRITE        ACCESS:    9884029  HIT:    9466661  MISS:     417368  iACCESS:          0  iHIT:          0  iMISS:          0  dACCESS:    9884029  dHIT:    9466661  dMISS:     417368  itACCESS:          0  itHIT:          0  itMISS:          0  dtACCESS:          0  dtHIT:          0  dtMISS:          0
cpu0_L1D TRANSLATION  ACCESS:     209484  HIT:      18055  MISS:     191429  iACCESS:          0  iHIT:          0  iMISS:          0  dACCESS:          0  dHIT:          0  dMISS:          0  itACCESS:      57245  itHIT:       8143  itMISS:      49102  dtACCESS:     152239  dtHIT:       9912  dtMISS:     142327
cpu0_L1D PREFETCH  REQUESTED:   20991457  ISSUED:   17030329  CROSSED:          0  USEFUL:     280656  USELESS:     699946
cpu0_L1D AVERAGE iMISS LATENCY: 0 cycles
cpu0_L1D AVERAGE dMISS LATENCY: 24.2199 cycles
cpu0_L1D AVERAGE itMISS LATENCY: 0.485095 cycles
cpu0_L1D AVERAGE dtMISS LATENCY: 1.52877 cycles
cpu0_L1D PAGE CROSSINGS (TLB HIT):         0 
cpu0_L1D PAGE CROSSINGS (TLB MISS):         0 
cpu0_L1D AVERAGE MISS LATENCY: 26.2338 cycles
cpu0_L2C TOTAL       ACCESS:    7600466  HIT:    2169691  MISS:    5430775  iACCESS:    3031301  iHIT:     799993  iMISS:    2231308  dACCESS:    4387719  dHIT:    1269384  dMISS:    3118335  itACCESS:      49102  itHIT:      32680  itMISS:      16422  dtACCESS:     132344  dtHIT:      67634  dtMISS:      64710
cpu0_L2C LOAD         ACCESS:    2660675  HIT:     824688  MISS:    1835987  iACCESS:     711968  iHIT:     135743  iMISS:     576225  dACCESS:    1948707  dHIT:     688945  dMISS:    1259762  itACCESS:          0  itHIT:          0  itMISS:          0  dtACCESS:          0  dtHIT:          0  dtMISS:          0
cpu0_L2C RFO          ACCESS:     162766  HIT:      59290  MISS:     103476  iACCESS:          0  iHIT:          0  iMISS:          0  dACCESS:     162766  dHIT:      59290  dMISS:     103476  itACCESS:          0  itHIT:          0  itMISS:          0  dtACCESS:          0  dtHIT:          0  dtMISS:          0
cpu0_L2C PREFETCH     ACCESS:    4337197  HIT:    1062068  MISS:    3275129  iACCESS:    2319333  iHIT:     664250  iMISS:    1655083  dACCESS:    2017864  dHIT:     397818  dMISS:    1620046  itACCESS:          0  itHIT:          0  itMISS:          0  dtACCESS:          0  dtHIT:          0  dtMISS:          0
cpu0_L2C WRITE        ACCESS:     258382  HIT:     123331  MISS:     135051  iACCESS:          0  iHIT:          0  iMISS:          0  dACCESS:     258382  dHIT:     123331  dMISS:     135051  itACCESS:          0  itHIT:          0  itMISS:          0  dtACCESS:          0  dtHIT:          0  dtMISS:          0
cpu0_L2C TRANSLATION  ACCESS:     181446  HIT:     100314  MISS:      81132  iACCESS:          0  iHIT:          0  iMISS:          0  dACCESS:          0  dHIT:          0  dMISS:          0  itACCESS:      49102  itHIT:      32680  itMISS:      16422  dtACCESS:     132344  dtHIT:      67634  dtMISS:      64710
cpu0_L2C PREFETCH  REQUESTED:    1275939  ISSUED:    1275939  CROSSED:          0  USEFUL:     378949  USELESS:     337940
cpu0_L2C AVERAGE iMISS LATENCY: 13.0892 cycles
cpu0_L2C AVERAGE dMISS LATENCY: 24.5294 cycles
cpu0_L2C AVERAGE itMISS LATENCY: 0.393714 cycles
cpu0_L2C AVERAGE dtMISS LATENCY: 1.27473 cycles
cpu0_L2C PAGE CROSSINGS (TLB HIT):         0 
cpu0_L2C PAGE CROSSINGS (TLB MISS):         0 
cpu0_L2C AVERAGE MISS LATENCY: 39.287 cycles
LLC TOTAL       ACCESS:    5327393  HIT:    4613076  MISS:     714317  iACCESS:    2185097  iHIT:    1988130  iMISS:     196967  dACCESS:    3061164  dHIT:    2586245  dMISS:     474919  itACCESS:      16422  itHIT:       5865  itMISS:      10557  dtACCESS:      64710  dtHIT:      32836  dtMISS:      31874
LLC LOAD         ACCESS:    1833757  HIT:    1669321  MISS:     164436  iACCESS:     575014  iHIT:     531666  iMISS:      43348  dACCESS:    1258743  dHIT:    1137655  dMISS:     121088  itACCESS:          0  itHIT:          0  itMISS:          0  dtACCESS:          0  dtHIT:          0  dtMISS:          0
LLC RFO          ACCESS:     103469  HIT:      71222  MISS:      32247  iACCESS:          0  iHIT:          0  iMISS:          0  dACCESS:     103469  dHIT:      71222  dMISS:      32247  itACCESS:          0  itHIT:          0  itMISS:          0  dtACCESS:          0  dtHIT:          0  dtMISS:          0
LLC PREFETCH     ACCESS:    3182999  HIT:    2716496  MISS:     466503  iACCESS:    1610083  iHIT:    1456464  iMISS:     153619  dACCESS:    1572916  dHIT:    1260032  dMISS:     312884  itACCESS:          0  itHIT:          0  itMISS:          0  dtACCESS:          0  dtHIT:          0  dtMISS:          0
LLC WRITE        ACCESS:     126036  HIT:     117336  MISS:       8700  iACCESS:          0  iHIT:          0  iMISS:          0  dACCESS:     126036  dHIT:     117336  dMISS:       8700  itACCESS:          0  itHIT:          0  itMISS:          0  dtACCESS:          0  dtHIT:          0  dtMISS:          0
LLC TRANSLATION  ACCESS:      81132  HIT:      38701  MISS:      42431  iACCESS:          0  iHIT:          0  iMISS:          0  dACCESS:          0  dHIT:          0  dMISS:          0  itACCESS:      16422  itHIT:       5865  itMISS:      10557  dtACCESS:      64710  dtHIT:      32836  dtMISS:      31874
LLC PREFETCH  REQUESTED:          0  ISSUED:          0  CROSSED:          0  USEFUL:          0  USELESS:          0
LLC AVERAGE iMISS LATENCY: 40.5201 cycles
LLC AVERAGE dMISS LATENCY: 107.139 cycles
LLC AVERAGE itMISS LATENCY: 2.54265 cycles
LLC AVERAGE dtMISS LATENCY: 7.92717 cycles
LLC PAGE CROSSINGS (TLB HIT):         0 
LLC PAGE CROSSINGS (TLB MISS):         0 
LLC AVERAGE MISS LATENCY: 158.129 cycles

PageTableWalker TOTAL       ACCESS:      72971  
PageTableWalker AVERAGE LATENCY: 4.55668 cycles
PageTableWalker TOTAL LATENCY: 332505 cycles

DRAM Statistics
Channel 0
 RQ ROW_BUFFER_HIT:     191126
  ROW_BUFFER_MISS:     513684
 AVG DBUS CONGESTED CYCLE:    3.63548
 WQ ROW_BUFFER_HIT:      13564
  ROW_BUFFER_MISS:      19917  FULL:          0

