last_page:0x200000000000000
VMEM_RES_CAP:0x100000
PAGE_SIZE:4096
LOG2_PAGE_SIZE:12
LOG2_PAGE_TABLE_SIZE:9
page_table_levels:5
WARNING: physical memory size is smaller than virtual memory size
FDiP enabled with aggresivity 16

*** ChampSim Multicore Out-of-Order Simulator ***

Warmup Instructions: 50000000
Simulation Instructions: 100000000
Number of CPUs: 1
Small page size: 4096
Large page size: 2097152

CPU 0 Bimodal branch predictor
Basic BTB sets: 1024 ways: 8 indirect buffer size: 4096 RAS size: 64
Instruction page size distrubution: 0
Loading instruction page size distribution from /home/bsc/bsc018186/scratch/itp_asplos25_AE/dump/srv162_ap.pdst
Data page size distrubution: 0
Loading data page size distribution from /home/bsc/bsc018186/scratch/itp_asplos25_AE/dump/srv162_ap.pdst
cpu0_L2C IP-based stride prefetcher
cpu0_L1D next line prefetcher
CHiRPing...
cpu0_L1I next line prefetcher
Off-chip DRAM Size: 4 GiB Channels: 1 Width: 64-bit Data Rate: 3200 MT/s
Heartbeat CPU 0 instructions: 10000003 cycles: 2500124 heartbeat IPC: 3.99981 cumulative IPC: 3.99981 (Simulation time: 0 hr 0 min 38 sec) 
Heartbeat CPU 0 instructions: 20000002 cycles: 5001789 heartbeat IPC: 3.99734 cumulative IPC: 3.99857 (Simulation time: 0 hr 1 min 18 sec) 
Heartbeat CPU 0 instructions: 30000003 cycles: 7501884 heartbeat IPC: 3.99985 cumulative IPC: 3.999 (Simulation time: 0 hr 1 min 59 sec) 
Heartbeat CPU 0 instructions: 40000002 cycles: 10001885 heartbeat IPC: 4 cumulative IPC: 3.99925 (Simulation time: 0 hr 2 min 41 sec) 
Heartbeat CPU 0 instructions: 50000001 cycles: 12501892 heartbeat IPC: 3.99999 cumulative IPC: 3.9994 (Simulation time: 0 hr 3 min 23 sec) 
Warmup finished CPU 0 instructions: 50000001 cycles: 12501893 cumulative IPC: 3.9994 (Simulation time: 0 hr 3 min 23 sec) 

Warmup complete CPU 0 instructions: 50000001 cycles: 12501893 (Simulation time: 0 hr 3 min 23 sec) 

Heartbeat CPU 0 instructions: 60000001 cycles: 27921130 heartbeat IPC: 0.648541 cumulative IPC: 0.648541 (Simulation time: 0 hr 4 min 30 sec) 
Heartbeat CPU 0 instructions: 70000004 cycles: 43383735 heartbeat IPC: 0.646722 cumulative IPC: 0.64763 (Simulation time: 0 hr 5 min 38 sec) 
Heartbeat CPU 0 instructions: 80000003 cycles: 59299929 heartbeat IPC: 0.628291 cumulative IPC: 0.641053 (Simulation time: 0 hr 6 min 47 sec) 
Heartbeat CPU 0 instructions: 90000000 cycles: 74632653 heartbeat IPC: 0.6522 cumulative IPC: 0.643804 (Simulation time: 0 hr 7 min 54 sec) 
Heartbeat CPU 0 instructions: 100000000 cycles: 89775361 heartbeat IPC: 0.660384 cumulative IPC: 0.647053 (Simulation time: 0 hr 9 min 0 sec) 
*** Reached end of trace: /gpfs/projects/bsc18/MN4/bsc18/romol/ChampSim/traces/qualcomm_srv/srv162_ap.champsimtrace.xz
Heartbeat CPU 0 instructions: 110000003 cycles: 104287328 heartbeat IPC: 0.689087 cumulative IPC: 0.653699 (Simulation time: 0 hr 10 min 5 sec) 
Heartbeat CPU 0 instructions: 120000000 cycles: 120069009 heartbeat IPC: 0.633646 cumulative IPC: 0.650757 (Simulation time: 0 hr 11 min 13 sec) 
Heartbeat CPU 0 instructions: 130000001 cycles: 135014996 heartbeat IPC: 0.669076 cumulative IPC: 0.652992 (Simulation time: 0 hr 12 min 21 sec) 
Heartbeat CPU 0 instructions: 140000004 cycles: 149474043 heartbeat IPC: 0.691609 cumulative IPC: 0.657068 (Simulation time: 0 hr 13 min 27 sec) 
Heartbeat CPU 0 instructions: 150000001 cycles: 165303825 heartbeat IPC: 0.631721 cumulative IPC: 0.654442 (Simulation time: 0 hr 14 min 36 sec) 
Simulation finished CPU 0 instructions: 100000000 cycles: 152801933 cumulative IPC: 0.654442 (Simulation time: 0 hr 14 min 36 sec) 

Simulation complete CPU 0 instructions: 100000000 cycles: 152801933 (Simulation time: 0 hr 14 min 36 sec) 


ChampSim completed all CPUs

Saving instructions large page distribution to /home/bsc/bsc018186/scratch/itp_asplos25_AE/dump/srv162_ap.pdst...
Saving data large page distribution to /home/bsc/bsc018186/scratch/itp_asplos25_AE/dump/srv162_ap.pdst...
=== Simulation ===
CPU 0 runs /gpfs/projects/bsc18/MN4/bsc18/romol/ChampSim/traces/qualcomm_srv/srv162_ap.champsimtrace.xz

Region of Interest Statistics

CPU 0 cumulative IPC: 0.654442 instructions: 100000000 cycles: 152801933
CPU 0 Branch Prediction Accuracy: 83.3515% MPKI: 29.8901 Average ROB Occupancy at Mispredict: 12.7453
Branch type MPKI
BRANCH_DIRECT_JUMP: 0.958501
BRANCH_INDIRECT: 15.4862
BRANCH_CONDITIONAL: 9.78296
BRANCH_DIRECT_CALL: 1.8333
BRANCH_INDIRECT_CALL: 0.498451
BRANCH_RETURN: 1.33068

Instructions large pages: 0
Instructions small pages: 10372
Large page distribution for instructions: 0%

Data large pages: 0
Data small pages: 9441
Large page distribution for data: 0%

cpu0_L1I TOTAL       ACCESS:   34553529  HIT:   26611531  MISS:    7941998  iACCESS:   34553529  iHIT:   26611531  iMISS:    7941998  dACCESS:          0  dHIT:          0  dMISS:          0  itACCESS:          0  itHIT:          0  itMISS:          0  dtACCESS:          0  dtHIT:          0  dtMISS:          0
cpu0_L1I LOAD         ACCESS:   10070378  HIT:    7835419  MISS:    2234959  iACCESS:   10070378  iHIT:    7835419  iMISS:    2234959  dACCESS:          0  dHIT:          0  dMISS:          0  itACCESS:          0  itHIT:          0  itMISS:          0  dtACCESS:          0  dtHIT:          0  dtMISS:          0
cpu0_L1I RFO          ACCESS:          0  HIT:          0  MISS:          0  iACCESS:          0  iHIT:          0  iMISS:          0  dACCESS:          0  dHIT:          0  dMISS:          0  itACCESS:          0  itHIT:          0  itMISS:          0  dtACCESS:          0  dtHIT:          0  dtMISS:          0
cpu0_L1I PREFETCH     ACCESS:   24483151  HIT:   18776112  MISS:    5707039  iACCESS:   24483151  iHIT:   18776112  iMISS:    5707039  dACCESS:          0  dHIT:          0  dMISS:          0  itACCESS:          0  itHIT:          0  itMISS:          0  dtACCESS:          0  dtHIT:          0  dtMISS:          0
cpu0_L1I WRITE        ACCESS:          0  HIT:          0  MISS:          0  iACCESS:          0  iHIT:          0  iMISS:          0  dACCESS:          0  dHIT:          0  dMISS:          0  itACCESS:          0  itHIT:          0  itMISS:          0  dtACCESS:          0  dtHIT:          0  dtMISS:          0
cpu0_L1I TRANSLATION  ACCESS:          0  HIT:          0  MISS:          0  iACCESS:          0  iHIT:          0  iMISS:          0  dACCESS:          0  dHIT:          0  dMISS:          0  itACCESS:          0  itHIT:          0  itMISS:          0  dtACCESS:          0  dtHIT:          0  dtMISS:          0
cpu0_L1I PREFETCH  REQUESTED:   26959294  ISSUED:   26959294  CROSSED:          0  USEFUL:    1931605  USELESS:     637456
cpu0_L1I AVERAGE iMISS LATENCY: 13.1145 cycles
cpu0_L1I AVERAGE dMISS LATENCY: 0 cycles
cpu0_L1I AVERAGE itMISS LATENCY: 0 cycles
cpu0_L1I AVERAGE dtMISS LATENCY: 0 cycles
cpu0_L1I PAGE CROSSINGS (TLB HIT):         0 
cpu0_L1I PAGE CROSSINGS (TLB MISS):         0 
cpu0_L1I AVERAGE MISS LATENCY: 13.1145 cycles
cpu0_ITLB TOTAL       ACCESS:   28902307  HIT:   26885557  MISS:    2016750  iACCESS:   28902307  iHIT:   26885557  iMISS:    2016750  dACCESS:          0  dHIT:          0  dMISS:          0  itACCESS:          0  itHIT:          0  itMISS:          0  dtACCESS:          0  dtHIT:          0  dtMISS:          0
cpu0_ITLB LOAD         ACCESS:   28902307  HIT:   26885557  MISS:    2016750  iACCESS:   28902307  iHIT:   26885557  iMISS:    2016750  dACCESS:          0  dHIT:          0  dMISS:          0  itACCESS:          0  itHIT:          0  itMISS:          0  dtACCESS:          0  dtHIT:          0  dtMISS:          0
cpu0_ITLB RFO          ACCESS:          0  HIT:          0  MISS:          0  iACCESS:          0  iHIT:          0  iMISS:          0  dACCESS:          0  dHIT:          0  dMISS:          0  itACCESS:          0  itHIT:          0  itMISS:          0  dtACCESS:          0  dtHIT:          0  dtMISS:          0
cpu0_ITLB PREFETCH     ACCESS:          0  HIT:          0  MISS:          0  iACCESS:          0  iHIT:          0  iMISS:          0  dACCESS:          0  dHIT:          0  dMISS:          0  itACCESS:          0  itHIT:          0  itMISS:          0  dtACCESS:          0  dtHIT:          0  dtMISS:          0
cpu0_ITLB WRITE        ACCESS:          0  HIT:          0  MISS:          0  iACCESS:          0  iHIT:          0  iMISS:          0  dACCESS:          0  dHIT:          0  dMISS:          0  itACCESS:          0  itHIT:          0  itMISS:          0  dtACCESS:          0  dtHIT:          0  dtMISS:          0
cpu0_ITLB TRANSLATION  ACCESS:          0  HIT:          0  MISS:          0  iACCESS:          0  iHIT:          0  iMISS:          0  dACCESS:          0  dHIT:          0  dMISS:          0  itACCESS:          0  itHIT:          0  itMISS:          0  dtACCESS:          0  dtHIT:          0  dtMISS:          0
cpu0_ITLB PREFETCH  REQUESTED:          0  ISSUED:          0  CROSSED:          0  USEFUL:     325781  USELESS:      63318
cpu0_ITLB AVERAGE iMISS LATENCY: 4.91202 cycles
cpu0_ITLB AVERAGE dMISS LATENCY: 0 cycles
cpu0_ITLB AVERAGE itMISS LATENCY: 0 cycles
cpu0_ITLB AVERAGE dtMISS LATENCY: 0 cycles
cpu0_ITLB PAGE CROSSINGS (TLB HIT):         0 
cpu0_ITLB PAGE CROSSINGS (TLB MISS):         0 
cpu0_ITLB AVERAGE MISS LATENCY: 4.91202 cycles
cpu0_DTLB TOTAL       ACCESS:   27689811  HIT:   25832512  MISS:    1857299  iACCESS:          0  iHIT:          0  iMISS:          0  dACCESS:   27689811  dHIT:   25832512  dMISS:    1857299  itACCESS:          0  itHIT:          0  itMISS:          0  dtACCESS:          0  dtHIT:          0  dtMISS:          0
cpu0_DTLB LOAD         ACCESS:   27689811  HIT:   25832512  MISS:    1857299  iACCESS:          0  iHIT:          0  iMISS:          0  dACCESS:   27689811  dHIT:   25832512  dMISS:    1857299  itACCESS:          0  itHIT:          0  itMISS:          0  dtACCESS:          0  dtHIT:          0  dtMISS:          0
cpu0_DTLB RFO          ACCESS:          0  HIT:          0  MISS:          0  iACCESS:          0  iHIT:          0  iMISS:          0  dACCESS:          0  dHIT:          0  dMISS:          0  itACCESS:          0  itHIT:          0  itMISS:          0  dtACCESS:          0  dtHIT:          0  dtMISS:          0
cpu0_DTLB PREFETCH     ACCESS:          0  HIT:          0  MISS:          0  iACCESS:          0  iHIT:          0  iMISS:          0  dACCESS:          0  dHIT:          0  dMISS:          0  itACCESS:          0  itHIT:          0  itMISS:          0  dtACCESS:          0  dtHIT:          0  dtMISS:          0
cpu0_DTLB WRITE        ACCESS:          0  HIT:          0  MISS:          0  iACCESS:          0  iHIT:          0  iMISS:          0  dACCESS:          0  dHIT:          0  dMISS:          0  itACCESS:          0  itHIT:          0  itMISS:          0  dtACCESS:          0  dtHIT:          0  dtMISS:          0
cpu0_DTLB TRANSLATION  ACCESS:          0  HIT:          0  MISS:          0  iACCESS:          0  iHIT:          0  iMISS:          0  dACCESS:          0  dHIT:          0  dMISS:          0  itACCESS:          0  itHIT:          0  itMISS:          0  dtACCESS:          0  dtHIT:          0  dtMISS:          0
cpu0_DTLB PREFETCH  REQUESTED:          0  ISSUED:          0  CROSSED:          0  USEFUL:          0  USELESS:          0
cpu0_DTLB AVERAGE iMISS LATENCY: 0 cycles
cpu0_DTLB AVERAGE dMISS LATENCY: 15.1408 cycles
cpu0_DTLB AVERAGE itMISS LATENCY: 0 cycles
cpu0_DTLB AVERAGE dtMISS LATENCY: 0 cycles
cpu0_DTLB PAGE CROSSINGS (TLB HIT):         0 
cpu0_DTLB PAGE CROSSINGS (TLB MISS):         0 
cpu0_DTLB AVERAGE MISS LATENCY: 15.1408 cycles
cpu0_STLB TOTAL       ACCESS:    1514588  HIT:    1351777  MISS:     162811  iACCESS:     389104  iHIT:     332070  iMISS:      57034  dACCESS:    1125484  dHIT:    1019707  dMISS:     105777  itACCESS:          0  itHIT:          0  itMISS:          0  dtACCESS:          0  dtHIT:          0  dtMISS:          0
cpu0_STLB LOAD         ACCESS:    1514588  HIT:    1351777  MISS:     162811  iACCESS:     389104  iHIT:     332070  iMISS:      57034  dACCESS:    1125484  dHIT:    1019707  dMISS:     105777  itACCESS:          0  itHIT:          0  itMISS:          0  dtACCESS:          0  dtHIT:          0  dtMISS:          0
cpu0_STLB RFO          ACCESS:          0  HIT:          0  MISS:          0  iACCESS:          0  iHIT:          0  iMISS:          0  dACCESS:          0  dHIT:          0  dMISS:          0  itACCESS:          0  itHIT:          0  itMISS:          0  dtACCESS:          0  dtHIT:          0  dtMISS:          0
cpu0_STLB PREFETCH     ACCESS:          0  HIT:          0  MISS:          0  iACCESS:          0  iHIT:          0  iMISS:          0  dACCESS:          0  dHIT:          0  dMISS:          0  itACCESS:          0  itHIT:          0  itMISS:          0  dtACCESS:          0  dtHIT:          0  dtMISS:          0
cpu0_STLB WRITE        ACCESS:          0  HIT:          0  MISS:          0  iACCESS:          0  iHIT:          0  iMISS:          0  dACCESS:          0  dHIT:          0  dMISS:          0  itACCESS:          0  itHIT:          0  itMISS:          0  dtACCESS:          0  dtHIT:          0  dtMISS:          0
cpu0_STLB TRANSLATION  ACCESS:          0  HIT:          0  MISS:          0  iACCESS:          0  iHIT:          0  iMISS:          0  dACCESS:          0  dHIT:          0  dMISS:          0  itACCESS:          0  itHIT:          0  itMISS:          0  dtACCESS:          0  dtHIT:          0  dtMISS:          0
cpu0_STLB PREFETCH  REQUESTED:          0  ISSUED:          0  CROSSED:          0  USEFUL:          0  USELESS:          0
cpu0_STLB AVERAGE iMISS LATENCY: 41.9675 cycles
cpu0_STLB AVERAGE dMISS LATENCY: 117.547 cycles
cpu0_STLB AVERAGE itMISS LATENCY: 0 cycles
cpu0_STLB AVERAGE dtMISS LATENCY: 0 cycles
cpu0_STLB PAGE CROSSINGS (TLB HIT):         0 
cpu0_STLB PAGE CROSSINGS (TLB MISS):         0 
cpu0_STLB AVERAGE MISS LATENCY: 159.515 cycles
cpu0_L1D TOTAL       ACCESS:   41527258  HIT:   37885864  MISS:    3641394  iACCESS:          0  iHIT:          0  iMISS:          0  dACCESS:   41301566  dHIT:   37866173  dMISS:    3435393  itACCESS:      61697  itHIT:       9002  itMISS:      52695  dtACCESS:     163995  dtHIT:      10689  dtMISS:     153306
cpu0_L1D LOAD         ACCESS:   18987192  HIT:   17409686  MISS:    1577506  iACCESS:          0  iHIT:          0  iMISS:          0  dACCESS:   18987192  dHIT:   17409686  dMISS:    1577506  itACCESS:          0  itHIT:          0  itMISS:          0  dtACCESS:          0  dtHIT:          0  dtMISS:          0
cpu0_L1D RFO          ACCESS:          0  HIT:          0  MISS:          0  iACCESS:          0  iHIT:          0  iMISS:          0  dACCESS:          0  dHIT:          0  dMISS:          0  itACCESS:          0  itHIT:          0  itMISS:          0  dtACCESS:          0  dtHIT:          0  dtMISS:          0
cpu0_L1D PREFETCH     ACCESS:   12162423  HIT:   10747824  MISS:    1414599  iACCESS:          0  iHIT:          0  iMISS:          0  dACCESS:   12162423  dHIT:   10747824  dMISS:    1414599  itACCESS:          0  itHIT:          0  itMISS:          0  dtACCESS:          0  dtHIT:          0  dtMISS:          0
cpu0_L1D WRITE        ACCESS:   10151951  HIT:    9708663  MISS:     443288  iACCESS:          0  iHIT:          0  iMISS:          0  dACCESS:   10151951  dHIT:    9708663  dMISS:     443288  itACCESS:          0  itHIT:          0  itMISS:          0  dtACCESS:          0  dtHIT:          0  dtMISS:          0
cpu0_L1D TRANSLATION  ACCESS:     225692  HIT:      19691  MISS:     206001  iACCESS:          0  iHIT:          0  iMISS:          0  dACCESS:          0  dHIT:          0  dMISS:          0  itACCESS:      61697  itHIT:       9002  itMISS:      52695  dtACCESS:     163995  dtHIT:      10689  dtMISS:     153306
cpu0_L1D PREFETCH  REQUESTED:   18987192  ISSUED:   16927436  CROSSED:          0  USEFUL:     309818  USELESS:     710427
cpu0_L1D AVERAGE iMISS LATENCY: 0 cycles
cpu0_L1D AVERAGE dMISS LATENCY: 31.8428 cycles
cpu0_L1D AVERAGE itMISS LATENCY: 1.74051 cycles
cpu0_L1D AVERAGE dtMISS LATENCY: 4.6055 cycles
cpu0_L1D PAGE CROSSINGS (TLB HIT):         0 
cpu0_L1D PAGE CROSSINGS (TLB MISS):         0 
cpu0_L1D AVERAGE MISS LATENCY: 38.1888 cycles
cpu0_L2C TOTAL       ACCESS:    7041945  HIT:    4144071  MISS:    2897874  iACCESS:    3332017  iHIT:    2246306  iMISS:    1085711  dACCESS:    3518015  dHIT:    1869746  dMISS:    1648269  itACCESS:      52695  itHIT:      10000  itMISS:      42695  dtACCESS:     139218  dtHIT:      18019  dtMISS:     121199
cpu0_L2C LOAD         ACCESS:    1751784  HIT:    1072319  MISS:     679465  iACCESS:     803287  iHIT:     568686  iMISS:     234601  dACCESS:     948497  dHIT:     503633  dMISS:     444864  itACCESS:          0  itHIT:          0  itMISS:          0  dtACCESS:          0  dtHIT:          0  dtMISS:          0
cpu0_L2C RFO          ACCESS:     156986  HIT:      71811  MISS:      85175  iACCESS:          0  iHIT:          0  iMISS:          0  dACCESS:     156986  dHIT:      71811  dMISS:      85175  itACCESS:          0  itHIT:          0  itMISS:          0  dtACCESS:          0  dtHIT:          0  dtMISS:          0
cpu0_L2C PREFETCH     ACCESS:    4653127  HIT:    2685631  MISS:    1967496  iACCESS:    2528730  iHIT:    1677620  iMISS:     851110  dACCESS:    2124397  dHIT:    1008011  dMISS:    1116386  itACCESS:          0  itHIT:          0  itMISS:          0  dtACCESS:          0  dtHIT:          0  dtMISS:          0
cpu0_L2C WRITE        ACCESS:     288135  HIT:     286291  MISS:       1844  iACCESS:          0  iHIT:          0  iMISS:          0  dACCESS:     288135  dHIT:     286291  dMISS:       1844  itACCESS:          0  itHIT:          0  itMISS:          0  dtACCESS:          0  dtHIT:          0  dtMISS:          0
cpu0_L2C TRANSLATION  ACCESS:     191913  HIT:      28019  MISS:     163894  iACCESS:          0  iHIT:          0  iMISS:          0  dACCESS:          0  dHIT:          0  dMISS:          0  itACCESS:      52695  itHIT:      10000  itMISS:      42695  dtACCESS:     139218  dtHIT:      18019  dtMISS:     121199
cpu0_L2C PREFETCH  REQUESTED:    1390597  ISSUED:    1390505  CROSSED:          0  USEFUL:     315672  USELESS:     226216
cpu0_L2C AVERAGE iMISS LATENCY: 25.6672 cycles
cpu0_L2C AVERAGE dMISS LATENCY: 47.0778 cycles
cpu0_L2C AVERAGE itMISS LATENCY: 2.00827 cycles
cpu0_L2C AVERAGE dtMISS LATENCY: 5.30916 cycles
cpu0_L2C PAGE CROSSINGS (TLB HIT):         0 
cpu0_L2C PAGE CROSSINGS (TLB MISS):         0 
cpu0_L2C AVERAGE MISS LATENCY: 80.0624 cycles
LLC TOTAL       ACCESS:    2924183  HIT:    1807710  MISS:    1116473  iACCESS:    1030661  iHIT:     664374  iMISS:     366287  dACCESS:    1729628  dHIT:    1080916  dMISS:     648712  itACCESS:      42695  itHIT:      13780  itMISS:      28915  dtACCESS:     121199  dtHIT:      48640  dtMISS:      72559
LLC LOAD         ACCESS:     677344  HIT:     431732  MISS:     245612  iACCESS:     233401  iHIT:     151824  iMISS:      81577  dACCESS:     443943  dHIT:     279908  dMISS:     164035  itACCESS:          0  itHIT:          0  itMISS:          0  dtACCESS:          0  dtHIT:          0  dtMISS:          0
LLC RFO          ACCESS:      85164  HIT:      45112  MISS:      40052  iACCESS:          0  iHIT:          0  iMISS:          0  dACCESS:      85164  dHIT:      45112  dMISS:      40052  itACCESS:          0  itHIT:          0  itMISS:          0  dtACCESS:          0  dtHIT:          0  dtMISS:          0
LLC PREFETCH     ACCESS:    1861579  HIT:    1138744  MISS:     722835  iACCESS:     797260  iHIT:     512550  iMISS:     284710  dACCESS:    1064319  dHIT:     626194  dMISS:     438125  itACCESS:          0  itHIT:          0  itMISS:          0  dtACCESS:          0  dtHIT:          0  dtMISS:          0
LLC WRITE        ACCESS:     136202  HIT:     129702  MISS:       6500  iACCESS:          0  iHIT:          0  iMISS:          0  dACCESS:     136202  dHIT:     129702  dMISS:       6500  itACCESS:          0  itHIT:          0  itMISS:          0  dtACCESS:          0  dtHIT:          0  dtMISS:          0
LLC TRANSLATION  ACCESS:     163894  HIT:      62420  MISS:     101474  iACCESS:          0  iHIT:          0  iMISS:          0  dACCESS:          0  dHIT:          0  dMISS:          0  itACCESS:      42695  itHIT:      13780  itMISS:      28915  dtACCESS:     121199  dtHIT:      48640  dtMISS:      72559
LLC PREFETCH  REQUESTED:          0  ISSUED:          0  CROSSED:          0  USEFUL:          0  USELESS:          0
LLC AVERAGE iMISS LATENCY: 48.6611 cycles
LLC AVERAGE dMISS LATENCY: 94.687 cycles
LLC AVERAGE itMISS LATENCY: 4.4623 cycles
LLC AVERAGE dtMISS LATENCY: 11.6585 cycles
LLC PAGE CROSSINGS (TLB HIT):         0 
LLC PAGE CROSSINGS (TLB MISS):         0 
LLC AVERAGE MISS LATENCY: 159.469 cycles

PageTableWalker TOTAL       ACCESS:      80909  
PageTableWalker AVERAGE LATENCY: 5.18673 cycles
PageTableWalker TOTAL LATENCY: 419653 cycles

DRAM Statistics
Channel 0
 RQ ROW_BUFFER_HIT:     290552
  ROW_BUFFER_MISS:     818819
 AVG DBUS CONGESTED CYCLE:    3.62196
 WQ ROW_BUFFER_HIT:      21917
  ROW_BUFFER_MISS:      21167  FULL:          0

