last_page:0x200000000000000
VMEM_RES_CAP:0x100000
PAGE_SIZE:4096
LOG2_PAGE_SIZE:12
LOG2_PAGE_TABLE_SIZE:9
page_table_levels:5
WARNING: physical memory size is smaller than virtual memory size
FDiP enabled with aggresivity 16

*** ChampSim Multicore Out-of-Order Simulator ***

Warmup Instructions: 50000000
Simulation Instructions: 100000000
Number of CPUs: 1
Small page size: 4096
Large page size: 2097152

CPU 0 Bimodal branch predictor
Basic BTB sets: 1024 ways: 8 indirect buffer size: 4096 RAS size: 64
Instruction page size distrubution: 0
Loading instruction page size distribution from /home/bsc/bsc018186/scratch/itp_asplos25_AE/dump/srv259_ap.pdst
Data page size distrubution: 0
Loading data page size distribution from /home/bsc/bsc018186/scratch/itp_asplos25_AE/dump/srv259_ap.pdst
cpu0_L2C IP-based stride prefetcher
cpu0_L1D next line prefetcher
cpu0_L1I next line prefetcher
Off-chip DRAM Size: 4 GiB Channels: 1 Width: 64-bit Data Rate: 3200 MT/s
Heartbeat CPU 0 instructions: 10000001 cycles: 2500151 heartbeat IPC: 3.99976 cumulative IPC: 3.99976 (Simulation time: 0 hr 0 min 35 sec) 
Heartbeat CPU 0 instructions: 20000003 cycles: 5000193 heartbeat IPC: 3.99994 cumulative IPC: 3.99985 (Simulation time: 0 hr 1 min 12 sec) 
Heartbeat CPU 0 instructions: 30000002 cycles: 7500533 heartbeat IPC: 3.99946 cumulative IPC: 3.99972 (Simulation time: 0 hr 1 min 50 sec) 
Heartbeat CPU 0 instructions: 40000002 cycles: 10000677 heartbeat IPC: 3.99977 cumulative IPC: 3.99973 (Simulation time: 0 hr 2 min 27 sec) 
Heartbeat CPU 0 instructions: 50000002 cycles: 12500758 heartbeat IPC: 3.99988 cumulative IPC: 3.99976 (Simulation time: 0 hr 3 min 5 sec) 
Warmup finished CPU 0 instructions: 50000002 cycles: 12500759 cumulative IPC: 3.99976 (Simulation time: 0 hr 3 min 5 sec) 

Warmup complete CPU 0 instructions: 50000002 cycles: 12500759 (Simulation time: 0 hr 3 min 5 sec) 

Heartbeat CPU 0 instructions: 60000002 cycles: 33370421 heartbeat IPC: 0.479165 cumulative IPC: 0.479165 (Simulation time: 0 hr 4 min 13 sec) 
Heartbeat CPU 0 instructions: 70000000 cycles: 54193982 heartbeat IPC: 0.480226 cumulative IPC: 0.479695 (Simulation time: 0 hr 5 min 21 sec) 
Heartbeat CPU 0 instructions: 80000000 cycles: 75019343 heartbeat IPC: 0.480184 cumulative IPC: 0.479858 (Simulation time: 0 hr 6 min 29 sec) 
Heartbeat CPU 0 instructions: 90000001 cycles: 95267504 heartbeat IPC: 0.493873 cumulative IPC: 0.483286 (Simulation time: 0 hr 7 min 36 sec) 
Heartbeat CPU 0 instructions: 100000004 cycles: 114703973 heartbeat IPC: 0.514497 cumulative IPC: 0.489222 (Simulation time: 0 hr 8 min 43 sec) 
*** Reached end of trace: /gpfs/projects/bsc18/MN4/bsc18/romol/ChampSim/traces/qualcomm_srv/srv259_ap.champsimtrace.xz
Heartbeat CPU 0 instructions: 110000000 cycles: 135480133 heartbeat IPC: 0.481321 cumulative IPC: 0.487887 (Simulation time: 0 hr 9 min 51 sec) 
Heartbeat CPU 0 instructions: 120000000 cycles: 156441937 heartbeat IPC: 0.477059 cumulative IPC: 0.48631 (Simulation time: 0 hr 10 min 59 sec) 
Heartbeat CPU 0 instructions: 130000001 cycles: 177968943 heartbeat IPC: 0.464533 cumulative IPC: 0.483477 (Simulation time: 0 hr 12 min 8 sec) 
Heartbeat CPU 0 instructions: 140000001 cycles: 199225138 heartbeat IPC: 0.470452 cumulative IPC: 0.481994 (Simulation time: 0 hr 13 min 17 sec) 
Heartbeat CPU 0 instructions: 150000002 cycles: 220416983 heartbeat IPC: 0.47188 cumulative IPC: 0.480963 (Simulation time: 0 hr 14 min 26 sec) 
Simulation finished CPU 0 instructions: 100000000 cycles: 207916225 cumulative IPC: 0.480963 (Simulation time: 0 hr 14 min 26 sec) 

Simulation complete CPU 0 instructions: 100000000 cycles: 207916225 (Simulation time: 0 hr 14 min 26 sec) 


ChampSim completed all CPUs

Saving instructions large page distribution to /home/bsc/bsc018186/scratch/itp_asplos25_AE/dump/srv259_ap.pdst...
Saving data large page distribution to /home/bsc/bsc018186/scratch/itp_asplos25_AE/dump/srv259_ap.pdst...
=== Simulation ===
CPU 0 runs /gpfs/projects/bsc18/MN4/bsc18/romol/ChampSim/traces/qualcomm_srv/srv259_ap.champsimtrace.xz

Region of Interest Statistics

CPU 0 cumulative IPC: 0.480963 instructions: 100000000 cycles: 207916225
CPU 0 Branch Prediction Accuracy: 80.0357% MPKI: 36.0161 Average ROB Occupancy at Mispredict: 10.5625
Branch type MPKI
BRANCH_DIRECT_JUMP: 1.37519
BRANCH_INDIRECT: 17.8918
BRANCH_CONDITIONAL: 11.6991
BRANCH_DIRECT_CALL: 2.60437
BRANCH_INDIRECT_CALL: 0.668601
BRANCH_RETURN: 1.77706

Instructions large pages: 0
Instructions small pages: 1161
Large page distribution for instructions: 0%

Data large pages: 0
Data small pages: 4752
Large page distribution for data: 0%

cpu0_L1I TOTAL       ACCESS:   35888158  HIT:   28074937  MISS:    7813221  iACCESS:   35888158  iHIT:   28074937  iMISS:    7813221  dACCESS:          0  dHIT:          0  dMISS:          0  itACCESS:          0  itHIT:          0  itMISS:          0  dtACCESS:          0  dtHIT:          0  dtMISS:          0
cpu0_L1I LOAD         ACCESS:   10478894  HIT:    8346201  MISS:    2132693  iACCESS:   10478894  iHIT:    8346201  iMISS:    2132693  dACCESS:          0  dHIT:          0  dMISS:          0  itACCESS:          0  itHIT:          0  itMISS:          0  dtACCESS:          0  dtHIT:          0  dtMISS:          0
cpu0_L1I RFO          ACCESS:          0  HIT:          0  MISS:          0  iACCESS:          0  iHIT:          0  iMISS:          0  dACCESS:          0  dHIT:          0  dMISS:          0  itACCESS:          0  itHIT:          0  itMISS:          0  dtACCESS:          0  dtHIT:          0  dtMISS:          0
cpu0_L1I PREFETCH     ACCESS:   25409264  HIT:   19728736  MISS:    5680528  iACCESS:   25409264  iHIT:   19728736  iMISS:    5680528  dACCESS:          0  dHIT:          0  dMISS:          0  itACCESS:          0  itHIT:          0  itMISS:          0  dtACCESS:          0  dtHIT:          0  dtMISS:          0
cpu0_L1I WRITE        ACCESS:          0  HIT:          0  MISS:          0  iACCESS:          0  iHIT:          0  iMISS:          0  dACCESS:          0  dHIT:          0  dMISS:          0  itACCESS:          0  itHIT:          0  itMISS:          0  dtACCESS:          0  dtHIT:          0  dtMISS:          0
cpu0_L1I TRANSLATION  ACCESS:          0  HIT:          0  MISS:          0  iACCESS:          0  iHIT:          0  iMISS:          0  dACCESS:          0  dHIT:          0  dMISS:          0  itACCESS:          0  itHIT:          0  itMISS:          0  dtACCESS:          0  dtHIT:          0  dtMISS:          0
cpu0_L1I PREFETCH  REQUESTED:   27954192  ISSUED:   27954142  CROSSED:          0  USEFUL:    1988568  USELESS:     640147
cpu0_L1I AVERAGE iMISS LATENCY: 20.1508 cycles
cpu0_L1I AVERAGE dMISS LATENCY: 0 cycles
cpu0_L1I AVERAGE itMISS LATENCY: 0 cycles
cpu0_L1I AVERAGE dtMISS LATENCY: 0 cycles
cpu0_L1I PAGE CROSSINGS (TLB HIT):         0 
cpu0_L1I PAGE CROSSINGS (TLB MISS):         0 
cpu0_L1I AVERAGE MISS LATENCY: 20.1508 cycles
cpu0_ITLB TOTAL       ACCESS:   30143683  HIT:   28237693  MISS:    1905990  iACCESS:   30143683  iHIT:   28237693  iMISS:    1905990  dACCESS:          0  dHIT:          0  dMISS:          0  itACCESS:          0  itHIT:          0  itMISS:          0  dtACCESS:          0  dtHIT:          0  dtMISS:          0
cpu0_ITLB LOAD         ACCESS:   30143683  HIT:   28237693  MISS:    1905990  iACCESS:   30143683  iHIT:   28237693  iMISS:    1905990  dACCESS:          0  dHIT:          0  dMISS:          0  itACCESS:          0  itHIT:          0  itMISS:          0  dtACCESS:          0  dtHIT:          0  dtMISS:          0
cpu0_ITLB RFO          ACCESS:          0  HIT:          0  MISS:          0  iACCESS:          0  iHIT:          0  iMISS:          0  dACCESS:          0  dHIT:          0  dMISS:          0  itACCESS:          0  itHIT:          0  itMISS:          0  dtACCESS:          0  dtHIT:          0  dtMISS:          0
cpu0_ITLB PREFETCH     ACCESS:          0  HIT:          0  MISS:          0  iACCESS:          0  iHIT:          0  iMISS:          0  dACCESS:          0  dHIT:          0  dMISS:          0  itACCESS:          0  itHIT:          0  itMISS:          0  dtACCESS:          0  dtHIT:          0  dtMISS:          0
cpu0_ITLB WRITE        ACCESS:          0  HIT:          0  MISS:          0  iACCESS:          0  iHIT:          0  iMISS:          0  dACCESS:          0  dHIT:          0  dMISS:          0  itACCESS:          0  itHIT:          0  itMISS:          0  dtACCESS:          0  dtHIT:          0  dtMISS:          0
cpu0_ITLB TRANSLATION  ACCESS:          0  HIT:          0  MISS:          0  iACCESS:          0  iHIT:          0  iMISS:          0  dACCESS:          0  dHIT:          0  dMISS:          0  itACCESS:          0  itHIT:          0  itMISS:          0  dtACCESS:          0  dtHIT:          0  dtMISS:          0
cpu0_ITLB PREFETCH  REQUESTED:          0  ISSUED:          0  CROSSED:          0  USEFUL:     323726  USELESS:      64579
cpu0_ITLB AVERAGE iMISS LATENCY: 8.05076 cycles
cpu0_ITLB AVERAGE dMISS LATENCY: 0 cycles
cpu0_ITLB AVERAGE itMISS LATENCY: 0 cycles
cpu0_ITLB AVERAGE dtMISS LATENCY: 0 cycles
cpu0_ITLB PAGE CROSSINGS (TLB HIT):         0 
cpu0_ITLB PAGE CROSSINGS (TLB MISS):         0 
cpu0_ITLB AVERAGE MISS LATENCY: 8.05076 cycles
cpu0_DTLB TOTAL       ACCESS:   27872503  HIT:   25874462  MISS:    1998041  iACCESS:          0  iHIT:          0  iMISS:          0  dACCESS:   27872503  dHIT:   25874462  dMISS:    1998041  itACCESS:          0  itHIT:          0  itMISS:          0  dtACCESS:          0  dtHIT:          0  dtMISS:          0
cpu0_DTLB LOAD         ACCESS:   27872503  HIT:   25874462  MISS:    1998041  iACCESS:          0  iHIT:          0  iMISS:          0  dACCESS:   27872503  dHIT:   25874462  dMISS:    1998041  itACCESS:          0  itHIT:          0  itMISS:          0  dtACCESS:          0  dtHIT:          0  dtMISS:          0
cpu0_DTLB RFO          ACCESS:          0  HIT:          0  MISS:          0  iACCESS:          0  iHIT:          0  iMISS:          0  dACCESS:          0  dHIT:          0  dMISS:          0  itACCESS:          0  itHIT:          0  itMISS:          0  dtACCESS:          0  dtHIT:          0  dtMISS:          0
cpu0_DTLB PREFETCH     ACCESS:          0  HIT:          0  MISS:          0  iACCESS:          0  iHIT:          0  iMISS:          0  dACCESS:          0  dHIT:          0  dMISS:          0  itACCESS:          0  itHIT:          0  itMISS:          0  dtACCESS:          0  dtHIT:          0  dtMISS:          0
cpu0_DTLB WRITE        ACCESS:          0  HIT:          0  MISS:          0  iACCESS:          0  iHIT:          0  iMISS:          0  dACCESS:          0  dHIT:          0  dMISS:          0  itACCESS:          0  itHIT:          0  itMISS:          0  dtACCESS:          0  dtHIT:          0  dtMISS:          0
cpu0_DTLB TRANSLATION  ACCESS:          0  HIT:          0  MISS:          0  iACCESS:          0  iHIT:          0  iMISS:          0  dACCESS:          0  dHIT:          0  dMISS:          0  itACCESS:          0  itHIT:          0  itMISS:          0  dtACCESS:          0  dtHIT:          0  dtMISS:          0
cpu0_DTLB PREFETCH  REQUESTED:          0  ISSUED:          0  CROSSED:          0  USEFUL:          0  USELESS:          0
cpu0_DTLB AVERAGE iMISS LATENCY: 0 cycles
cpu0_DTLB AVERAGE dMISS LATENCY: 19.6452 cycles
cpu0_DTLB AVERAGE itMISS LATENCY: 0 cycles
cpu0_DTLB AVERAGE dtMISS LATENCY: 0 cycles
cpu0_DTLB PAGE CROSSINGS (TLB HIT):         0 
cpu0_DTLB PAGE CROSSINGS (TLB MISS):         0 
cpu0_DTLB AVERAGE MISS LATENCY: 19.6452 cycles
cpu0_STLB TOTAL       ACCESS:    1602319  HIT:    1369313  MISS:     233006  iACCESS:     388307  iHIT:     297603  iMISS:      90704  dACCESS:    1214012  dHIT:    1071710  dMISS:     142302  itACCESS:          0  itHIT:          0  itMISS:          0  dtACCESS:          0  dtHIT:          0  dtMISS:          0
cpu0_STLB LOAD         ACCESS:    1602319  HIT:    1369313  MISS:     233006  iACCESS:     388307  iHIT:     297603  iMISS:      90704  dACCESS:    1214012  dHIT:    1071710  dMISS:     142302  itACCESS:          0  itHIT:          0  itMISS:          0  dtACCESS:          0  dtHIT:          0  dtMISS:          0
cpu0_STLB RFO          ACCESS:          0  HIT:          0  MISS:          0  iACCESS:          0  iHIT:          0  iMISS:          0  dACCESS:          0  dHIT:          0  dMISS:          0  itACCESS:          0  itHIT:          0  itMISS:          0  dtACCESS:          0  dtHIT:          0  dtMISS:          0
cpu0_STLB PREFETCH     ACCESS:          0  HIT:          0  MISS:          0  iACCESS:          0  iHIT:          0  iMISS:          0  dACCESS:          0  dHIT:          0  dMISS:          0  itACCESS:          0  itHIT:          0  itMISS:          0  dtACCESS:          0  dtHIT:          0  dtMISS:          0
cpu0_STLB WRITE        ACCESS:          0  HIT:          0  MISS:          0  iACCESS:          0  iHIT:          0  iMISS:          0  dACCESS:          0  dHIT:          0  dMISS:          0  itACCESS:          0  itHIT:          0  itMISS:          0  dtACCESS:          0  dtHIT:          0  dtMISS:          0
cpu0_STLB TRANSLATION  ACCESS:          0  HIT:          0  MISS:          0  iACCESS:          0  iHIT:          0  iMISS:          0  dACCESS:          0  dHIT:          0  dMISS:          0  itACCESS:          0  itHIT:          0  itMISS:          0  dtACCESS:          0  dtHIT:          0  dtMISS:          0
cpu0_STLB PREFETCH  REQUESTED:          0  ISSUED:          0  CROSSED:          0  USEFUL:          0  USELESS:          0
cpu0_STLB AVERAGE iMISS LATENCY: 52.5433 cycles
cpu0_STLB AVERAGE dMISS LATENCY: 126.776 cycles
cpu0_STLB AVERAGE itMISS LATENCY: 0 cycles
cpu0_STLB AVERAGE dtMISS LATENCY: 0 cycles
cpu0_STLB PAGE CROSSINGS (TLB HIT):         0 
cpu0_STLB PAGE CROSSINGS (TLB MISS):         0 
cpu0_STLB AVERAGE MISS LATENCY: 179.32 cycles
cpu0_L1D TOTAL       ACCESS:   42721448  HIT:   38487690  MISS:    4233758  iACCESS:          0  iHIT:          0  iMISS:          0  dACCESS:   42426518  dHIT:   38463137  dMISS:    3963381  itACCESS:      96704  itHIT:      13418  itMISS:      83286  dtACCESS:     198226  dtHIT:      11135  dtMISS:     187091
cpu0_L1D LOAD         ACCESS:   19423545  HIT:   17613910  MISS:    1809635  iACCESS:          0  iHIT:          0  iMISS:          0  dACCESS:   19423545  dHIT:   17613910  dMISS:    1809635  itACCESS:          0  itHIT:          0  itMISS:          0  dtACCESS:          0  dtHIT:          0  dtMISS:          0
cpu0_L1D RFO          ACCESS:          0  HIT:          0  MISS:          0  iACCESS:          0  iHIT:          0  iMISS:          0  dACCESS:          0  dHIT:          0  dMISS:          0  itACCESS:          0  itHIT:          0  itMISS:          0  dtACCESS:          0  dtHIT:          0  dtMISS:          0
cpu0_L1D PREFETCH     ACCESS:   12897528  HIT:   11201063  MISS:    1696465  iACCESS:          0  iHIT:          0  iMISS:          0  dACCESS:   12897528  dHIT:   11201063  dMISS:    1696465  itACCESS:          0  itHIT:          0  itMISS:          0  dtACCESS:          0  dtHIT:          0  dtMISS:          0
cpu0_L1D WRITE        ACCESS:   10105445  HIT:    9648164  MISS:     457281  iACCESS:          0  iHIT:          0  iMISS:          0  dACCESS:   10105445  dHIT:    9648164  dMISS:     457281  itACCESS:          0  itHIT:          0  itMISS:          0  dtACCESS:          0  dtHIT:          0  dtMISS:          0
cpu0_L1D TRANSLATION  ACCESS:     294930  HIT:      24553  MISS:     270377  iACCESS:          0  iHIT:          0  iMISS:          0  dACCESS:          0  dHIT:          0  dMISS:          0  itACCESS:      96704  itHIT:      13418  itMISS:      83286  dtACCESS:     198226  dtHIT:      11135  dtMISS:     187091
cpu0_L1D PREFETCH  REQUESTED:   19423545  ISSUED:   17299849  CROSSED:          0  USEFUL:     304544  USELESS:     698603
cpu0_L1D AVERAGE iMISS LATENCY: 0 cycles
cpu0_L1D AVERAGE dMISS LATENCY: 39.7372 cycles
cpu0_L1D AVERAGE itMISS LATENCY: 2.70529 cycles
cpu0_L1D AVERAGE dtMISS LATENCY: 6.50801 cycles
cpu0_L1D PAGE CROSSINGS (TLB HIT):         0 
cpu0_L1D PAGE CROSSINGS (TLB MISS):         0 
cpu0_L1D AVERAGE MISS LATENCY: 48.9505 cycles
cpu0_L2C TOTAL       ACCESS:    7246480  HIT:    3607321  MISS:    3639159  iACCESS:    3343488  iHIT:    1976941  iMISS:    1366547  dACCESS:    3641805  dHIT:    1594166  dMISS:    2047639  itACCESS:      83286  itHIT:      15192  itMISS:      68094  dtACCESS:     177901  dtHIT:      21022  dtMISS:     156879
cpu0_L2C LOAD         ACCESS:    1695886  HIT:     881460  MISS:     814426  iACCESS:     753733  iHIT:     470593  iMISS:     283140  dACCESS:     942153  dHIT:     410867  dMISS:     531286  itACCESS:          0  itHIT:          0  itMISS:          0  dtACCESS:          0  dtHIT:          0  dtMISS:          0
cpu0_L2C RFO          ACCESS:     159053  HIT:      62090  MISS:      96963  iACCESS:          0  iHIT:          0  iMISS:          0  dACCESS:     159053  dHIT:      62090  dMISS:      96963  itACCESS:          0  itHIT:          0  itMISS:          0  dtACCESS:          0  dtHIT:          0  dtMISS:          0
cpu0_L2C PREFETCH     ACCESS:    4866480  HIT:    2364870  MISS:    2501610  iACCESS:    2589755  iHIT:    1506348  iMISS:    1083407  dACCESS:    2276725  dHIT:     858522  dMISS:    1418203  itACCESS:          0  itHIT:          0  itMISS:          0  dtACCESS:          0  dtHIT:          0  dtMISS:          0
cpu0_L2C WRITE        ACCESS:     263874  HIT:     262687  MISS:       1187  iACCESS:          0  iHIT:          0  iMISS:          0  dACCESS:     263874  dHIT:     262687  dMISS:       1187  itACCESS:          0  itHIT:          0  itMISS:          0  dtACCESS:          0  dtHIT:          0  dtMISS:          0
cpu0_L2C TRANSLATION  ACCESS:     261187  HIT:      36214  MISS:     224973  iACCESS:          0  iHIT:          0  iMISS:          0  dACCESS:          0  dHIT:          0  dMISS:          0  itACCESS:      83286  itHIT:      15192  itMISS:      68094  dtACCESS:     177901  dtHIT:      21022  dtMISS:     156879
cpu0_L2C PREFETCH  REQUESTED:    1542367  ISSUED:    1542358  CROSSED:          0  USEFUL:     385795  USELESS:     306167
cpu0_L2C AVERAGE iMISS LATENCY: 35.2573 cycles
cpu0_L2C AVERAGE dMISS LATENCY: 60.336 cycles
cpu0_L2C AVERAGE itMISS LATENCY: 2.92196 cycles
cpu0_L2C AVERAGE dtMISS LATENCY: 7.08546 cycles
cpu0_L2C PAGE CROSSINGS (TLB HIT):         0 
cpu0_L2C PAGE CROSSINGS (TLB MISS):         0 
cpu0_L2C AVERAGE MISS LATENCY: 105.601 cycles
LLC TOTAL       ACCESS:    3583315  HIT:    1597126  MISS:    1986189  iACCESS:    1283455  iHIT:     587070  iMISS:     696385  dACCESS:    2074887  dHIT:     958675  dMISS:    1116212  itACCESS:      68094  itHIT:      15134  itMISS:      52960  dtACCESS:     156879  dtHIT:      36247  dtMISS:     120632
LLC LOAD         ACCESS:     808256  HIT:     380905  MISS:     427351  iACCESS:     282111  iHIT:     132847  iMISS:     149264  dACCESS:     526145  dHIT:     248058  dMISS:     278087  itACCESS:          0  itHIT:          0  itMISS:          0  dtACCESS:          0  dtHIT:          0  dtMISS:          0
LLC RFO          ACCESS:      96959  HIT:      39656  MISS:      57303  iACCESS:          0  iHIT:          0  iMISS:          0  dACCESS:      96959  dHIT:      39656  dMISS:      57303  itACCESS:          0  itHIT:          0  itMISS:          0  dtACCESS:          0  dtHIT:          0  dtMISS:          0
LLC PREFETCH     ACCESS:    2310786  HIT:     990266  MISS:    1320520  iACCESS:    1001344  iHIT:     454223  iMISS:     547121  dACCESS:    1309442  dHIT:     536043  dMISS:     773399  itACCESS:          0  itHIT:          0  itMISS:          0  dtACCESS:          0  dtHIT:          0  dtMISS:          0
LLC WRITE        ACCESS:     142341  HIT:     134918  MISS:       7423  iACCESS:          0  iHIT:          0  iMISS:          0  dACCESS:     142341  dHIT:     134918  dMISS:       7423  itACCESS:          0  itHIT:          0  itMISS:          0  dtACCESS:          0  dtHIT:          0  dtMISS:          0
LLC TRANSLATION  ACCESS:     224973  HIT:      51381  MISS:     173592  iACCESS:          0  iHIT:          0  iMISS:          0  dACCESS:          0  dHIT:          0  dMISS:          0  itACCESS:      68094  itHIT:      15134  itMISS:      52960  dtACCESS:     156879  dtHIT:      36247  dtMISS:     120632
LLC PREFETCH  REQUESTED:          0  ISSUED:          0  CROSSED:          0  USEFUL:          0  USELESS:          0
LLC AVERAGE iMISS LATENCY: 51.9682 cycles
LLC AVERAGE dMISS LATENCY: 92.4977 cycles
LLC AVERAGE itMISS LATENCY: 4.67798 cycles
LLC AVERAGE dtMISS LATENCY: 11.4283 cycles
LLC PAGE CROSSINGS (TLB HIT):         0 
LLC PAGE CROSSINGS (TLB MISS):         0 
LLC AVERAGE MISS LATENCY: 160.572 cycles

PageTableWalker TOTAL       ACCESS:     122383  
PageTableWalker AVERAGE LATENCY: 4.97382 cycles
PageTableWalker TOTAL LATENCY: 608711 cycles

DRAM Statistics
Channel 0
 RQ ROW_BUFFER_HIT:     547860
  ROW_BUFFER_MISS:    1413139
 AVG DBUS CONGESTED CYCLE:    3.64017
 WQ ROW_BUFFER_HIT:      36895
  ROW_BUFFER_MISS:      24924  FULL:          0

