last_page:0x200000000000000
VMEM_RES_CAP:0x100000
PAGE_SIZE:4096
LOG2_PAGE_SIZE:12
LOG2_PAGE_TABLE_SIZE:9
page_table_levels:5
WARNING: physical memory size is smaller than virtual memory size
FDiP enabled with aggresivity 16

*** ChampSim Multicore Out-of-Order Simulator ***

Warmup Instructions: 50000000
Simulation Instructions: 100000000
Number of CPUs: 1
Small page size: 4096
Large page size: 2097152

CPU 0 Bimodal branch predictor
Basic BTB sets: 1024 ways: 8 indirect buffer size: 4096 RAS size: 64
Instruction page size distrubution: 0
Loading instruction page size distribution from /home/bsc/bsc018186/scratch/itp_asplos25_AE/dump/srv207_ap.pdst
Data page size distrubution: 0
Loading data page size distribution from /home/bsc/bsc018186/scratch/itp_asplos25_AE/dump/srv207_ap.pdst
cpu0_L2C IP-based stride prefetcher
cpu0_L1D next line prefetcher
cpu0_L1I next line prefetcher
Off-chip DRAM Size: 4 GiB Channels: 1 Width: 64-bit Data Rate: 3200 MT/s
Heartbeat CPU 0 instructions: 10000001 cycles: 2501388 heartbeat IPC: 3.99779 cumulative IPC: 3.99779 (Simulation time: 0 hr 0 min 34 sec) 
Heartbeat CPU 0 instructions: 20000002 cycles: 5001834 heartbeat IPC: 3.99929 cumulative IPC: 3.99854 (Simulation time: 0 hr 1 min 10 sec) 
Heartbeat CPU 0 instructions: 30000000 cycles: 7502082 heartbeat IPC: 3.99961 cumulative IPC: 3.99889 (Simulation time: 0 hr 1 min 48 sec) 
Heartbeat CPU 0 instructions: 40000002 cycles: 10002262 heartbeat IPC: 3.99972 cumulative IPC: 3.9991 (Simulation time: 0 hr 2 min 25 sec) 
Heartbeat CPU 0 instructions: 50000001 cycles: 12502375 heartbeat IPC: 3.99982 cumulative IPC: 3.99925 (Simulation time: 0 hr 3 min 9 sec) 
Warmup finished CPU 0 instructions: 50000001 cycles: 12502376 cumulative IPC: 3.99924 (Simulation time: 0 hr 3 min 9 sec) 

Warmup complete CPU 0 instructions: 50000001 cycles: 12502376 (Simulation time: 0 hr 3 min 9 sec) 

Heartbeat CPU 0 instructions: 60000002 cycles: 34798802 heartbeat IPC: 0.448503 cumulative IPC: 0.448503 (Simulation time: 0 hr 4 min 22 sec) 
Heartbeat CPU 0 instructions: 70000001 cycles: 58163092 heartbeat IPC: 0.428004 cumulative IPC: 0.438014 (Simulation time: 0 hr 5 min 33 sec) 
Heartbeat CPU 0 instructions: 80000000 cycles: 80763902 heartbeat IPC: 0.442462 cumulative IPC: 0.439487 (Simulation time: 0 hr 6 min 43 sec) 
Heartbeat CPU 0 instructions: 90000002 cycles: 103813356 heartbeat IPC: 0.43385 cumulative IPC: 0.438064 (Simulation time: 0 hr 7 min 54 sec) 
Heartbeat CPU 0 instructions: 100000002 cycles: 126454398 heartbeat IPC: 0.441676 cumulative IPC: 0.438782 (Simulation time: 0 hr 9 min 4 sec) 
*** Reached end of trace: /gpfs/projects/bsc18/MN4/bsc18/romol/ChampSim/traces/qualcomm_srv/srv207_ap.champsimtrace.xz
Heartbeat CPU 0 instructions: 110000002 cycles: 150135883 heartbeat IPC: 0.422271 cumulative IPC: 0.435941 (Simulation time: 0 hr 10 min 16 sec) 
Heartbeat CPU 0 instructions: 120000004 cycles: 171844624 heartbeat IPC: 0.460645 cumulative IPC: 0.439306 (Simulation time: 0 hr 11 min 25 sec) 
Heartbeat CPU 0 instructions: 130000001 cycles: 194573958 heartbeat IPC: 0.43996 cumulative IPC: 0.439388 (Simulation time: 0 hr 12 min 35 sec) 
Heartbeat CPU 0 instructions: 140000001 cycles: 217083478 heartbeat IPC: 0.444257 cumulative IPC: 0.439924 (Simulation time: 0 hr 13 min 46 sec) 
Heartbeat CPU 0 instructions: 150000002 cycles: 240988628 heartbeat IPC: 0.41832 cumulative IPC: 0.437664 (Simulation time: 0 hr 14 min 58 sec) 
Simulation finished CPU 0 instructions: 100000001 cycles: 228486253 cumulative IPC: 0.437664 (Simulation time: 0 hr 14 min 58 sec) 

Simulation complete CPU 0 instructions: 100000001 cycles: 228486253 (Simulation time: 0 hr 14 min 58 sec) 


ChampSim completed all CPUs

Saving instructions large page distribution to /home/bsc/bsc018186/scratch/itp_asplos25_AE/dump/srv207_ap.pdst...
Saving data large page distribution to /home/bsc/bsc018186/scratch/itp_asplos25_AE/dump/srv207_ap.pdst...
=== Simulation ===
CPU 0 runs /gpfs/projects/bsc18/MN4/bsc18/romol/ChampSim/traces/qualcomm_srv/srv207_ap.champsimtrace.xz

Region of Interest Statistics

CPU 0 cumulative IPC: 0.437664 instructions: 100000001 cycles: 228486253
CPU 0 Branch Prediction Accuracy: 79.9419% MPKI: 36.2706 Average ROB Occupancy at Mispredict: 11.6085
Branch type MPKI
BRANCH_DIRECT_JUMP: 1.35835
BRANCH_INDIRECT: 18.5563
BRANCH_CONDITIONAL: 11.2955
BRANCH_DIRECT_CALL: 2.47044
BRANCH_INDIRECT_CALL: 0.68596
BRANCH_RETURN: 1.90409

Instructions large pages: 0
Instructions small pages: 1279
Large page distribution for instructions: 0%

Data large pages: 0
Data small pages: 6352
Large page distribution for data: 0%

cpu0_L1I TOTAL       ACCESS:   34868664  HIT:   27003517  MISS:    7865147  iACCESS:   34868664  iHIT:   27003517  iMISS:    7865147  dACCESS:          0  dHIT:          0  dMISS:          0  itACCESS:          0  itHIT:          0  itMISS:          0  dtACCESS:          0  dtHIT:          0  dtMISS:          0
cpu0_L1I LOAD         ACCESS:    9768805  HIT:    7585082  MISS:    2183723  iACCESS:    9768805  iHIT:    7585082  iMISS:    2183723  dACCESS:          0  dHIT:          0  dMISS:          0  itACCESS:          0  itHIT:          0  itMISS:          0  dtACCESS:          0  dtHIT:          0  dtMISS:          0
cpu0_L1I RFO          ACCESS:          0  HIT:          0  MISS:          0  iACCESS:          0  iHIT:          0  iMISS:          0  dACCESS:          0  dHIT:          0  dMISS:          0  itACCESS:          0  itHIT:          0  itMISS:          0  dtACCESS:          0  dtHIT:          0  dtMISS:          0
cpu0_L1I PREFETCH     ACCESS:   25099859  HIT:   19418435  MISS:    5681424  iACCESS:   25099859  iHIT:   19418435  iMISS:    5681424  dACCESS:          0  dHIT:          0  dMISS:          0  itACCESS:          0  itHIT:          0  itMISS:          0  dtACCESS:          0  dtHIT:          0  dtMISS:          0
cpu0_L1I WRITE        ACCESS:          0  HIT:          0  MISS:          0  iACCESS:          0  iHIT:          0  iMISS:          0  dACCESS:          0  dHIT:          0  dMISS:          0  itACCESS:          0  itHIT:          0  itMISS:          0  dtACCESS:          0  dtHIT:          0  dtMISS:          0
cpu0_L1I TRANSLATION  ACCESS:          0  HIT:          0  MISS:          0  iACCESS:          0  iHIT:          0  iMISS:          0  dACCESS:          0  dHIT:          0  dMISS:          0  itACCESS:          0  itHIT:          0  itMISS:          0  dtACCESS:          0  dtHIT:          0  dtMISS:          0
cpu0_L1I PREFETCH  REQUESTED:   27393141  ISSUED:   27393141  CROSSED:          0  USEFUL:    1938112  USELESS:     698288
cpu0_L1I AVERAGE iMISS LATENCY: 21.8408 cycles
cpu0_L1I AVERAGE dMISS LATENCY: 0 cycles
cpu0_L1I AVERAGE itMISS LATENCY: 0 cycles
cpu0_L1I AVERAGE dtMISS LATENCY: 0 cycles
cpu0_L1I PAGE CROSSINGS (TLB HIT):         0 
cpu0_L1I PAGE CROSSINGS (TLB MISS):         0 
cpu0_L1I AVERAGE MISS LATENCY: 21.8408 cycles
cpu0_ITLB TOTAL       ACCESS:   29540103  HIT:   27594991  MISS:    1945112  iACCESS:   29540103  iHIT:   27594991  iMISS:    1945112  dACCESS:          0  dHIT:          0  dMISS:          0  itACCESS:          0  itHIT:          0  itMISS:          0  dtACCESS:          0  dtHIT:          0  dtMISS:          0
cpu0_ITLB LOAD         ACCESS:   29540103  HIT:   27594991  MISS:    1945112  iACCESS:   29540103  iHIT:   27594991  iMISS:    1945112  dACCESS:          0  dHIT:          0  dMISS:          0  itACCESS:          0  itHIT:          0  itMISS:          0  dtACCESS:          0  dtHIT:          0  dtMISS:          0
cpu0_ITLB RFO          ACCESS:          0  HIT:          0  MISS:          0  iACCESS:          0  iHIT:          0  iMISS:          0  dACCESS:          0  dHIT:          0  dMISS:          0  itACCESS:          0  itHIT:          0  itMISS:          0  dtACCESS:          0  dtHIT:          0  dtMISS:          0
cpu0_ITLB PREFETCH     ACCESS:          0  HIT:          0  MISS:          0  iACCESS:          0  iHIT:          0  iMISS:          0  dACCESS:          0  dHIT:          0  dMISS:          0  itACCESS:          0  itHIT:          0  itMISS:          0  dtACCESS:          0  dtHIT:          0  dtMISS:          0
cpu0_ITLB WRITE        ACCESS:          0  HIT:          0  MISS:          0  iACCESS:          0  iHIT:          0  iMISS:          0  dACCESS:          0  dHIT:          0  dMISS:          0  itACCESS:          0  itHIT:          0  itMISS:          0  dtACCESS:          0  dtHIT:          0  dtMISS:          0
cpu0_ITLB TRANSLATION  ACCESS:          0  HIT:          0  MISS:          0  iACCESS:          0  iHIT:          0  iMISS:          0  dACCESS:          0  dHIT:          0  dMISS:          0  itACCESS:          0  itHIT:          0  itMISS:          0  dtACCESS:          0  dtHIT:          0  dtMISS:          0
cpu0_ITLB PREFETCH  REQUESTED:          0  ISSUED:          0  CROSSED:          0  USEFUL:     330177  USELESS:      70497
cpu0_ITLB AVERAGE iMISS LATENCY: 8.77044 cycles
cpu0_ITLB AVERAGE dMISS LATENCY: 0 cycles
cpu0_ITLB AVERAGE itMISS LATENCY: 0 cycles
cpu0_ITLB AVERAGE dtMISS LATENCY: 0 cycles
cpu0_ITLB PAGE CROSSINGS (TLB HIT):         0 
cpu0_ITLB PAGE CROSSINGS (TLB MISS):         0 
cpu0_ITLB AVERAGE MISS LATENCY: 8.77044 cycles
cpu0_DTLB TOTAL       ACCESS:   28754989  HIT:   26804406  MISS:    1950583  iACCESS:          0  iHIT:          0  iMISS:          0  dACCESS:   28754989  dHIT:   26804406  dMISS:    1950583  itACCESS:          0  itHIT:          0  itMISS:          0  dtACCESS:          0  dtHIT:          0  dtMISS:          0
cpu0_DTLB LOAD         ACCESS:   28754989  HIT:   26804406  MISS:    1950583  iACCESS:          0  iHIT:          0  iMISS:          0  dACCESS:   28754989  dHIT:   26804406  dMISS:    1950583  itACCESS:          0  itHIT:          0  itMISS:          0  dtACCESS:          0  dtHIT:          0  dtMISS:          0
cpu0_DTLB RFO          ACCESS:          0  HIT:          0  MISS:          0  iACCESS:          0  iHIT:          0  iMISS:          0  dACCESS:          0  dHIT:          0  dMISS:          0  itACCESS:          0  itHIT:          0  itMISS:          0  dtACCESS:          0  dtHIT:          0  dtMISS:          0
cpu0_DTLB PREFETCH     ACCESS:          0  HIT:          0  MISS:          0  iACCESS:          0  iHIT:          0  iMISS:          0  dACCESS:          0  dHIT:          0  dMISS:          0  itACCESS:          0  itHIT:          0  itMISS:          0  dtACCESS:          0  dtHIT:          0  dtMISS:          0
cpu0_DTLB WRITE        ACCESS:          0  HIT:          0  MISS:          0  iACCESS:          0  iHIT:          0  iMISS:          0  dACCESS:          0  dHIT:          0  dMISS:          0  itACCESS:          0  itHIT:          0  itMISS:          0  dtACCESS:          0  dtHIT:          0  dtMISS:          0
cpu0_DTLB TRANSLATION  ACCESS:          0  HIT:          0  MISS:          0  iACCESS:          0  iHIT:          0  iMISS:          0  dACCESS:          0  dHIT:          0  dMISS:          0  itACCESS:          0  itHIT:          0  itMISS:          0  dtACCESS:          0  dtHIT:          0  dtMISS:          0
cpu0_DTLB PREFETCH  REQUESTED:          0  ISSUED:          0  CROSSED:          0  USEFUL:          0  USELESS:          0
cpu0_DTLB AVERAGE iMISS LATENCY: 0 cycles
cpu0_DTLB AVERAGE dMISS LATENCY: 23.3527 cycles
cpu0_DTLB AVERAGE itMISS LATENCY: 0 cycles
cpu0_DTLB AVERAGE dtMISS LATENCY: 0 cycles
cpu0_DTLB PAGE CROSSINGS (TLB HIT):         0 
cpu0_DTLB PAGE CROSSINGS (TLB MISS):         0 
cpu0_DTLB AVERAGE MISS LATENCY: 23.3527 cycles
cpu0_STLB TOTAL       ACCESS:    1571344  HIT:    1307132  MISS:     264212  iACCESS:     400674  iHIT:     305513  iMISS:      95161  dACCESS:    1170670  dHIT:    1001619  dMISS:     169051  itACCESS:          0  itHIT:          0  itMISS:          0  dtACCESS:          0  dtHIT:          0  dtMISS:          0
cpu0_STLB LOAD         ACCESS:    1571344  HIT:    1307132  MISS:     264212  iACCESS:     400674  iHIT:     305513  iMISS:      95161  dACCESS:    1170670  dHIT:    1001619  dMISS:     169051  itACCESS:          0  itHIT:          0  itMISS:          0  dtACCESS:          0  dtHIT:          0  dtMISS:          0
cpu0_STLB RFO          ACCESS:          0  HIT:          0  MISS:          0  iACCESS:          0  iHIT:          0  iMISS:          0  dACCESS:          0  dHIT:          0  dMISS:          0  itACCESS:          0  itHIT:          0  itMISS:          0  dtACCESS:          0  dtHIT:          0  dtMISS:          0
cpu0_STLB PREFETCH     ACCESS:          0  HIT:          0  MISS:          0  iACCESS:          0  iHIT:          0  iMISS:          0  dACCESS:          0  dHIT:          0  dMISS:          0  itACCESS:          0  itHIT:          0  itMISS:          0  dtACCESS:          0  dtHIT:          0  dtMISS:          0
cpu0_STLB WRITE        ACCESS:          0  HIT:          0  MISS:          0  iACCESS:          0  iHIT:          0  iMISS:          0  dACCESS:          0  dHIT:          0  dMISS:          0  itACCESS:          0  itHIT:          0  itMISS:          0  dtACCESS:          0  dtHIT:          0  dtMISS:          0
cpu0_STLB TRANSLATION  ACCESS:          0  HIT:          0  MISS:          0  iACCESS:          0  iHIT:          0  iMISS:          0  dACCESS:          0  dHIT:          0  dMISS:          0  itACCESS:          0  itHIT:          0  itMISS:          0  dtACCESS:          0  dtHIT:          0  dtMISS:          0
cpu0_STLB PREFETCH  REQUESTED:          0  ISSUED:          0  CROSSED:          0  USEFUL:          0  USELESS:          0
cpu0_STLB AVERAGE iMISS LATENCY: 52.4448 cycles
cpu0_STLB AVERAGE dMISS LATENCY: 136.848 cycles
cpu0_STLB AVERAGE itMISS LATENCY: 0 cycles
cpu0_STLB AVERAGE dtMISS LATENCY: 0 cycles
cpu0_STLB PAGE CROSSINGS (TLB HIT):         0 
cpu0_STLB PAGE CROSSINGS (TLB MISS):         0 
cpu0_STLB AVERAGE MISS LATENCY: 189.293 cycles
cpu0_L1D TOTAL       ACCESS:   44369436  HIT:   39373995  MISS:    4995441  iACCESS:          0  iHIT:          0  iMISS:          0  dACCESS:   44029791  dHIT:   39347220  dMISS:    4682571  itACCESS:     102162  itHIT:      13017  itMISS:      89145  dtACCESS:     237483  dtHIT:      13758  dtMISS:     223725
cpu0_L1D LOAD         ACCESS:   20377538  HIT:   18183544  MISS:    2193994  iACCESS:          0  iHIT:          0  iMISS:          0  dACCESS:   20377538  dHIT:   18183544  dMISS:    2193994  itACCESS:          0  itHIT:          0  itMISS:          0  dtACCESS:          0  dtHIT:          0  dtMISS:          0
cpu0_L1D RFO          ACCESS:          0  HIT:          0  MISS:          0  iACCESS:          0  iHIT:          0  iMISS:          0  dACCESS:          0  dHIT:          0  dMISS:          0  itACCESS:          0  itHIT:          0  itMISS:          0  dtACCESS:          0  dtHIT:          0  dtMISS:          0
cpu0_L1D PREFETCH     ACCESS:   13569317  HIT:   11552732  MISS:    2016585  iACCESS:          0  iHIT:          0  iMISS:          0  dACCESS:   13569317  dHIT:   11552732  dMISS:    2016585  itACCESS:          0  itHIT:          0  itMISS:          0  dtACCESS:          0  dtHIT:          0  dtMISS:          0
cpu0_L1D WRITE        ACCESS:   10082936  HIT:    9610944  MISS:     471992  iACCESS:          0  iHIT:          0  iMISS:          0  dACCESS:   10082936  dHIT:    9610944  dMISS:     471992  itACCESS:          0  itHIT:          0  itMISS:          0  dtACCESS:          0  dtHIT:          0  dtMISS:          0
cpu0_L1D TRANSLATION  ACCESS:     339645  HIT:      26775  MISS:     312870  iACCESS:          0  iHIT:          0  iMISS:          0  dACCESS:          0  dHIT:          0  dMISS:          0  itACCESS:     102162  itHIT:      13017  itMISS:      89145  dtACCESS:     237483  dtHIT:      13758  dtMISS:     223725
cpu0_L1D PREFETCH  REQUESTED:   20377538  ISSUED:   18112747  CROSSED:          0  USEFUL:     343295  USELESS:     774079
cpu0_L1D AVERAGE iMISS LATENCY: 0 cycles
cpu0_L1D AVERAGE dMISS LATENCY: 41.599 cycles
cpu0_L1D AVERAGE itMISS LATENCY: 2.60715 cycles
cpu0_L1D AVERAGE dtMISS LATENCY: 6.78221 cycles
cpu0_L1D PAGE CROSSINGS (TLB HIT):         0 
cpu0_L1D PAGE CROSSINGS (TLB MISS):         0 
cpu0_L1D AVERAGE MISS LATENCY: 50.9884 cycles
cpu0_L2C TOTAL       ACCESS:    7526144  HIT:    3754915  MISS:    3771229  iACCESS:    3388268  iHIT:    2033806  iMISS:    1354462  dACCESS:    3840375  dHIT:    1679252  dMISS:    2161123  itACCESS:      89145  itHIT:      16619  itMISS:      72526  dtACCESS:     208356  dtHIT:      25238  dtMISS:     183118
cpu0_L2C LOAD         ACCESS:    1857247  HIT:     949661  MISS:     907586  iACCESS:     782825  iHIT:     501428  iMISS:     281397  dACCESS:    1074422  dHIT:     448233  dMISS:     626189  itACCESS:          0  itHIT:          0  itMISS:          0  dtACCESS:          0  dtHIT:          0  dtMISS:          0
cpu0_L2C RFO          ACCESS:     171749  HIT:      69489  MISS:     102260  iACCESS:          0  iHIT:          0  iMISS:          0  dACCESS:     171749  dHIT:      69489  dMISS:     102260  itACCESS:          0  itHIT:          0  itMISS:          0  dtACCESS:          0  dtHIT:          0  dtMISS:          0
cpu0_L2C PREFETCH     ACCESS:    4909158  HIT:    2404999  MISS:    2504159  iACCESS:    2605443  iHIT:    1532378  iMISS:    1073065  dACCESS:    2303715  dHIT:     872621  dMISS:    1431094  itACCESS:          0  itHIT:          0  itMISS:          0  dtACCESS:          0  dtHIT:          0  dtMISS:          0
cpu0_L2C WRITE        ACCESS:     290489  HIT:     288909  MISS:       1580  iACCESS:          0  iHIT:          0  iMISS:          0  dACCESS:     290489  dHIT:     288909  dMISS:       1580  itACCESS:          0  itHIT:          0  itMISS:          0  dtACCESS:          0  dtHIT:          0  dtMISS:          0
cpu0_L2C TRANSLATION  ACCESS:     297501  HIT:      41857  MISS:     255644  iACCESS:          0  iHIT:          0  iMISS:          0  dACCESS:          0  dHIT:          0  dMISS:          0  itACCESS:      89145  itHIT:      16619  itMISS:      72526  dtACCESS:     208356  dtHIT:      25238  dtMISS:     183118
cpu0_L2C PREFETCH  REQUESTED:    1431354  ISSUED:    1431343  CROSSED:          0  USEFUL:     334047  USELESS:     298718
cpu0_L2C AVERAGE iMISS LATENCY: 37.7283 cycles
cpu0_L2C AVERAGE dMISS LATENCY: 69.2418 cycles
cpu0_L2C AVERAGE itMISS LATENCY: 3.22086 cycles
cpu0_L2C AVERAGE dtMISS LATENCY: 8.43502 cycles
cpu0_L2C PAGE CROSSINGS (TLB HIT):         0 
cpu0_L2C PAGE CROSSINGS (TLB MISS):         0 
cpu0_L2C AVERAGE MISS LATENCY: 118.626 cycles
LLC TOTAL       ACCESS:    3736101  HIT:    1426586  MISS:    2309515  iACCESS:    1275455  iHIT:     493964  iMISS:     781491  dACCESS:    2205002  dHIT:     886745  dMISS:    1318257  itACCESS:      72526  itHIT:      11578  itMISS:      60948  dtACCESS:     183118  dtHIT:      34299  dtMISS:     148819
LLC LOAD         ACCESS:     900727  HIT:     368265  MISS:     532462  iACCESS:     280061  iHIT:     114894  iMISS:     165167  dACCESS:     620666  dHIT:     253371  dMISS:     367295  itACCESS:          0  itHIT:          0  itMISS:          0  dtACCESS:          0  dtHIT:          0  dtMISS:          0
LLC RFO          ACCESS:     102258  HIT:      34210  MISS:      68048  iACCESS:          0  iHIT:          0  iMISS:          0  dACCESS:     102258  dHIT:      34210  dMISS:      68048  itACCESS:          0  itHIT:          0  itMISS:          0  dtACCESS:          0  dtHIT:          0  dtMISS:          0
LLC PREFETCH     ACCESS:    2319040  HIT:     828533  MISS:    1490507  iACCESS:     995394  iHIT:     379070  iMISS:     616324  dACCESS:    1323646  dHIT:     449463  dMISS:     874183  itACCESS:          0  itHIT:          0  itMISS:          0  dtACCESS:          0  dtHIT:          0  dtMISS:          0
LLC WRITE        ACCESS:     158432  HIT:     149701  MISS:       8731  iACCESS:          0  iHIT:          0  iMISS:          0  dACCESS:     158432  dHIT:     149701  dMISS:       8731  itACCESS:          0  itHIT:          0  itMISS:          0  dtACCESS:          0  dtHIT:          0  dtMISS:          0
LLC TRANSLATION  ACCESS:     255644  HIT:      45877  MISS:     209767  iACCESS:          0  iHIT:          0  iMISS:          0  dACCESS:          0  dHIT:          0  dMISS:          0  itACCESS:      72526  itHIT:      11578  itMISS:      60948  dtACCESS:     183118  dtHIT:      34299  dtMISS:     148819
LLC PREFETCH  REQUESTED:          0  ISSUED:          0  CROSSED:          0  USEFUL:          0  USELESS:          0
LLC AVERAGE iMISS LATENCY: 50.7681 cycles
LLC AVERAGE dMISS LATENCY: 96.7251 cycles
LLC AVERAGE itMISS LATENCY: 4.63866 cycles
LLC AVERAGE dtMISS LATENCY: 12.2118 cycles
LLC PAGE CROSSINGS (TLB HIT):         0 
LLC PAGE CROSSINGS (TLB MISS):         0 
LLC AVERAGE MISS LATENCY: 164.344 cycles

PageTableWalker TOTAL       ACCESS:     132900  
PageTableWalker AVERAGE LATENCY: 5.16364 cycles
PageTableWalker TOTAL LATENCY: 686247 cycles

DRAM Statistics
Channel 0
 RQ ROW_BUFFER_HIT:     621536
  ROW_BUFFER_MISS:    1660785
 AVG DBUS CONGESTED CYCLE:    3.64388
 WQ ROW_BUFFER_HIT:      44737
  ROW_BUFFER_MISS:      29528  FULL:          0

