last_page:0x200000000000000
VMEM_RES_CAP:0x100000
PAGE_SIZE:4096
LOG2_PAGE_SIZE:12
LOG2_PAGE_TABLE_SIZE:9
page_table_levels:5
WARNING: physical memory size is smaller than virtual memory size
FDiP enabled with aggresivity 16

*** ChampSim Multicore Out-of-Order Simulator ***

Warmup Instructions: 50000000
Simulation Instructions: 100000000
Number of CPUs: 1
Small page size: 4096
Large page size: 2097152

CPU 0 Bimodal branch predictor
Basic BTB sets: 1024 ways: 8 indirect buffer size: 4096 RAS size: 64
Instruction page size distrubution: 0
Loading instruction page size distribution from /home/bsc/bsc018186/scratch/itp_asplos25_AE/dump/srv293_ap.pdst
Data page size distrubution: 0
Loading data page size distribution from /home/bsc/bsc018186/scratch/itp_asplos25_AE/dump/srv293_ap.pdst
cpu0_L2C IP-based stride prefetcher
cpu0_L2C is using xPTP/LRU
	TLB_LOWER_STRESS_THRESHOLD:1
	TLB_UPPER_STRESS_THRESHOLD:9
	MIN_EVICTION_POSITION:4
cpu0_L1D next line prefetcher
cpu0_STLB using iTP with max lru@8
cpu0_STLB using iTP with instr@0 and data@2
Init sat counter with 3 bits (max:50).
cpu0_L1I next line prefetcher
Off-chip DRAM Size: 4 GiB Channels: 1 Width: 64-bit Data Rate: 3200 MT/s
Heartbeat CPU 0 instructions: 10000002 cycles: 2500289 heartbeat IPC: 3.99954 cumulative IPC: 3.99954 (Simulation time: 0 hr 0 min 42 sec) 
Heartbeat CPU 0 instructions: 20000002 cycles: 5000404 heartbeat IPC: 3.99982 cumulative IPC: 3.99968 (Simulation time: 0 hr 1 min 25 sec) 
Heartbeat CPU 0 instructions: 30000002 cycles: 7500427 heartbeat IPC: 3.99997 cumulative IPC: 3.99978 (Simulation time: 0 hr 2 min 8 sec) 
Heartbeat CPU 0 instructions: 40000000 cycles: 10000429 heartbeat IPC: 4 cumulative IPC: 3.99983 (Simulation time: 0 hr 2 min 50 sec) 
Heartbeat CPU 0 instructions: 50000001 cycles: 12500430 heartbeat IPC: 4 cumulative IPC: 3.99987 (Simulation time: 0 hr 3 min 34 sec) 
Warmup finished CPU 0 instructions: 50000001 cycles: 12500431 cumulative IPC: 3.99987 (Simulation time: 0 hr 3 min 34 sec) 

Warmup complete CPU 0 instructions: 50000001 cycles: 12500431 (Simulation time: 0 hr 3 min 34 sec) 

Heartbeat CPU 0 instructions: 60000001 cycles: 25362446 heartbeat IPC: 0.777484 cumulative IPC: 0.777484 (Simulation time: 0 hr 4 min 41 sec) 
Heartbeat CPU 0 instructions: 70000000 cycles: 39204170 heartbeat IPC: 0.722454 cumulative IPC: 0.748959 (Simulation time: 0 hr 5 min 47 sec) 
Heartbeat CPU 0 instructions: 80000002 cycles: 52107549 heartbeat IPC: 0.774991 cumulative IPC: 0.75744 (Simulation time: 0 hr 6 min 52 sec) 
Heartbeat CPU 0 instructions: 90000004 cycles: 65032644 heartbeat IPC: 0.773689 cumulative IPC: 0.761438 (Simulation time: 0 hr 7 min 54 sec) 
Heartbeat CPU 0 instructions: 100000002 cycles: 78066522 heartbeat IPC: 0.767232 cumulative IPC: 0.76259 (Simulation time: 0 hr 8 min 57 sec) 
*** Reached end of trace: /gpfs/projects/bsc18/MN4/bsc18/romol/ChampSim/traces/qualcomm_srv/srv293_ap.champsimtrace.xz
Heartbeat CPU 0 instructions: 110000004 cycles: 90635651 heartbeat IPC: 0.795601 cumulative IPC: 0.7679 (Simulation time: 0 hr 9 min 59 sec) 
Heartbeat CPU 0 instructions: 120000004 cycles: 103520429 heartbeat IPC: 0.77611 cumulative IPC: 0.769062 (Simulation time: 0 hr 11 min 1 sec) 
Heartbeat CPU 0 instructions: 130000003 cycles: 116005761 heartbeat IPC: 0.80094 cumulative IPC: 0.772908 (Simulation time: 0 hr 12 min 3 sec) 
Heartbeat CPU 0 instructions: 140000002 cycles: 129174810 heartbeat IPC: 0.759357 cumulative IPC: 0.771378 (Simulation time: 0 hr 13 min 4 sec) 
Heartbeat CPU 0 instructions: 150000000 cycles: 142023582 heartbeat IPC: 0.778285 cumulative IPC: 0.772063 (Simulation time: 0 hr 14 min 7 sec) 
Simulation finished CPU 0 instructions: 100000004 cycles: 129523153 cumulative IPC: 0.772063 (Simulation time: 0 hr 14 min 7 sec) 

Simulation complete CPU 0 instructions: 100000004 cycles: 129523153 (Simulation time: 0 hr 14 min 7 sec) 


ChampSim completed all CPUs

Saving instructions large page distribution to /home/bsc/bsc018186/scratch/itp_asplos25_AE/dump/srv293_ap.pdst...
Saving data large page distribution to /home/bsc/bsc018186/scratch/itp_asplos25_AE/dump/srv293_ap.pdst...
=== Simulation ===
CPU 0 runs /gpfs/projects/bsc18/MN4/bsc18/romol/ChampSim/traces/qualcomm_srv/srv293_ap.champsimtrace.xz

Region of Interest Statistics

CPU 0 cumulative IPC: 0.772063 instructions: 100000004 cycles: 129523153
CPU 0 Branch Prediction Accuracy: 83.4793% MPKI: 29.5378 Average ROB Occupancy at Mispredict: 12.6653
Branch type MPKI
BRANCH_DIRECT_JUMP: 1.01596
BRANCH_INDIRECT: 15.2507
BRANCH_CONDITIONAL: 9.60774
BRANCH_DIRECT_CALL: 1.83251
BRANCH_INDIRECT_CALL: 0.50275
BRANCH_RETURN: 1.32809

Instructions large pages: 0
Instructions small pages: 1052
Large page distribution for instructions: 0%

Data large pages: 0
Data small pages: 10204
Large page distribution for data: 0%

cpu0_L1I TOTAL       ACCESS:   34916999  HIT:   26941590  MISS:    7975409  iACCESS:   34916999  iHIT:   26941590  iMISS:    7975409  dACCESS:          0  dHIT:          0  dMISS:          0  itACCESS:          0  itHIT:          0  itMISS:          0  dtACCESS:          0  dtHIT:          0  dtMISS:          0
cpu0_L1I LOAD         ACCESS:   10268587  HIT:    8026550  MISS:    2242037  iACCESS:   10268587  iHIT:    8026550  iMISS:    2242037  dACCESS:          0  dHIT:          0  dMISS:          0  itACCESS:          0  itHIT:          0  itMISS:          0  dtACCESS:          0  dtHIT:          0  dtMISS:          0
cpu0_L1I RFO          ACCESS:          0  HIT:          0  MISS:          0  iACCESS:          0  iHIT:          0  iMISS:          0  dACCESS:          0  dHIT:          0  dMISS:          0  itACCESS:          0  itHIT:          0  itMISS:          0  dtACCESS:          0  dtHIT:          0  dtMISS:          0
cpu0_L1I PREFETCH     ACCESS:   24648412  HIT:   18915040  MISS:    5733372  iACCESS:   24648412  iHIT:   18915040  iMISS:    5733372  dACCESS:          0  dHIT:          0  dMISS:          0  itACCESS:          0  itHIT:          0  itMISS:          0  dtACCESS:          0  dtHIT:          0  dtMISS:          0
cpu0_L1I WRITE        ACCESS:          0  HIT:          0  MISS:          0  iACCESS:          0  iHIT:          0  iMISS:          0  dACCESS:          0  dHIT:          0  dMISS:          0  itACCESS:          0  itHIT:          0  itMISS:          0  dtACCESS:          0  dtHIT:          0  dtMISS:          0
cpu0_L1I TRANSLATION  ACCESS:          0  HIT:          0  MISS:          0  iACCESS:          0  iHIT:          0  iMISS:          0  dACCESS:          0  dHIT:          0  dMISS:          0  itACCESS:          0  itHIT:          0  itMISS:          0  dtACCESS:          0  dtHIT:          0  dtMISS:          0
cpu0_L1I PREFETCH  REQUESTED:   27154488  ISSUED:   27154246  CROSSED:          0  USEFUL:    1895146  USELESS:     623267
cpu0_L1I AVERAGE iMISS LATENCY: 11.1741 cycles
cpu0_L1I AVERAGE dMISS LATENCY: 0 cycles
cpu0_L1I AVERAGE itMISS LATENCY: 0 cycles
cpu0_L1I AVERAGE dtMISS LATENCY: 0 cycles
cpu0_L1I PAGE CROSSINGS (TLB HIT):         0 
cpu0_L1I PAGE CROSSINGS (TLB MISS):         0 
cpu0_L1I AVERAGE MISS LATENCY: 11.1741 cycles
cpu0_ITLB TOTAL       ACCESS:   29049996  HIT:   27095773  MISS:    1954223  iACCESS:   29049996  iHIT:   27095773  iMISS:    1954223  dACCESS:          0  dHIT:          0  dMISS:          0  itACCESS:          0  itHIT:          0  itMISS:          0  dtACCESS:          0  dtHIT:          0  dtMISS:          0
cpu0_ITLB LOAD         ACCESS:   29049996  HIT:   27095773  MISS:    1954223  iACCESS:   29049996  iHIT:   27095773  iMISS:    1954223  dACCESS:          0  dHIT:          0  dMISS:          0  itACCESS:          0  itHIT:          0  itMISS:          0  dtACCESS:          0  dtHIT:          0  dtMISS:          0
cpu0_ITLB RFO          ACCESS:          0  HIT:          0  MISS:          0  iACCESS:          0  iHIT:          0  iMISS:          0  dACCESS:          0  dHIT:          0  dMISS:          0  itACCESS:          0  itHIT:          0  itMISS:          0  dtACCESS:          0  dtHIT:          0  dtMISS:          0
cpu0_ITLB PREFETCH     ACCESS:          0  HIT:          0  MISS:          0  iACCESS:          0  iHIT:          0  iMISS:          0  dACCESS:          0  dHIT:          0  dMISS:          0  itACCESS:          0  itHIT:          0  itMISS:          0  dtACCESS:          0  dtHIT:          0  dtMISS:          0
cpu0_ITLB WRITE        ACCESS:          0  HIT:          0  MISS:          0  iACCESS:          0  iHIT:          0  iMISS:          0  dACCESS:          0  dHIT:          0  dMISS:          0  itACCESS:          0  itHIT:          0  itMISS:          0  dtACCESS:          0  dtHIT:          0  dtMISS:          0
cpu0_ITLB TRANSLATION  ACCESS:          0  HIT:          0  MISS:          0  iACCESS:          0  iHIT:          0  iMISS:          0  dACCESS:          0  dHIT:          0  dMISS:          0  itACCESS:          0  itHIT:          0  itMISS:          0  dtACCESS:          0  dtHIT:          0  dtMISS:          0
cpu0_ITLB PREFETCH  REQUESTED:          0  ISSUED:          0  CROSSED:          0  USEFUL:     320248  USELESS:      65964
cpu0_ITLB AVERAGE iMISS LATENCY: 1.96078 cycles
cpu0_ITLB AVERAGE dMISS LATENCY: 0 cycles
cpu0_ITLB AVERAGE itMISS LATENCY: 0 cycles
cpu0_ITLB AVERAGE dtMISS LATENCY: 0 cycles
cpu0_ITLB PAGE CROSSINGS (TLB HIT):         0 
cpu0_ITLB PAGE CROSSINGS (TLB MISS):         0 
cpu0_ITLB AVERAGE MISS LATENCY: 1.96078 cycles
cpu0_DTLB TOTAL       ACCESS:   27672678  HIT:   25642724  MISS:    2029954  iACCESS:          0  iHIT:          0  iMISS:          0  dACCESS:   27672678  dHIT:   25642724  dMISS:    2029954  itACCESS:          0  itHIT:          0  itMISS:          0  dtACCESS:          0  dtHIT:          0  dtMISS:          0
cpu0_DTLB LOAD         ACCESS:   27672678  HIT:   25642724  MISS:    2029954  iACCESS:          0  iHIT:          0  iMISS:          0  dACCESS:   27672678  dHIT:   25642724  dMISS:    2029954  itACCESS:          0  itHIT:          0  itMISS:          0  dtACCESS:          0  dtHIT:          0  dtMISS:          0
cpu0_DTLB RFO          ACCESS:          0  HIT:          0  MISS:          0  iACCESS:          0  iHIT:          0  iMISS:          0  dACCESS:          0  dHIT:          0  dMISS:          0  itACCESS:          0  itHIT:          0  itMISS:          0  dtACCESS:          0  dtHIT:          0  dtMISS:          0
cpu0_DTLB PREFETCH     ACCESS:          0  HIT:          0  MISS:          0  iACCESS:          0  iHIT:          0  iMISS:          0  dACCESS:          0  dHIT:          0  dMISS:          0  itACCESS:          0  itHIT:          0  itMISS:          0  dtACCESS:          0  dtHIT:          0  dtMISS:          0
cpu0_DTLB WRITE        ACCESS:          0  HIT:          0  MISS:          0  iACCESS:          0  iHIT:          0  iMISS:          0  dACCESS:          0  dHIT:          0  dMISS:          0  itACCESS:          0  itHIT:          0  itMISS:          0  dtACCESS:          0  dtHIT:          0  dtMISS:          0
cpu0_DTLB TRANSLATION  ACCESS:          0  HIT:          0  MISS:          0  iACCESS:          0  iHIT:          0  iMISS:          0  dACCESS:          0  dHIT:          0  dMISS:          0  itACCESS:          0  itHIT:          0  itMISS:          0  dtACCESS:          0  dtHIT:          0  dtMISS:          0
cpu0_DTLB PREFETCH  REQUESTED:          0  ISSUED:          0  CROSSED:          0  USEFUL:          0  USELESS:          0
cpu0_DTLB AVERAGE iMISS LATENCY: 0 cycles
cpu0_DTLB AVERAGE dMISS LATENCY: 10.9375 cycles
cpu0_DTLB AVERAGE itMISS LATENCY: 0 cycles
cpu0_DTLB AVERAGE dtMISS LATENCY: 0 cycles
cpu0_DTLB PAGE CROSSINGS (TLB HIT):         0 
cpu0_DTLB PAGE CROSSINGS (TLB MISS):         0 
cpu0_DTLB AVERAGE MISS LATENCY: 10.9375 cycles
cpu0_STLB TOTAL       ACCESS:    1625322  HIT:    1479366  MISS:     145956  iACCESS:     386236  iHIT:     379083  iMISS:       7153  dACCESS:    1239086  dHIT:    1100283  dMISS:     138803  itACCESS:          0  itHIT:          0  itMISS:          0  dtACCESS:          0  dtHIT:          0  dtMISS:          0
cpu0_STLB LOAD         ACCESS:    1625322  HIT:    1479366  MISS:     145956  iACCESS:     386236  iHIT:     379083  iMISS:       7153  dACCESS:    1239086  dHIT:    1100283  dMISS:     138803  itACCESS:          0  itHIT:          0  itMISS:          0  dtACCESS:          0  dtHIT:          0  dtMISS:          0
cpu0_STLB RFO          ACCESS:          0  HIT:          0  MISS:          0  iACCESS:          0  iHIT:          0  iMISS:          0  dACCESS:          0  dHIT:          0  dMISS:          0  itACCESS:          0  itHIT:          0  itMISS:          0  dtACCESS:          0  dtHIT:          0  dtMISS:          0
cpu0_STLB PREFETCH     ACCESS:          0  HIT:          0  MISS:          0  iACCESS:          0  iHIT:          0  iMISS:          0  dACCESS:          0  dHIT:          0  dMISS:          0  itACCESS:          0  itHIT:          0  itMISS:          0  dtACCESS:          0  dtHIT:          0  dtMISS:          0
cpu0_STLB WRITE        ACCESS:          0  HIT:          0  MISS:          0  iACCESS:          0  iHIT:          0  iMISS:          0  dACCESS:          0  dHIT:          0  dMISS:          0  itACCESS:          0  itHIT:          0  itMISS:          0  dtACCESS:          0  dtHIT:          0  dtMISS:          0
cpu0_STLB TRANSLATION  ACCESS:          0  HIT:          0  MISS:          0  iACCESS:          0  iHIT:          0  iMISS:          0  dACCESS:          0  dHIT:          0  dMISS:          0  itACCESS:          0  itHIT:          0  itMISS:          0  dtACCESS:          0  dtHIT:          0  dtMISS:          0
cpu0_STLB PREFETCH  REQUESTED:          0  ISSUED:          0  CROSSED:          0  USEFUL:          0  USELESS:          0
cpu0_STLB AVERAGE iMISS LATENCY: 5.73784 cycles
cpu0_STLB AVERAGE dMISS LATENCY: 84.3005 cycles
cpu0_STLB AVERAGE itMISS LATENCY: 0 cycles
cpu0_STLB AVERAGE dtMISS LATENCY: 0 cycles
cpu0_STLB PAGE CROSSINGS (TLB HIT):         0 
cpu0_STLB PAGE CROSSINGS (TLB MISS):         0 
cpu0_STLB AVERAGE MISS LATENCY: 90.0384 cycles
cpu0_L1D TOTAL       ACCESS:   41363205  HIT:   37927018  MISS:    3436187  iACCESS:          0  iHIT:          0  iMISS:          0  dACCESS:   41147515  dHIT:   37912072  dMISS:    3235443  itACCESS:       8781  itHIT:        944  itMISS:       7837  dtACCESS:     206909  dtHIT:      14002  dtMISS:     192907
cpu0_L1D LOAD         ACCESS:   18871068  HIT:   17397656  MISS:    1473412  iACCESS:          0  iHIT:          0  iMISS:          0  dACCESS:   18871068  dHIT:   17397656  dMISS:    1473412  itACCESS:          0  itHIT:          0  itMISS:          0  dtACCESS:          0  dtHIT:          0  dtMISS:          0
cpu0_L1D RFO          ACCESS:          0  HIT:          0  MISS:          0  iACCESS:          0  iHIT:          0  iMISS:          0  dACCESS:          0  dHIT:          0  dMISS:          0  itACCESS:          0  itHIT:          0  itMISS:          0  dtACCESS:          0  dtHIT:          0  dtMISS:          0
cpu0_L1D PREFETCH     ACCESS:   12091249  HIT:   10762925  MISS:    1328324  iACCESS:          0  iHIT:          0  iMISS:          0  dACCESS:   12091249  dHIT:   10762925  dMISS:    1328324  itACCESS:          0  itHIT:          0  itMISS:          0  dtACCESS:          0  dtHIT:          0  dtMISS:          0
cpu0_L1D WRITE        ACCESS:   10185198  HIT:    9751491  MISS:     433707  iACCESS:          0  iHIT:          0  iMISS:          0  dACCESS:   10185198  dHIT:    9751491  dMISS:     433707  itACCESS:          0  itHIT:          0  itMISS:          0  dtACCESS:          0  dtHIT:          0  dtMISS:          0
cpu0_L1D TRANSLATION  ACCESS:     215690  HIT:      14946  MISS:     200744  iACCESS:          0  iHIT:          0  iMISS:          0  dACCESS:          0  dHIT:          0  dMISS:          0  itACCESS:       8781  itHIT:        944  itMISS:       7837  dtACCESS:     206909  dtHIT:      14002  dtMISS:     192907
cpu0_L1D PREFETCH  REQUESTED:   18871068  ISSUED:   16902704  CROSSED:          0  USEFUL:     306991  USELESS:     697107
cpu0_L1D AVERAGE iMISS LATENCY: 0 cycles
cpu0_L1D AVERAGE dMISS LATENCY: 29.5954 cycles
cpu0_L1D AVERAGE itMISS LATENCY: 0.220555 cycles
cpu0_L1D AVERAGE dtMISS LATENCY: 2.75571 cycles
cpu0_L1D PAGE CROSSINGS (TLB HIT):         0 
cpu0_L1D PAGE CROSSINGS (TLB MISS):         0 
cpu0_L1D AVERAGE MISS LATENCY: 32.5717 cycles
cpu0_L2C TOTAL       ACCESS:    6889123  HIT:    2573937  MISS:    4315186  iACCESS:    3262284  iHIT:    1421886  iMISS:    1840398  dACCESS:    3433659  dHIT:    1019738  dMISS:    2413921  itACCESS:       7805  itHIT:       2284  itMISS:       5521  dtACCESS:     185375  dtHIT:     130029  dtMISS:      55346
cpu0_L2C LOAD         ACCESS:    1702762  HIT:     569353  MISS:    1133409  iACCESS:     778616  iHIT:     311026  iMISS:     467590  dACCESS:     924146  dHIT:     258327  dMISS:     665819  itACCESS:          0  itHIT:          0  itMISS:          0  dtACCESS:          0  dtHIT:          0  dtMISS:          0
cpu0_L2C RFO          ACCESS:     156584  HIT:      33654  MISS:     122930  iACCESS:          0  iHIT:          0  iMISS:          0  dACCESS:     156584  dHIT:      33654  dMISS:     122930  itACCESS:          0  itHIT:          0  itMISS:          0  dtACCESS:          0  dtHIT:          0  dtMISS:          0
cpu0_L2C PREFETCH     ACCESS:    4554011  HIT:    1712857  MISS:    2841154  iACCESS:    2483668  iHIT:    1110860  iMISS:    1372808  dACCESS:    2070343  dHIT:     601997  dMISS:    1468346  itACCESS:          0  itHIT:          0  itMISS:          0  dtACCESS:          0  dtHIT:          0  dtMISS:          0
cpu0_L2C WRITE        ACCESS:     282586  HIT:     125760  MISS:     156826  iACCESS:          0  iHIT:          0  iMISS:          0  dACCESS:     282586  dHIT:     125760  dMISS:     156826  itACCESS:          0  itHIT:          0  itMISS:          0  dtACCESS:          0  dtHIT:          0  dtMISS:          0
cpu0_L2C TRANSLATION  ACCESS:     193180  HIT:     132313  MISS:      60867  iACCESS:          0  iHIT:          0  iMISS:          0  dACCESS:          0  dHIT:          0  dMISS:          0  itACCESS:       7805  itHIT:       2284  itMISS:       5521  dtACCESS:     185375  dtHIT:     130029  dtMISS:      55346
cpu0_L2C PREFETCH  REQUESTED:    1314906  ISSUED:    1314906  CROSSED:          0  USEFUL:     337995  USELESS:     319859
cpu0_L2C AVERAGE iMISS LATENCY: 13.7597 cycles
cpu0_L2C AVERAGE dMISS LATENCY: 25.798 cycles
cpu0_L2C AVERAGE itMISS LATENCY: 0.158032 cycles
cpu0_L2C AVERAGE dtMISS LATENCY: 1.79245 cycles
cpu0_L2C PAGE CROSSINGS (TLB HIT):         0 
cpu0_L2C PAGE CROSSINGS (TLB MISS):         0 
cpu0_L2C AVERAGE MISS LATENCY: 41.5081 cycles
LLC TOTAL       ACCESS:    4271956  HIT:    3640933  MISS:     631023  iACCESS:    1796317  iHIT:    1631305  iMISS:     165012  dACCESS:    2414772  dHIT:    1990441  dMISS:     424331  itACCESS:       5521  itHIT:       2212  itMISS:       3309  dtACCESS:      55346  dtHIT:      16975  dtMISS:      38371
LLC LOAD         ACCESS:    1131871  HIT:     986768  MISS:     145103  iACCESS:     466347  iHIT:     431988  iMISS:      34359  dACCESS:     665524  dHIT:     554780  dMISS:     110744  itACCESS:          0  itHIT:          0  itMISS:          0  dtACCESS:          0  dtHIT:          0  dtMISS:          0
LLC RFO          ACCESS:     122927  HIT:      92712  MISS:      30215  iACCESS:          0  iHIT:          0  iMISS:          0  dACCESS:     122927  dHIT:      92712  dMISS:      30215  itACCESS:          0  itHIT:          0  itMISS:          0  dtACCESS:          0  dtHIT:          0  dtMISS:          0
LLC PREFETCH     ACCESS:    2754525  HIT:    2342290  MISS:     412235  iACCESS:    1329970  iHIT:    1199317  iMISS:     130653  dACCESS:    1424555  dHIT:    1142973  dMISS:     281582  itACCESS:          0  itHIT:          0  itMISS:          0  dtACCESS:          0  dtHIT:          0  dtMISS:          0
LLC WRITE        ACCESS:     201766  HIT:     199976  MISS:       1790  iACCESS:          0  iHIT:          0  iMISS:          0  dACCESS:     201766  dHIT:     199976  dMISS:       1790  itACCESS:          0  itHIT:          0  itMISS:          0  dtACCESS:          0  dtHIT:          0  dtMISS:          0
LLC TRANSLATION  ACCESS:      60867  HIT:      19187  MISS:      41680  iACCESS:          0  iHIT:          0  iMISS:          0  dACCESS:          0  dHIT:          0  dMISS:          0  itACCESS:       5521  itHIT:       2212  itMISS:       3309  dtACCESS:      55346  dtHIT:      16975  dtMISS:      38371
LLC PREFETCH  REQUESTED:          0  ISSUED:          0  CROSSED:          0  USEFUL:          0  USELESS:          0
LLC AVERAGE iMISS LATENCY: 39.2465 cycles
LLC AVERAGE dMISS LATENCY: 108.714 cycles
LLC AVERAGE itMISS LATENCY: 0.909514 cycles
LLC AVERAGE dtMISS LATENCY: 10.5333 cycles
LLC PAGE CROSSINGS (TLB HIT):         0 
LLC PAGE CROSSINGS (TLB MISS):         0 
LLC AVERAGE MISS LATENCY: 159.403 cycles

PageTableWalker TOTAL       ACCESS:      71916  
PageTableWalker AVERAGE LATENCY: 4.90396 cycles
PageTableWalker TOTAL LATENCY: 352673 cycles

DRAM Statistics
Channel 0
 RQ ROW_BUFFER_HIT:     164325
  ROW_BUFFER_MISS:     464866
 AVG DBUS CONGESTED CYCLE:    3.63806
 WQ ROW_BUFFER_HIT:      15251
  ROW_BUFFER_MISS:      25998  FULL:          0

