last_page:0x200000000000000
VMEM_RES_CAP:0x100000
PAGE_SIZE:4096
LOG2_PAGE_SIZE:12
LOG2_PAGE_TABLE_SIZE:9
page_table_levels:5
WARNING: physical memory size is smaller than virtual memory size
FDiP enabled with aggresivity 16

*** ChampSim Multicore Out-of-Order Simulator ***

Warmup Instructions: 50000000
Simulation Instructions: 100000000
Number of CPUs: 1
Small page size: 4096
Large page size: 2097152

CPU 0 Bimodal branch predictor
Basic BTB sets: 1024 ways: 8 indirect buffer size: 4096 RAS size: 64
Instruction page size distrubution: 0
Loading instruction page size distribution from /home/bsc/bsc018186/scratch/itp_asplos25_AE/dump/srv257_ap.pdst
Data page size distrubution: 0
Loading data page size distribution from /home/bsc/bsc018186/scratch/itp_asplos25_AE/dump/srv257_ap.pdst
cpu0_L2C IP-based stride prefetcher
cpu0_L1D next line prefetcher
cpu0_STLB using iTP with max lru@8
cpu0_STLB using iTP with instr@0 and data@2
Init sat counter with 3 bits (max:50).
cpu0_L1I next line prefetcher
Off-chip DRAM Size: 4 GiB Channels: 1 Width: 64-bit Data Rate: 3200 MT/s
Heartbeat CPU 0 instructions: 10000001 cycles: 2500207 heartbeat IPC: 3.99967 cumulative IPC: 3.99967 (Simulation time: 0 hr 0 min 38 sec) 
Heartbeat CPU 0 instructions: 20000001 cycles: 5000211 heartbeat IPC: 4 cumulative IPC: 3.99984 (Simulation time: 0 hr 1 min 18 sec) 
Heartbeat CPU 0 instructions: 30000000 cycles: 7500301 heartbeat IPC: 3.99986 cumulative IPC: 3.99984 (Simulation time: 0 hr 1 min 59 sec) 
Heartbeat CPU 0 instructions: 40000003 cycles: 10000340 heartbeat IPC: 3.99994 cumulative IPC: 3.99987 (Simulation time: 0 hr 2 min 39 sec) 
Heartbeat CPU 0 instructions: 50000001 cycles: 12500404 heartbeat IPC: 3.9999 cumulative IPC: 3.99988 (Simulation time: 0 hr 3 min 19 sec) 
Warmup finished CPU 0 instructions: 50000001 cycles: 12500405 cumulative IPC: 3.99988 (Simulation time: 0 hr 3 min 19 sec) 

Warmup complete CPU 0 instructions: 50000001 cycles: 12500405 (Simulation time: 0 hr 3 min 19 sec) 

Heartbeat CPU 0 instructions: 60000001 cycles: 26690131 heartbeat IPC: 0.704736 cumulative IPC: 0.704736 (Simulation time: 0 hr 4 min 23 sec) 
Heartbeat CPU 0 instructions: 70000000 cycles: 40160832 heartbeat IPC: 0.742352 cumulative IPC: 0.723055 (Simulation time: 0 hr 5 min 25 sec) 
Heartbeat CPU 0 instructions: 80000000 cycles: 54411162 heartbeat IPC: 0.701739 cumulative IPC: 0.715807 (Simulation time: 0 hr 6 min 29 sec) 
Heartbeat CPU 0 instructions: 90000000 cycles: 68175250 heartbeat IPC: 0.726529 cumulative IPC: 0.718458 (Simulation time: 0 hr 7 min 32 sec) 
Heartbeat CPU 0 instructions: 100000000 cycles: 82253740 heartbeat IPC: 0.710304 cumulative IPC: 0.716812 (Simulation time: 0 hr 8 min 35 sec) 
*** Reached end of trace: /gpfs/projects/bsc18/MN4/bsc18/romol/ChampSim/traces/qualcomm_srv/srv257_ap.champsimtrace.xz
Heartbeat CPU 0 instructions: 110000000 cycles: 96148324 heartbeat IPC: 0.719705 cumulative IPC: 0.717293 (Simulation time: 0 hr 9 min 38 sec) 
Heartbeat CPU 0 instructions: 120000000 cycles: 110462396 heartbeat IPC: 0.698614 cumulative IPC: 0.714563 (Simulation time: 0 hr 10 min 41 sec) 
Heartbeat CPU 0 instructions: 130000003 cycles: 123951390 heartbeat IPC: 0.741346 cumulative IPC: 0.717805 (Simulation time: 0 hr 11 min 42 sec) 
Heartbeat CPU 0 instructions: 140000001 cycles: 137286401 heartbeat IPC: 0.749906 cumulative IPC: 0.721235 (Simulation time: 0 hr 12 min 42 sec) 
Heartbeat CPU 0 instructions: 150000001 cycles: 152042949 heartbeat IPC: 0.677666 cumulative IPC: 0.716628 (Simulation time: 0 hr 13 min 43 sec) 
Simulation finished CPU 0 instructions: 100000000 cycles: 139542545 cumulative IPC: 0.716628 (Simulation time: 0 hr 13 min 43 sec) 

Simulation complete CPU 0 instructions: 100000000 cycles: 139542545 (Simulation time: 0 hr 13 min 43 sec) 


ChampSim completed all CPUs

Saving instructions large page distribution to /home/bsc/bsc018186/scratch/itp_asplos25_AE/dump/srv257_ap.pdst...
Saving data large page distribution to /home/bsc/bsc018186/scratch/itp_asplos25_AE/dump/srv257_ap.pdst...
=== Simulation ===
CPU 0 runs /gpfs/projects/bsc18/MN4/bsc18/romol/ChampSim/traces/qualcomm_srv/srv257_ap.champsimtrace.xz

Region of Interest Statistics

CPU 0 cumulative IPC: 0.716628 instructions: 100000000 cycles: 139542545
CPU 0 Branch Prediction Accuracy: 83.0306% MPKI: 30.3649 Average ROB Occupancy at Mispredict: 12.2087
Branch type MPKI
BRANCH_DIRECT_JUMP: 1.02394
BRANCH_INDIRECT: 15.5539
BRANCH_CONDITIONAL: 10.0694
BRANCH_DIRECT_CALL: 1.85566
BRANCH_INDIRECT_CALL: 0.518641
BRANCH_RETURN: 1.34343

Instructions large pages: 0
Instructions small pages: 10424
Large page distribution for instructions: 0%

Data large pages: 0
Data small pages: 9458
Large page distribution for data: 0%

cpu0_L1I TOTAL       ACCESS:   35437510  HIT:   27056268  MISS:    8381242  iACCESS:   35437510  iHIT:   27056268  iMISS:    8381242  dACCESS:          0  dHIT:          0  dMISS:          0  itACCESS:          0  itHIT:          0  itMISS:          0  dtACCESS:          0  dtHIT:          0  dtMISS:          0
cpu0_L1I LOAD         ACCESS:   10361144  HIT:    8018890  MISS:    2342254  iACCESS:   10361144  iHIT:    8018890  iMISS:    2342254  dACCESS:          0  dHIT:          0  dMISS:          0  itACCESS:          0  itHIT:          0  itMISS:          0  dtACCESS:          0  dtHIT:          0  dtMISS:          0
cpu0_L1I RFO          ACCESS:          0  HIT:          0  MISS:          0  iACCESS:          0  iHIT:          0  iMISS:          0  dACCESS:          0  dHIT:          0  dMISS:          0  itACCESS:          0  itHIT:          0  itMISS:          0  dtACCESS:          0  dtHIT:          0  dtMISS:          0
cpu0_L1I PREFETCH     ACCESS:   25076366  HIT:   19037378  MISS:    6038988  iACCESS:   25076366  iHIT:   19037378  iMISS:    6038988  dACCESS:          0  dHIT:          0  dMISS:          0  itACCESS:          0  itHIT:          0  itMISS:          0  dtACCESS:          0  dtHIT:          0  dtMISS:          0
cpu0_L1I WRITE        ACCESS:          0  HIT:          0  MISS:          0  iACCESS:          0  iHIT:          0  iMISS:          0  dACCESS:          0  dHIT:          0  dMISS:          0  itACCESS:          0  itHIT:          0  itMISS:          0  dtACCESS:          0  dtHIT:          0  dtMISS:          0
cpu0_L1I TRANSLATION  ACCESS:          0  HIT:          0  MISS:          0  iACCESS:          0  iHIT:          0  iMISS:          0  dACCESS:          0  dHIT:          0  dMISS:          0  itACCESS:          0  itHIT:          0  itMISS:          0  dtACCESS:          0  dtHIT:          0  dtMISS:          0
cpu0_L1I PREFETCH  REQUESTED:   27373770  ISSUED:   27371955  CROSSED:          0  USEFUL:    1935647  USELESS:     629994
cpu0_L1I AVERAGE iMISS LATENCY: 13.1053 cycles
cpu0_L1I AVERAGE dMISS LATENCY: 0 cycles
cpu0_L1I AVERAGE itMISS LATENCY: 0 cycles
cpu0_L1I AVERAGE dtMISS LATENCY: 0 cycles
cpu0_L1I PAGE CROSSINGS (TLB HIT):         0 
cpu0_L1I PAGE CROSSINGS (TLB MISS):         0 
cpu0_L1I AVERAGE MISS LATENCY: 13.1053 cycles
cpu0_ITLB TOTAL       ACCESS:   29321477  HIT:   27392834  MISS:    1928643  iACCESS:   29321477  iHIT:   27392834  iMISS:    1928643  dACCESS:          0  dHIT:          0  dMISS:          0  itACCESS:          0  itHIT:          0  itMISS:          0  dtACCESS:          0  dtHIT:          0  dtMISS:          0
cpu0_ITLB LOAD         ACCESS:   29321477  HIT:   27392834  MISS:    1928643  iACCESS:   29321477  iHIT:   27392834  iMISS:    1928643  dACCESS:          0  dHIT:          0  dMISS:          0  itACCESS:          0  itHIT:          0  itMISS:          0  dtACCESS:          0  dtHIT:          0  dtMISS:          0
cpu0_ITLB RFO          ACCESS:          0  HIT:          0  MISS:          0  iACCESS:          0  iHIT:          0  iMISS:          0  dACCESS:          0  dHIT:          0  dMISS:          0  itACCESS:          0  itHIT:          0  itMISS:          0  dtACCESS:          0  dtHIT:          0  dtMISS:          0
cpu0_ITLB PREFETCH     ACCESS:          0  HIT:          0  MISS:          0  iACCESS:          0  iHIT:          0  iMISS:          0  dACCESS:          0  dHIT:          0  dMISS:          0  itACCESS:          0  itHIT:          0  itMISS:          0  dtACCESS:          0  dtHIT:          0  dtMISS:          0
cpu0_ITLB WRITE        ACCESS:          0  HIT:          0  MISS:          0  iACCESS:          0  iHIT:          0  iMISS:          0  dACCESS:          0  dHIT:          0  dMISS:          0  itACCESS:          0  itHIT:          0  itMISS:          0  dtACCESS:          0  dtHIT:          0  dtMISS:          0
cpu0_ITLB TRANSLATION  ACCESS:          0  HIT:          0  MISS:          0  iACCESS:          0  iHIT:          0  iMISS:          0  dACCESS:          0  dHIT:          0  dMISS:          0  itACCESS:          0  itHIT:          0  itMISS:          0  dtACCESS:          0  dtHIT:          0  dtMISS:          0
cpu0_ITLB PREFETCH  REQUESTED:          0  ISSUED:          0  CROSSED:          0  USEFUL:     315791  USELESS:      65016
cpu0_ITLB AVERAGE iMISS LATENCY: 1.98372 cycles
cpu0_ITLB AVERAGE dMISS LATENCY: 0 cycles
cpu0_ITLB AVERAGE itMISS LATENCY: 0 cycles
cpu0_ITLB AVERAGE dtMISS LATENCY: 0 cycles
cpu0_ITLB PAGE CROSSINGS (TLB HIT):         0 
cpu0_ITLB PAGE CROSSINGS (TLB MISS):         0 
cpu0_ITLB AVERAGE MISS LATENCY: 1.98372 cycles
cpu0_DTLB TOTAL       ACCESS:   27777468  HIT:   25701687  MISS:    2075781  iACCESS:          0  iHIT:          0  iMISS:          0  dACCESS:   27777468  dHIT:   25701687  dMISS:    2075781  itACCESS:          0  itHIT:          0  itMISS:          0  dtACCESS:          0  dtHIT:          0  dtMISS:          0
cpu0_DTLB LOAD         ACCESS:   27777468  HIT:   25701687  MISS:    2075781  iACCESS:          0  iHIT:          0  iMISS:          0  dACCESS:   27777468  dHIT:   25701687  dMISS:    2075781  itACCESS:          0  itHIT:          0  itMISS:          0  dtACCESS:          0  dtHIT:          0  dtMISS:          0
cpu0_DTLB RFO          ACCESS:          0  HIT:          0  MISS:          0  iACCESS:          0  iHIT:          0  iMISS:          0  dACCESS:          0  dHIT:          0  dMISS:          0  itACCESS:          0  itHIT:          0  itMISS:          0  dtACCESS:          0  dtHIT:          0  dtMISS:          0
cpu0_DTLB PREFETCH     ACCESS:          0  HIT:          0  MISS:          0  iACCESS:          0  iHIT:          0  iMISS:          0  dACCESS:          0  dHIT:          0  dMISS:          0  itACCESS:          0  itHIT:          0  itMISS:          0  dtACCESS:          0  dtHIT:          0  dtMISS:          0
cpu0_DTLB WRITE        ACCESS:          0  HIT:          0  MISS:          0  iACCESS:          0  iHIT:          0  iMISS:          0  dACCESS:          0  dHIT:          0  dMISS:          0  itACCESS:          0  itHIT:          0  itMISS:          0  dtACCESS:          0  dtHIT:          0  dtMISS:          0
cpu0_DTLB TRANSLATION  ACCESS:          0  HIT:          0  MISS:          0  iACCESS:          0  iHIT:          0  iMISS:          0  dACCESS:          0  dHIT:          0  dMISS:          0  itACCESS:          0  itHIT:          0  itMISS:          0  dtACCESS:          0  dtHIT:          0  dtMISS:          0
cpu0_DTLB PREFETCH  REQUESTED:          0  ISSUED:          0  CROSSED:          0  USEFUL:          0  USELESS:          0
cpu0_DTLB AVERAGE iMISS LATENCY: 0 cycles
cpu0_DTLB AVERAGE dMISS LATENCY: 10.9094 cycles
cpu0_DTLB AVERAGE itMISS LATENCY: 0 cycles
cpu0_DTLB AVERAGE dtMISS LATENCY: 0 cycles
cpu0_DTLB PAGE CROSSINGS (TLB HIT):         0 
cpu0_DTLB PAGE CROSSINGS (TLB MISS):         0 
cpu0_DTLB AVERAGE MISS LATENCY: 10.9094 cycles
cpu0_STLB TOTAL       ACCESS:    1622226  HIT:    1480237  MISS:     141989  iACCESS:     380817  iHIT:     372044  iMISS:       8773  dACCESS:    1241409  dHIT:    1108193  dMISS:     133216  itACCESS:          0  itHIT:          0  itMISS:          0  dtACCESS:          0  dtHIT:          0  dtMISS:          0
cpu0_STLB LOAD         ACCESS:    1622226  HIT:    1480237  MISS:     141989  iACCESS:     380817  iHIT:     372044  iMISS:       8773  dACCESS:    1241409  dHIT:    1108193  dMISS:     133216  itACCESS:          0  itHIT:          0  itMISS:          0  dtACCESS:          0  dtHIT:          0  dtMISS:          0
cpu0_STLB RFO          ACCESS:          0  HIT:          0  MISS:          0  iACCESS:          0  iHIT:          0  iMISS:          0  dACCESS:          0  dHIT:          0  dMISS:          0  itACCESS:          0  itHIT:          0  itMISS:          0  dtACCESS:          0  dtHIT:          0  dtMISS:          0
cpu0_STLB PREFETCH     ACCESS:          0  HIT:          0  MISS:          0  iACCESS:          0  iHIT:          0  iMISS:          0  dACCESS:          0  dHIT:          0  dMISS:          0  itACCESS:          0  itHIT:          0  itMISS:          0  dtACCESS:          0  dtHIT:          0  dtMISS:          0
cpu0_STLB WRITE        ACCESS:          0  HIT:          0  MISS:          0  iACCESS:          0  iHIT:          0  iMISS:          0  dACCESS:          0  dHIT:          0  dMISS:          0  itACCESS:          0  itHIT:          0  itMISS:          0  dtACCESS:          0  dtHIT:          0  dtMISS:          0
cpu0_STLB TRANSLATION  ACCESS:          0  HIT:          0  MISS:          0  iACCESS:          0  iHIT:          0  iMISS:          0  dACCESS:          0  dHIT:          0  dMISS:          0  itACCESS:          0  itHIT:          0  itMISS:          0  dtACCESS:          0  dtHIT:          0  dtMISS:          0
cpu0_STLB PREFETCH  REQUESTED:          0  ISSUED:          0  CROSSED:          0  USEFUL:          0  USELESS:          0
cpu0_STLB AVERAGE iMISS LATENCY: 6.15401 cycles
cpu0_STLB AVERAGE dMISS LATENCY: 89.7144 cycles
cpu0_STLB AVERAGE itMISS LATENCY: 0 cycles
cpu0_STLB AVERAGE dtMISS LATENCY: 0 cycles
cpu0_STLB PAGE CROSSINGS (TLB HIT):         0 
cpu0_STLB PAGE CROSSINGS (TLB MISS):         0 
cpu0_STLB AVERAGE MISS LATENCY: 95.8684 cycles
cpu0_L1D TOTAL       ACCESS:   41530381  HIT:   38142443  MISS:    3387938  iACCESS:          0  iHIT:          0  iMISS:          0  dACCESS:   41323725  dHIT:   38129643  dMISS:    3194082  itACCESS:      10477  itHIT:       1150  itMISS:       9327  dtACCESS:     196179  dtHIT:      11650  dtMISS:     184529
cpu0_L1D LOAD         ACCESS:   18940837  HIT:   17479271  MISS:    1461566  iACCESS:          0  iHIT:          0  iMISS:          0  dACCESS:   18940837  dHIT:   17479271  dMISS:    1461566  itACCESS:          0  itHIT:          0  itMISS:          0  dtACCESS:          0  dtHIT:          0  dtMISS:          0
cpu0_L1D RFO          ACCESS:          0  HIT:          0  MISS:          0  iACCESS:          0  iHIT:          0  iMISS:          0  dACCESS:          0  dHIT:          0  dMISS:          0  itACCESS:          0  itHIT:          0  itMISS:          0  dtACCESS:          0  dtHIT:          0  dtMISS:          0
cpu0_L1D PREFETCH     ACCESS:   12197502  HIT:   10880085  MISS:    1317417  iACCESS:          0  iHIT:          0  iMISS:          0  dACCESS:   12197502  dHIT:   10880085  dMISS:    1317417  itACCESS:          0  itHIT:          0  itMISS:          0  dtACCESS:          0  dtHIT:          0  dtMISS:          0
cpu0_L1D WRITE        ACCESS:   10185386  HIT:    9770287  MISS:     415099  iACCESS:          0  iHIT:          0  iMISS:          0  dACCESS:   10185386  dHIT:    9770287  dMISS:     415099  itACCESS:          0  itHIT:          0  itMISS:          0  dtACCESS:          0  dtHIT:          0  dtMISS:          0
cpu0_L1D TRANSLATION  ACCESS:     206656  HIT:      12800  MISS:     193856  iACCESS:          0  iHIT:          0  iMISS:          0  dACCESS:          0  dHIT:          0  dMISS:          0  itACCESS:      10477  itHIT:       1150  itMISS:       9327  dtACCESS:     196179  dtHIT:      11650  dtMISS:     184529
cpu0_L1D PREFETCH  REQUESTED:   18940837  ISSUED:   17080136  CROSSED:          0  USEFUL:     307857  USELESS:     698179
cpu0_L1D AVERAGE iMISS LATENCY: 0 cycles
cpu0_L1D AVERAGE dMISS LATENCY: 33.5687 cycles
cpu0_L1D AVERAGE itMISS LATENCY: 0.229217 cycles
cpu0_L1D AVERAGE dtMISS LATENCY: 2.99862 cycles
cpu0_L1D PAGE CROSSINGS (TLB HIT):         0 
cpu0_L1D PAGE CROSSINGS (TLB MISS):         0 
cpu0_L1D AVERAGE MISS LATENCY: 36.7965 cycles
cpu0_L2C TOTAL       ACCESS:    6968940  HIT:    1663886  MISS:    5305054  iACCESS:    3305668  iHIT:     859572  iMISS:    2446096  dACCESS:    3475935  dHIT:     704344  dMISS:    2771591  itACCESS:       9327  itHIT:       4331  itMISS:       4996  dtACCESS:     178010  dtHIT:      95639  dtMISS:      82371
cpu0_L2C LOAD         ACCESS:    1702525  HIT:     291038  MISS:    1411487  iACCESS:     777933  iHIT:     140283  iMISS:     637650  dACCESS:     924592  dHIT:     150755  dMISS:     773837  itACCESS:          0  itHIT:          0  itMISS:          0  dtACCESS:          0  dtHIT:          0  dtMISS:          0
cpu0_L2C RFO          ACCESS:     158147  HIT:      51142  MISS:     107005  iACCESS:          0  iHIT:          0  iMISS:          0  dACCESS:     158147  dHIT:      51142  dMISS:     107005  itACCESS:          0  itHIT:          0  itMISS:          0  dtACCESS:          0  dtHIT:          0  dtMISS:          0
cpu0_L2C PREFETCH     ACCESS:    4641215  HIT:    1089026  MISS:    3552189  iACCESS:    2527735  iHIT:     719289  iMISS:    1808446  dACCESS:    2113480  dHIT:     369737  dMISS:    1743743  itACCESS:          0  itHIT:          0  itMISS:          0  dtACCESS:          0  dtHIT:          0  dtMISS:          0
cpu0_L2C WRITE        ACCESS:     279716  HIT:     132710  MISS:     147006  iACCESS:          0  iHIT:          0  iMISS:          0  dACCESS:     279716  dHIT:     132710  dMISS:     147006  itACCESS:          0  itHIT:          0  itMISS:          0  dtACCESS:          0  dtHIT:          0  dtMISS:          0
cpu0_L2C TRANSLATION  ACCESS:     187337  HIT:      99970  MISS:      87367  iACCESS:          0  iHIT:          0  iMISS:          0  dACCESS:          0  dHIT:          0  dMISS:          0  itACCESS:       9327  itHIT:       4331  itMISS:       4996  dtACCESS:     178010  dtHIT:      95639  dtMISS:      82371
cpu0_L2C PREFETCH  REQUESTED:    1367871  ISSUED:    1367871  CROSSED:          0  USEFUL:     410420  USELESS:     370367
cpu0_L2C AVERAGE iMISS LATENCY: 14.8317 cycles
cpu0_L2C AVERAGE dMISS LATENCY: 24.6611 cycles
cpu0_L2C AVERAGE itMISS LATENCY: 0.129554 cycles
cpu0_L2C AVERAGE dtMISS LATENCY: 1.59557 cycles
cpu0_L2C PAGE CROSSINGS (TLB HIT):         0 
cpu0_L2C PAGE CROSSINGS (TLB MISS):         0 
cpu0_L2C AVERAGE MISS LATENCY: 41.2179 cycles
LLC TOTAL       ACCESS:    5188120  HIT:    4416492  MISS:     771628  iACCESS:    2394607  iHIT:    2173237  iMISS:     221370  dACCESS:    2706146  dHIT:    2198157  dMISS:     507989  itACCESS:       4996  itHIT:       1589  itMISS:       3407  dtACCESS:      82371  dtHIT:      43509  dtMISS:      38862
LLC LOAD         ACCESS:    1409594  HIT:    1234584  MISS:     175010  iACCESS:     636272  iHIT:     585959  iMISS:      50313  dACCESS:     773322  dHIT:     648625  dMISS:     124697  itACCESS:          0  itHIT:          0  itMISS:          0  dtACCESS:          0  dtHIT:          0  dtMISS:          0
LLC RFO          ACCESS:     107002  HIT:      72945  MISS:      34057  iACCESS:          0  iHIT:          0  iMISS:          0  dACCESS:     107002  dHIT:      72945  dMISS:      34057  itACCESS:          0  itHIT:          0  itMISS:          0  dtACCESS:          0  dtHIT:          0  dtMISS:          0
LLC PREFETCH     ACCESS:    3449346  HIT:    2937798  MISS:     511548  iACCESS:    1758335  iHIT:    1587278  iMISS:     171057  dACCESS:    1691011  dHIT:    1350520  dMISS:     340491  itACCESS:          0  itHIT:          0  itMISS:          0  dtACCESS:          0  dtHIT:          0  dtMISS:          0
LLC WRITE        ACCESS:     134811  HIT:     126067  MISS:       8744  iACCESS:          0  iHIT:          0  iMISS:          0  dACCESS:     134811  dHIT:     126067  dMISS:       8744  itACCESS:          0  itHIT:          0  itMISS:          0  dtACCESS:          0  dtHIT:          0  dtMISS:          0
LLC TRANSLATION  ACCESS:      87367  HIT:      45098  MISS:      42269  iACCESS:          0  iHIT:          0  iMISS:          0  dACCESS:          0  dHIT:          0  dMISS:          0  itACCESS:       4996  itHIT:       1589  itMISS:       3407  dtACCESS:      82371  dtHIT:      43509  dtMISS:      38862
LLC PREFETCH  REQUESTED:          0  ISSUED:          0  CROSSED:          0  USEFUL:          0  USELESS:          0
LLC AVERAGE iMISS LATENCY: 42.1348 cycles
LLC AVERAGE dMISS LATENCY: 105.143 cycles
LLC AVERAGE itMISS LATENCY: 0.763576 cycles
LLC AVERAGE dtMISS LATENCY: 8.89186 cycles
LLC PAGE CROSSINGS (TLB HIT):         0 
LLC PAGE CROSSINGS (TLB MISS):         0 
LLC AVERAGE MISS LATENCY: 156.934 cycles

PageTableWalker TOTAL       ACCESS:      70661  
PageTableWalker AVERAGE LATENCY: 5.03231 cycles
PageTableWalker TOTAL LATENCY: 355588 cycles

DRAM Statistics
Channel 0
 RQ ROW_BUFFER_HIT:     203548
  ROW_BUFFER_MISS:     559293
 AVG DBUS CONGESTED CYCLE:    3.62923
 WQ ROW_BUFFER_HIT:      14976
  ROW_BUFFER_MISS:      21955  FULL:          0

