last_page:0x200000000000000
VMEM_RES_CAP:0x100000
PAGE_SIZE:4096
LOG2_PAGE_SIZE:12
LOG2_PAGE_TABLE_SIZE:9
page_table_levels:5
WARNING: physical memory size is smaller than virtual memory size
FDiP enabled with aggresivity 16

*** ChampSim Multicore Out-of-Order Simulator ***

Warmup Instructions: 50000000
Simulation Instructions: 100000000
Number of CPUs: 1
Small page size: 4096
Large page size: 2097152

CPU 0 Bimodal branch predictor
Basic BTB sets: 1024 ways: 8 indirect buffer size: 4096 RAS size: 64
Instruction page size distrubution: 0
Loading instruction page size distribution from /home/bsc/bsc018186/scratch/itp_asplos25_AE/dump/srv21_ap.pdst
Data page size distrubution: 0
Loading data page size distribution from /home/bsc/bsc018186/scratch/itp_asplos25_AE/dump/srv21_ap.pdst
cpu0_L2C IP-based stride prefetcher
cpu0_L2C is using xPTP/LRU
	TLB_LOWER_STRESS_THRESHOLD:1
	TLB_UPPER_STRESS_THRESHOLD:9
	MIN_EVICTION_POSITION:4
cpu0_L1D next line prefetcher
cpu0_STLB using iTP with max lru@8
cpu0_STLB using iTP with instr@0 and data@2
Init sat counter with 3 bits (max:50).
cpu0_L1I next line prefetcher
Off-chip DRAM Size: 4 GiB Channels: 1 Width: 64-bit Data Rate: 3200 MT/s
Heartbeat CPU 0 instructions: 10000003 cycles: 2500321 heartbeat IPC: 3.99949 cumulative IPC: 3.99949 (Simulation time: 0 hr 0 min 42 sec) 
Heartbeat CPU 0 instructions: 20000000 cycles: 5459198 heartbeat IPC: 3.37966 cumulative IPC: 3.66355 (Simulation time: 0 hr 1 min 27 sec) 
Heartbeat CPU 0 instructions: 30000003 cycles: 8114906 heartbeat IPC: 3.76548 cumulative IPC: 3.69691 (Simulation time: 0 hr 2 min 12 sec) 
Heartbeat CPU 0 instructions: 40000002 cycles: 10614933 heartbeat IPC: 3.99996 cumulative IPC: 3.76828 (Simulation time: 0 hr 2 min 54 sec) 
Heartbeat CPU 0 instructions: 50000003 cycles: 13114948 heartbeat IPC: 3.99998 cumulative IPC: 3.81245 (Simulation time: 0 hr 3 min 36 sec) 
Warmup finished CPU 0 instructions: 50000003 cycles: 13114949 cumulative IPC: 3.81245 (Simulation time: 0 hr 3 min 36 sec) 

Warmup complete CPU 0 instructions: 50000003 cycles: 13114949 (Simulation time: 0 hr 3 min 36 sec) 

Heartbeat CPU 0 instructions: 60000002 cycles: 31439389 heartbeat IPC: 0.54572 cumulative IPC: 0.54572 (Simulation time: 0 hr 4 min 52 sec) 
Heartbeat CPU 0 instructions: 70000000 cycles: 49440141 heartbeat IPC: 0.555533 cumulative IPC: 0.550583 (Simulation time: 0 hr 6 min 4 sec) 
Heartbeat CPU 0 instructions: 80000004 cycles: 67925035 heartbeat IPC: 0.540983 cumulative IPC: 0.547345 (Simulation time: 0 hr 7 min 18 sec) 
Heartbeat CPU 0 instructions: 90000001 cycles: 85313490 heartbeat IPC: 0.575095 cumulative IPC: 0.554028 (Simulation time: 0 hr 8 min 26 sec) 
Heartbeat CPU 0 instructions: 100000002 cycles: 103383669 heartbeat IPC: 0.553399 cumulative IPC: 0.553902 (Simulation time: 0 hr 9 min 35 sec) 
*** Reached end of trace: /gpfs/projects/bsc18/MN4/bsc18/romol/ChampSim/traces/qualcomm_srv/srv21_ap.champsimtrace.xz
Heartbeat CPU 0 instructions: 110000004 cycles: 121769399 heartbeat IPC: 0.543901 cumulative IPC: 0.55221 (Simulation time: 0 hr 10 min 45 sec) 
Heartbeat CPU 0 instructions: 120000003 cycles: 134506509 heartbeat IPC: 0.785108 cumulative IPC: 0.576647 (Simulation time: 0 hr 11 min 49 sec) 
Heartbeat CPU 0 instructions: 130000000 cycles: 146276133 heartbeat IPC: 0.849645 cumulative IPC: 0.600776 (Simulation time: 0 hr 12 min 52 sec) 
Heartbeat CPU 0 instructions: 140000000 cycles: 164789131 heartbeat IPC: 0.540162 cumulative IPC: 0.593378 (Simulation time: 0 hr 14 min 1 sec) 
Heartbeat CPU 0 instructions: 150000000 cycles: 182199526 heartbeat IPC: 0.57437 cumulative IPC: 0.59142 (Simulation time: 0 hr 15 min 10 sec) 
Simulation finished CPU 0 instructions: 100000001 cycles: 169084579 cumulative IPC: 0.59142 (Simulation time: 0 hr 15 min 10 sec) 

Simulation complete CPU 0 instructions: 100000001 cycles: 169084579 (Simulation time: 0 hr 15 min 10 sec) 


ChampSim completed all CPUs

Saving instructions large page distribution to /home/bsc/bsc018186/scratch/itp_asplos25_AE/dump/srv21_ap.pdst...
Saving data large page distribution to /home/bsc/bsc018186/scratch/itp_asplos25_AE/dump/srv21_ap.pdst...
=== Simulation ===
CPU 0 runs /gpfs/projects/bsc18/MN4/bsc18/romol/ChampSim/traces/qualcomm_srv/srv21_ap.champsimtrace.xz

Region of Interest Statistics

CPU 0 cumulative IPC: 0.59142 instructions: 100000001 cycles: 169084579
CPU 0 Branch Prediction Accuracy: 82.7117% MPKI: 33.4932 Average ROB Occupancy at Mispredict: 11.5116
Branch type MPKI
BRANCH_DIRECT_JUMP: 1.22764
BRANCH_INDIRECT: 16.8543
BRANCH_CONDITIONAL: 10.7433
BRANCH_DIRECT_CALL: 2.31866
BRANCH_INDIRECT_CALL: 0.71183
BRANCH_RETURN: 1.63758

Instructions large pages: 0
Instructions small pages: 1397
Large page distribution for instructions: 0%

Data large pages: 0
Data small pages: 5144
Large page distribution for data: 0%

cpu0_L1I TOTAL       ACCESS:   34807174  HIT:   27482766  MISS:    7324408  iACCESS:   34807174  iHIT:   27482766  iMISS:    7324408  dACCESS:          0  dHIT:          0  dMISS:          0  itACCESS:          0  itHIT:          0  itMISS:          0  dtACCESS:          0  dtHIT:          0  dtMISS:          0
cpu0_L1I LOAD         ACCESS:    9198391  HIT:    7189223  MISS:    2009168  iACCESS:    9198391  iHIT:    7189223  iMISS:    2009168  dACCESS:          0  dHIT:          0  dMISS:          0  itACCESS:          0  itHIT:          0  itMISS:          0  dtACCESS:          0  dtHIT:          0  dtMISS:          0
cpu0_L1I RFO          ACCESS:          0  HIT:          0  MISS:          0  iACCESS:          0  iHIT:          0  iMISS:          0  dACCESS:          0  dHIT:          0  dMISS:          0  itACCESS:          0  itHIT:          0  itMISS:          0  dtACCESS:          0  dtHIT:          0  dtMISS:          0
cpu0_L1I PREFETCH     ACCESS:   25608783  HIT:   20293543  MISS:    5315240  iACCESS:   25608783  iHIT:   20293543  iMISS:    5315240  dACCESS:          0  dHIT:          0  dMISS:          0  itACCESS:          0  itHIT:          0  itMISS:          0  dtACCESS:          0  dtHIT:          0  dtMISS:          0
cpu0_L1I WRITE        ACCESS:          0  HIT:          0  MISS:          0  iACCESS:          0  iHIT:          0  iMISS:          0  dACCESS:          0  dHIT:          0  dMISS:          0  itACCESS:          0  itHIT:          0  itMISS:          0  dtACCESS:          0  dtHIT:          0  dtMISS:          0
cpu0_L1I TRANSLATION  ACCESS:          0  HIT:          0  MISS:          0  iACCESS:          0  iHIT:          0  iMISS:          0  dACCESS:          0  dHIT:          0  dMISS:          0  itACCESS:          0  itHIT:          0  itMISS:          0  dtACCESS:          0  dtHIT:          0  dtMISS:          0
cpu0_L1I PREFETCH  REQUESTED:   27594153  ISSUED:   27593939  CROSSED:          0  USEFUL:    1786521  USELESS:     601207
cpu0_L1I AVERAGE iMISS LATENCY: 17.4536 cycles
cpu0_L1I AVERAGE dMISS LATENCY: 0 cycles
cpu0_L1I AVERAGE itMISS LATENCY: 0 cycles
cpu0_L1I AVERAGE dtMISS LATENCY: 0 cycles
cpu0_L1I PAGE CROSSINGS (TLB HIT):         0 
cpu0_L1I PAGE CROSSINGS (TLB MISS):         0 
cpu0_L1I AVERAGE MISS LATENCY: 17.4536 cycles
cpu0_ITLB TOTAL       ACCESS:   29386398  HIT:   27637898  MISS:    1748500  iACCESS:   29386398  iHIT:   27637898  iMISS:    1748500  dACCESS:          0  dHIT:          0  dMISS:          0  itACCESS:          0  itHIT:          0  itMISS:          0  dtACCESS:          0  dtHIT:          0  dtMISS:          0
cpu0_ITLB LOAD         ACCESS:   29386398  HIT:   27637898  MISS:    1748500  iACCESS:   29386398  iHIT:   27637898  iMISS:    1748500  dACCESS:          0  dHIT:          0  dMISS:          0  itACCESS:          0  itHIT:          0  itMISS:          0  dtACCESS:          0  dtHIT:          0  dtMISS:          0
cpu0_ITLB RFO          ACCESS:          0  HIT:          0  MISS:          0  iACCESS:          0  iHIT:          0  iMISS:          0  dACCESS:          0  dHIT:          0  dMISS:          0  itACCESS:          0  itHIT:          0  itMISS:          0  dtACCESS:          0  dtHIT:          0  dtMISS:          0
cpu0_ITLB PREFETCH     ACCESS:          0  HIT:          0  MISS:          0  iACCESS:          0  iHIT:          0  iMISS:          0  dACCESS:          0  dHIT:          0  dMISS:          0  itACCESS:          0  itHIT:          0  itMISS:          0  dtACCESS:          0  dtHIT:          0  dtMISS:          0
cpu0_ITLB WRITE        ACCESS:          0  HIT:          0  MISS:          0  iACCESS:          0  iHIT:          0  iMISS:          0  dACCESS:          0  dHIT:          0  dMISS:          0  itACCESS:          0  itHIT:          0  itMISS:          0  dtACCESS:          0  dtHIT:          0  dtMISS:          0
cpu0_ITLB TRANSLATION  ACCESS:          0  HIT:          0  MISS:          0  iACCESS:          0  iHIT:          0  iMISS:          0  dACCESS:          0  dHIT:          0  dMISS:          0  itACCESS:          0  itHIT:          0  itMISS:          0  dtACCESS:          0  dtHIT:          0  dtMISS:          0
cpu0_ITLB PREFETCH  REQUESTED:          0  ISSUED:          0  CROSSED:          0  USEFUL:     300444  USELESS:      56424
cpu0_ITLB AVERAGE iMISS LATENCY: 3.00325 cycles
cpu0_ITLB AVERAGE dMISS LATENCY: 0 cycles
cpu0_ITLB AVERAGE itMISS LATENCY: 0 cycles
cpu0_ITLB AVERAGE dtMISS LATENCY: 0 cycles
cpu0_ITLB PAGE CROSSINGS (TLB HIT):         0 
cpu0_ITLB PAGE CROSSINGS (TLB MISS):         0 
cpu0_ITLB AVERAGE MISS LATENCY: 3.00325 cycles
cpu0_DTLB TOTAL       ACCESS:   29871927  HIT:   25729043  MISS:    4142884  iACCESS:          0  iHIT:          0  iMISS:          0  dACCESS:   29871927  dHIT:   25729043  dMISS:    4142884  itACCESS:          0  itHIT:          0  itMISS:          0  dtACCESS:          0  dtHIT:          0  dtMISS:          0
cpu0_DTLB LOAD         ACCESS:   29871927  HIT:   25729043  MISS:    4142884  iACCESS:          0  iHIT:          0  iMISS:          0  dACCESS:   29871927  dHIT:   25729043  dMISS:    4142884  itACCESS:          0  itHIT:          0  itMISS:          0  dtACCESS:          0  dtHIT:          0  dtMISS:          0
cpu0_DTLB RFO          ACCESS:          0  HIT:          0  MISS:          0  iACCESS:          0  iHIT:          0  iMISS:          0  dACCESS:          0  dHIT:          0  dMISS:          0  itACCESS:          0  itHIT:          0  itMISS:          0  dtACCESS:          0  dtHIT:          0  dtMISS:          0
cpu0_DTLB PREFETCH     ACCESS:          0  HIT:          0  MISS:          0  iACCESS:          0  iHIT:          0  iMISS:          0  dACCESS:          0  dHIT:          0  dMISS:          0  itACCESS:          0  itHIT:          0  itMISS:          0  dtACCESS:          0  dtHIT:          0  dtMISS:          0
cpu0_DTLB WRITE        ACCESS:          0  HIT:          0  MISS:          0  iACCESS:          0  iHIT:          0  iMISS:          0  dACCESS:          0  dHIT:          0  dMISS:          0  itACCESS:          0  itHIT:          0  itMISS:          0  dtACCESS:          0  dtHIT:          0  dtMISS:          0
cpu0_DTLB TRANSLATION  ACCESS:          0  HIT:          0  MISS:          0  iACCESS:          0  iHIT:          0  iMISS:          0  dACCESS:          0  dHIT:          0  dMISS:          0  itACCESS:          0  itHIT:          0  itMISS:          0  dtACCESS:          0  dtHIT:          0  dtMISS:          0
cpu0_DTLB PREFETCH  REQUESTED:          0  ISSUED:          0  CROSSED:          0  USEFUL:          0  USELESS:          0
cpu0_DTLB AVERAGE iMISS LATENCY: 0 cycles
cpu0_DTLB AVERAGE dMISS LATENCY: 8.08609 cycles
cpu0_DTLB AVERAGE itMISS LATENCY: 0 cycles
cpu0_DTLB AVERAGE dtMISS LATENCY: 0 cycles
cpu0_DTLB PAGE CROSSINGS (TLB HIT):         0 
cpu0_DTLB PAGE CROSSINGS (TLB MISS):         0 
cpu0_DTLB AVERAGE MISS LATENCY: 8.08609 cycles
cpu0_STLB TOTAL       ACCESS:    2628000  HIT:    2429861  MISS:     198139  iACCESS:     356873  iHIT:     333500  iMISS:      23373  dACCESS:    2271127  dHIT:    2096361  dMISS:     174766  itACCESS:          0  itHIT:          0  itMISS:          0  dtACCESS:          0  dtHIT:          0  dtMISS:          0
cpu0_STLB LOAD         ACCESS:    2628000  HIT:    2429861  MISS:     198139  iACCESS:     356873  iHIT:     333500  iMISS:      23373  dACCESS:    2271127  dHIT:    2096361  dMISS:     174766  itACCESS:          0  itHIT:          0  itMISS:          0  dtACCESS:          0  dtHIT:          0  dtMISS:          0
cpu0_STLB RFO          ACCESS:          0  HIT:          0  MISS:          0  iACCESS:          0  iHIT:          0  iMISS:          0  dACCESS:          0  dHIT:          0  dMISS:          0  itACCESS:          0  itHIT:          0  itMISS:          0  dtACCESS:          0  dtHIT:          0  dtMISS:          0
cpu0_STLB PREFETCH     ACCESS:          0  HIT:          0  MISS:          0  iACCESS:          0  iHIT:          0  iMISS:          0  dACCESS:          0  dHIT:          0  dMISS:          0  itACCESS:          0  itHIT:          0  itMISS:          0  dtACCESS:          0  dtHIT:          0  dtMISS:          0
cpu0_STLB WRITE        ACCESS:          0  HIT:          0  MISS:          0  iACCESS:          0  iHIT:          0  iMISS:          0  dACCESS:          0  dHIT:          0  dMISS:          0  itACCESS:          0  itHIT:          0  itMISS:          0  dtACCESS:          0  dtHIT:          0  dtMISS:          0
cpu0_STLB TRANSLATION  ACCESS:          0  HIT:          0  MISS:          0  iACCESS:          0  iHIT:          0  iMISS:          0  dACCESS:          0  dHIT:          0  dMISS:          0  itACCESS:          0  itHIT:          0  itMISS:          0  dtACCESS:          0  dtHIT:          0  dtMISS:          0
cpu0_STLB PREFETCH  REQUESTED:          0  ISSUED:          0  CROSSED:          0  USEFUL:          0  USELESS:          0
cpu0_STLB AVERAGE iMISS LATENCY: 12.4413 cycles
cpu0_STLB AVERAGE dMISS LATENCY: 76.1516 cycles
cpu0_STLB AVERAGE itMISS LATENCY: 0 cycles
cpu0_STLB AVERAGE dtMISS LATENCY: 0 cycles
cpu0_STLB PAGE CROSSINGS (TLB HIT):         0 
cpu0_STLB PAGE CROSSINGS (TLB MISS):         0 
cpu0_STLB AVERAGE MISS LATENCY: 88.5928 cycles
cpu0_L1D TOTAL       ACCESS:   46654281  HIT:   39091452  MISS:    7562829  iACCESS:          0  iHIT:          0  iMISS:          0  dACCESS:   46389191  dHIT:   39073870  dMISS:    7315321  itACCESS:      26871  itHIT:       2205  itMISS:      24666  dtACCESS:     238219  dtHIT:      15377  dtMISS:     222842
cpu0_L1D LOAD         ACCESS:   22516857  HIT:   18222952  MISS:    4293905  iACCESS:          0  iHIT:          0  iMISS:          0  dACCESS:   22516857  dHIT:   18222952  dMISS:    4293905  itACCESS:          0  itHIT:          0  itMISS:          0  dtACCESS:          0  dtHIT:          0  dtMISS:          0
cpu0_L1D RFO          ACCESS:          0  HIT:          0  MISS:          0  iACCESS:          0  iHIT:          0  iMISS:          0  dACCESS:          0  dHIT:          0  dMISS:          0  itACCESS:          0  itHIT:          0  itMISS:          0  dtACCESS:          0  dtHIT:          0  dtMISS:          0
cpu0_L1D PREFETCH     ACCESS:   14019839  HIT:   11468463  MISS:    2551376  iACCESS:          0  iHIT:          0  iMISS:          0  dACCESS:   14019839  dHIT:   11468463  dMISS:    2551376  itACCESS:          0  itHIT:          0  itMISS:          0  dtACCESS:          0  dtHIT:          0  dtMISS:          0
cpu0_L1D WRITE        ACCESS:    9852495  HIT:    9382455  MISS:     470040  iACCESS:          0  iHIT:          0  iMISS:          0  dACCESS:    9852495  dHIT:    9382455  dMISS:     470040  itACCESS:          0  itHIT:          0  itMISS:          0  dtACCESS:          0  dtHIT:          0  dtMISS:          0
cpu0_L1D TRANSLATION  ACCESS:     265090  HIT:      17582  MISS:     247508  iACCESS:          0  iHIT:          0  iMISS:          0  dACCESS:          0  dHIT:          0  dMISS:          0  itACCESS:      26871  itHIT:       2205  itMISS:      24666  dtACCESS:     238219  dtHIT:      15377  dtMISS:     222842
cpu0_L1D PREFETCH  REQUESTED:   22516857  ISSUED:   17678980  CROSSED:          0  USEFUL:     278361  USELESS:     692920
cpu0_L1D AVERAGE iMISS LATENCY: 0 cycles
cpu0_L1D AVERAGE dMISS LATENCY: 23.4962 cycles
cpu0_L1D AVERAGE itMISS LATENCY: 0.295974 cycles
cpu0_L1D AVERAGE dtMISS LATENCY: 1.70153 cycles
cpu0_L1D PAGE CROSSINGS (TLB HIT):         0 
cpu0_L1D PAGE CROSSINGS (TLB MISS):         0 
cpu0_L1D AVERAGE MISS LATENCY: 25.4937 cycles
cpu0_L2C TOTAL       ACCESS:    8257518  HIT:    2759262  MISS:    5498256  iACCESS:    3046126  iHIT:    1207426  iMISS:    1838700  dACCESS:    4968398  dHIT:    1389962  dMISS:    3578436  itACCESS:      24485  itHIT:      10752  itMISS:      13733  dtACCESS:     218509  dtHIT:     151122  dtMISS:      67387
cpu0_L2C LOAD         ACCESS:    3144645  HIT:     963338  MISS:    2181307  iACCESS:     691101  iHIT:     251769  iMISS:     439332  dACCESS:    2453544  dHIT:     711569  dMISS:    1741975  itACCESS:          0  itHIT:          0  itMISS:          0  dtACCESS:          0  dtHIT:          0  dtMISS:          0
cpu0_L2C RFO          ACCESS:     171427  HIT:      31611  MISS:     139816  iACCESS:          0  iHIT:          0  iMISS:          0  dACCESS:     171427  dHIT:      31611  dMISS:     139816  itACCESS:          0  itHIT:          0  itMISS:          0  dtACCESS:          0  dtHIT:          0  dtMISS:          0
cpu0_L2C PREFETCH     ACCESS:    4451921  HIT:    1501068  MISS:    2950853  iACCESS:    2355025  iHIT:     955657  iMISS:    1399368  dACCESS:    2096896  dHIT:     545411  dMISS:    1551485  itACCESS:          0  itHIT:          0  itMISS:          0  dtACCESS:          0  dtHIT:          0  dtMISS:          0
cpu0_L2C WRITE        ACCESS:     246531  HIT:     101371  MISS:     145160  iACCESS:          0  iHIT:          0  iMISS:          0  dACCESS:     246531  dHIT:     101371  dMISS:     145160  itACCESS:          0  itHIT:          0  itMISS:          0  dtACCESS:          0  dtHIT:          0  dtMISS:          0
cpu0_L2C TRANSLATION  ACCESS:     242994  HIT:     161874  MISS:      81120  iACCESS:          0  iHIT:          0  iMISS:          0  dACCESS:          0  dHIT:          0  dMISS:          0  itACCESS:      24485  itHIT:      10752  itMISS:      13733  dtACCESS:     218509  dtHIT:     151122  dtMISS:      67387
cpu0_L2C PREFETCH  REQUESTED:    1351418  ISSUED:    1351408  CROSSED:          0  USEFUL:     329668  USELESS:     362931
cpu0_L2C AVERAGE iMISS LATENCY: 18.3083 cycles
cpu0_L2C AVERAGE dMISS LATENCY: 35.4117 cycles
cpu0_L2C AVERAGE itMISS LATENCY: 0.364373 cycles
cpu0_L2C AVERAGE dtMISS LATENCY: 1.96888 cycles
cpu0_L2C PAGE CROSSINGS (TLB HIT):         0 
cpu0_L2C PAGE CROSSINGS (TLB MISS):         0 
cpu0_L2C AVERAGE MISS LATENCY: 56.0532 cycles
LLC TOTAL       ACCESS:    5371839  HIT:    4054164  MISS:    1317675  iACCESS:    1773211  iHIT:    1322757  iMISS:     450454  dACCESS:    3517508  dHIT:    2711862  dMISS:     805646  itACCESS:      13733  itHIT:       3858  itMISS:       9875  dtACCESS:      67387  dtHIT:      15687  dtMISS:      51700
LLC LOAD         ACCESS:    2175498  HIT:    1882035  MISS:     293463  iACCESS:     438218  iHIT:     346105  iMISS:      92113  dACCESS:    1737280  dHIT:    1535930  dMISS:     201350  itACCESS:          0  itHIT:          0  itMISS:          0  dtACCESS:          0  dtHIT:          0  dtMISS:          0
LLC RFO          ACCESS:     139814  HIT:      82631  MISS:      57183  iACCESS:          0  iHIT:          0  iMISS:          0  dACCESS:     139814  dHIT:      82631  dMISS:      57183  itACCESS:          0  itHIT:          0  itMISS:          0  dtACCESS:          0  dtHIT:          0  dtMISS:          0
LLC PREFETCH     ACCESS:    2790898  HIT:    1888684  MISS:     902214  iACCESS:    1334993  iHIT:     976652  iMISS:     358341  dACCESS:    1455905  dHIT:     912032  dMISS:     543873  itACCESS:          0  itHIT:          0  itMISS:          0  dtACCESS:          0  dtHIT:          0  dtMISS:          0
LLC WRITE        ACCESS:     184509  HIT:     181269  MISS:       3240  iACCESS:          0  iHIT:          0  iMISS:          0  dACCESS:     184509  dHIT:     181269  dMISS:       3240  itACCESS:          0  itHIT:          0  itMISS:          0  dtACCESS:          0  dtHIT:          0  dtMISS:          0
LLC TRANSLATION  ACCESS:      81120  HIT:      19545  MISS:      61575  iACCESS:          0  iHIT:          0  iMISS:          0  dACCESS:          0  dHIT:          0  dMISS:          0  itACCESS:      13733  itHIT:       3858  itMISS:       9875  dtACCESS:      67387  dtHIT:      15687  dtMISS:      51700
LLC PREFETCH  REQUESTED:          0  ISSUED:          0  CROSSED:          0  USEFUL:          0  USELESS:          0
LLC AVERAGE iMISS LATENCY: 50.3306 cycles
LLC AVERAGE dMISS LATENCY: 99.326 cycles
LLC AVERAGE itMISS LATENCY: 1.31556 cycles
LLC AVERAGE dtMISS LATENCY: 7.2075 cycles
LLC PAGE CROSSINGS (TLB HIT):         0 
LLC PAGE CROSSINGS (TLB MISS):         0 
LLC AVERAGE MISS LATENCY: 158.18 cycles

PageTableWalker TOTAL       ACCESS:      85929  
PageTableWalker AVERAGE LATENCY: 4.31969 cycles
PageTableWalker TOTAL LATENCY: 371186 cycles

DRAM Statistics
Channel 0
 RQ ROW_BUFFER_HIT:     380358
  ROW_BUFFER_MISS:     925132
 AVG DBUS CONGESTED CYCLE:     3.6374
 WQ ROW_BUFFER_HIT:      33307
  ROW_BUFFER_MISS:      30672  FULL:          0

