last_page:0x200000000000000
VMEM_RES_CAP:0x100000
PAGE_SIZE:4096
LOG2_PAGE_SIZE:12
LOG2_PAGE_TABLE_SIZE:9
page_table_levels:5
WARNING: physical memory size is smaller than virtual memory size
FDiP enabled with aggresivity 16

*** ChampSim Multicore Out-of-Order Simulator ***

Warmup Instructions: 50000000
Simulation Instructions: 100000000
Number of CPUs: 1
Small page size: 4096
Large page size: 2097152

CPU 0 Bimodal branch predictor
Basic BTB sets: 1024 ways: 8 indirect buffer size: 4096 RAS size: 64
Instruction page size distrubution: 0
Loading instruction page size distribution from /home/bsc/bsc018186/scratch/itp_asplos25_AE/dump/srv21_ap.pdst
Data page size distrubution: 0
Loading data page size distribution from /home/bsc/bsc018186/scratch/itp_asplos25_AE/dump/srv21_ap.pdst
cpu0_L2C IP-based stride prefetcher
cpu0_L2C is using PTP replacement policy:
	TLB_STRESS_THRESHOLD:0
	PTE_EVICTION_RATIO:0
cpu0_L1D next line prefetcher
cpu0_L1I next line prefetcher
Off-chip DRAM Size: 4 GiB Channels: 1 Width: 64-bit Data Rate: 3200 MT/s
Heartbeat CPU 0 instructions: 10000003 cycles: 2500348 heartbeat IPC: 3.99945 cumulative IPC: 3.99945 (Simulation time: 0 hr 0 min 38 sec) 
Heartbeat CPU 0 instructions: 20000002 cycles: 5459159 heartbeat IPC: 3.37974 cumulative IPC: 3.66357 (Simulation time: 0 hr 1 min 20 sec) 
Heartbeat CPU 0 instructions: 30000000 cycles: 8114866 heartbeat IPC: 3.76548 cumulative IPC: 3.69692 (Simulation time: 0 hr 2 min 1 sec) 
Heartbeat CPU 0 instructions: 40000000 cycles: 10614905 heartbeat IPC: 3.99994 cumulative IPC: 3.76829 (Simulation time: 0 hr 2 min 42 sec) 
Heartbeat CPU 0 instructions: 50000002 cycles: 13114938 heartbeat IPC: 3.99995 cumulative IPC: 3.81245 (Simulation time: 0 hr 3 min 23 sec) 
Warmup finished CPU 0 instructions: 50000002 cycles: 13114939 cumulative IPC: 3.81245 (Simulation time: 0 hr 3 min 23 sec) 

Warmup complete CPU 0 instructions: 50000002 cycles: 13114939 (Simulation time: 0 hr 3 min 23 sec) 

Heartbeat CPU 0 instructions: 60000002 cycles: 32596349 heartbeat IPC: 0.51331 cumulative IPC: 0.51331 (Simulation time: 0 hr 4 min 33 sec) 
Heartbeat CPU 0 instructions: 70000000 cycles: 51829981 heartbeat IPC: 0.519923 cumulative IPC: 0.516596 (Simulation time: 0 hr 5 min 43 sec) 
Heartbeat CPU 0 instructions: 80000004 cycles: 71383270 heartbeat IPC: 0.511424 cumulative IPC: 0.51486 (Simulation time: 0 hr 6 min 53 sec) 
Heartbeat CPU 0 instructions: 90000001 cycles: 90277370 heartbeat IPC: 0.529266 cumulative IPC: 0.518387 (Simulation time: 0 hr 8 min 3 sec) 
Heartbeat CPU 0 instructions: 100000002 cycles: 110391281 heartbeat IPC: 0.497169 cumulative IPC: 0.514 (Simulation time: 0 hr 9 min 15 sec) 
*** Reached end of trace: /gpfs/projects/bsc18/MN4/bsc18/romol/ChampSim/traces/qualcomm_srv/srv21_ap.champsimtrace.xz
Heartbeat CPU 0 instructions: 110000004 cycles: 131453844 heartbeat IPC: 0.474777 cumulative IPC: 0.507019 (Simulation time: 0 hr 10 min 29 sec) 
Heartbeat CPU 0 instructions: 120000002 cycles: 145147385 heartbeat IPC: 0.730272 cumulative IPC: 0.530173 (Simulation time: 0 hr 11 min 32 sec) 
Heartbeat CPU 0 instructions: 130000000 cycles: 157823713 heartbeat IPC: 0.788872 cumulative IPC: 0.552835 (Simulation time: 0 hr 12 min 33 sec) 
Heartbeat CPU 0 instructions: 140000000 cycles: 179771020 heartbeat IPC: 0.455637 cumulative IPC: 0.540035 (Simulation time: 0 hr 13 min 46 sec) 
Heartbeat CPU 0 instructions: 150000000 cycles: 200545450 heartbeat IPC: 0.481361 cumulative IPC: 0.533532 (Simulation time: 0 hr 14 min 58 sec) 
Simulation finished CPU 0 instructions: 100000002 cycles: 187430513 cumulative IPC: 0.533532 (Simulation time: 0 hr 14 min 58 sec) 

Simulation complete CPU 0 instructions: 100000002 cycles: 187430513 (Simulation time: 0 hr 14 min 58 sec) 


ChampSim completed all CPUs

Saving instructions large page distribution to /home/bsc/bsc018186/scratch/itp_asplos25_AE/dump/srv21_ap.pdst...
Saving data large page distribution to /home/bsc/bsc018186/scratch/itp_asplos25_AE/dump/srv21_ap.pdst...
=== Simulation ===
CPU 0 runs /gpfs/projects/bsc18/MN4/bsc18/romol/ChampSim/traces/qualcomm_srv/srv21_ap.champsimtrace.xz

Region of Interest Statistics

CPU 0 cumulative IPC: 0.533532 instructions: 100000002 cycles: 187430513
CPU 0 Branch Prediction Accuracy: 82.7117% MPKI: 33.4932 Average ROB Occupancy at Mispredict: 11.3883
Branch type MPKI
BRANCH_DIRECT_JUMP: 1.22764
BRANCH_INDIRECT: 16.8543
BRANCH_CONDITIONAL: 10.7433
BRANCH_DIRECT_CALL: 2.31866
BRANCH_INDIRECT_CALL: 0.71183
BRANCH_RETURN: 1.63758

Instructions large pages: 0
Instructions small pages: 1397
Large page distribution for instructions: 0%

Data large pages: 0
Data small pages: 5144
Large page distribution for data: 0%

cpu0_L1I TOTAL       ACCESS:   34876294  HIT:   27436032  MISS:    7440262  iACCESS:   34876294  iHIT:   27436032  iMISS:    7440262  dACCESS:          0  dHIT:          0  dMISS:          0  itACCESS:          0  itHIT:          0  itMISS:          0  dtACCESS:          0  dtHIT:          0  dtMISS:          0
cpu0_L1I LOAD         ACCESS:    9218091  HIT:    7173743  MISS:    2044348  iACCESS:    9218091  iHIT:    7173743  iMISS:    2044348  dACCESS:          0  dHIT:          0  dMISS:          0  itACCESS:          0  itHIT:          0  itMISS:          0  dtACCESS:          0  dtHIT:          0  dtMISS:          0
cpu0_L1I RFO          ACCESS:          0  HIT:          0  MISS:          0  iACCESS:          0  iHIT:          0  iMISS:          0  dACCESS:          0  dHIT:          0  dMISS:          0  itACCESS:          0  itHIT:          0  itMISS:          0  dtACCESS:          0  dtHIT:          0  dtMISS:          0
cpu0_L1I PREFETCH     ACCESS:   25658203  HIT:   20262289  MISS:    5395914  iACCESS:   25658203  iHIT:   20262289  iMISS:    5395914  dACCESS:          0  dHIT:          0  dMISS:          0  itACCESS:          0  itHIT:          0  itMISS:          0  dtACCESS:          0  dtHIT:          0  dtMISS:          0
cpu0_L1I WRITE        ACCESS:          0  HIT:          0  MISS:          0  iACCESS:          0  iHIT:          0  iMISS:          0  dACCESS:          0  dHIT:          0  dMISS:          0  itACCESS:          0  itHIT:          0  itMISS:          0  dtACCESS:          0  dtHIT:          0  dtMISS:          0
cpu0_L1I TRANSLATION  ACCESS:          0  HIT:          0  MISS:          0  iACCESS:          0  iHIT:          0  iMISS:          0  dACCESS:          0  dHIT:          0  dMISS:          0  itACCESS:          0  itHIT:          0  itMISS:          0  dtACCESS:          0  dtHIT:          0  dtMISS:          0
cpu0_L1I PREFETCH  REQUESTED:   27613659  ISSUED:   27612272  CROSSED:          0  USEFUL:    1784361  USELESS:     601019
cpu0_L1I AVERAGE iMISS LATENCY: 20.372 cycles
cpu0_L1I AVERAGE dMISS LATENCY: 0 cycles
cpu0_L1I AVERAGE itMISS LATENCY: 0 cycles
cpu0_L1I AVERAGE dtMISS LATENCY: 0 cycles
cpu0_L1I PAGE CROSSINGS (TLB HIT):         0 
cpu0_L1I PAGE CROSSINGS (TLB MISS):         0 
cpu0_L1I AVERAGE MISS LATENCY: 20.372 cycles
cpu0_ITLB TOTAL       ACCESS:   29404103  HIT:   27649564  MISS:    1754539  iACCESS:   29404103  iHIT:   27649564  iMISS:    1754539  dACCESS:          0  dHIT:          0  dMISS:          0  itACCESS:          0  itHIT:          0  itMISS:          0  dtACCESS:          0  dtHIT:          0  dtMISS:          0
cpu0_ITLB LOAD         ACCESS:   29404103  HIT:   27649564  MISS:    1754539  iACCESS:   29404103  iHIT:   27649564  iMISS:    1754539  dACCESS:          0  dHIT:          0  dMISS:          0  itACCESS:          0  itHIT:          0  itMISS:          0  dtACCESS:          0  dtHIT:          0  dtMISS:          0
cpu0_ITLB RFO          ACCESS:          0  HIT:          0  MISS:          0  iACCESS:          0  iHIT:          0  iMISS:          0  dACCESS:          0  dHIT:          0  dMISS:          0  itACCESS:          0  itHIT:          0  itMISS:          0  dtACCESS:          0  dtHIT:          0  dtMISS:          0
cpu0_ITLB PREFETCH     ACCESS:          0  HIT:          0  MISS:          0  iACCESS:          0  iHIT:          0  iMISS:          0  dACCESS:          0  dHIT:          0  dMISS:          0  itACCESS:          0  itHIT:          0  itMISS:          0  dtACCESS:          0  dtHIT:          0  dtMISS:          0
cpu0_ITLB WRITE        ACCESS:          0  HIT:          0  MISS:          0  iACCESS:          0  iHIT:          0  iMISS:          0  dACCESS:          0  dHIT:          0  dMISS:          0  itACCESS:          0  itHIT:          0  itMISS:          0  dtACCESS:          0  dtHIT:          0  dtMISS:          0
cpu0_ITLB TRANSLATION  ACCESS:          0  HIT:          0  MISS:          0  iACCESS:          0  iHIT:          0  iMISS:          0  dACCESS:          0  dHIT:          0  dMISS:          0  itACCESS:          0  itHIT:          0  itMISS:          0  dtACCESS:          0  dtHIT:          0  dtMISS:          0
cpu0_ITLB PREFETCH  REQUESTED:          0  ISSUED:          0  CROSSED:          0  USEFUL:     300045  USELESS:      56810
cpu0_ITLB AVERAGE iMISS LATENCY: 5.71064 cycles
cpu0_ITLB AVERAGE dMISS LATENCY: 0 cycles
cpu0_ITLB AVERAGE itMISS LATENCY: 0 cycles
cpu0_ITLB AVERAGE dtMISS LATENCY: 0 cycles
cpu0_ITLB PAGE CROSSINGS (TLB HIT):         0 
cpu0_ITLB PAGE CROSSINGS (TLB MISS):         0 
cpu0_ITLB AVERAGE MISS LATENCY: 5.71064 cycles
cpu0_DTLB TOTAL       ACCESS:   29896246  HIT:   25618660  MISS:    4277586  iACCESS:          0  iHIT:          0  iMISS:          0  dACCESS:   29896246  dHIT:   25618660  dMISS:    4277586  itACCESS:          0  itHIT:          0  itMISS:          0  dtACCESS:          0  dtHIT:          0  dtMISS:          0
cpu0_DTLB LOAD         ACCESS:   29896246  HIT:   25618660  MISS:    4277586  iACCESS:          0  iHIT:          0  iMISS:          0  dACCESS:   29896246  dHIT:   25618660  dMISS:    4277586  itACCESS:          0  itHIT:          0  itMISS:          0  dtACCESS:          0  dtHIT:          0  dtMISS:          0
cpu0_DTLB RFO          ACCESS:          0  HIT:          0  MISS:          0  iACCESS:          0  iHIT:          0  iMISS:          0  dACCESS:          0  dHIT:          0  dMISS:          0  itACCESS:          0  itHIT:          0  itMISS:          0  dtACCESS:          0  dtHIT:          0  dtMISS:          0
cpu0_DTLB PREFETCH     ACCESS:          0  HIT:          0  MISS:          0  iACCESS:          0  iHIT:          0  iMISS:          0  dACCESS:          0  dHIT:          0  dMISS:          0  itACCESS:          0  itHIT:          0  itMISS:          0  dtACCESS:          0  dtHIT:          0  dtMISS:          0
cpu0_DTLB WRITE        ACCESS:          0  HIT:          0  MISS:          0  iACCESS:          0  iHIT:          0  iMISS:          0  dACCESS:          0  dHIT:          0  dMISS:          0  itACCESS:          0  itHIT:          0  itMISS:          0  dtACCESS:          0  dtHIT:          0  dtMISS:          0
cpu0_DTLB TRANSLATION  ACCESS:          0  HIT:          0  MISS:          0  iACCESS:          0  iHIT:          0  iMISS:          0  dACCESS:          0  dHIT:          0  dMISS:          0  itACCESS:          0  itHIT:          0  itMISS:          0  dtACCESS:          0  dtHIT:          0  dtMISS:          0
cpu0_DTLB PREFETCH  REQUESTED:          0  ISSUED:          0  CROSSED:          0  USEFUL:          0  USELESS:          0
cpu0_DTLB AVERAGE iMISS LATENCY: 0 cycles
cpu0_DTLB AVERAGE dMISS LATENCY: 8.42205 cycles
cpu0_DTLB AVERAGE itMISS LATENCY: 0 cycles
cpu0_DTLB AVERAGE dtMISS LATENCY: 0 cycles
cpu0_DTLB PAGE CROSSINGS (TLB HIT):         0 
cpu0_DTLB PAGE CROSSINGS (TLB MISS):         0 
cpu0_DTLB AVERAGE MISS LATENCY: 8.42205 cycles
cpu0_STLB TOTAL       ACCESS:    2634644  HIT:    2409991  MISS:     224653  iACCESS:     356868  iHIT:     270745  iMISS:      86123  dACCESS:    2277776  dHIT:    2139246  dMISS:     138530  itACCESS:          0  itHIT:          0  itMISS:          0  dtACCESS:          0  dtHIT:          0  dtMISS:          0
cpu0_STLB LOAD         ACCESS:    2634644  HIT:    2409991  MISS:     224653  iACCESS:     356868  iHIT:     270745  iMISS:      86123  dACCESS:    2277776  dHIT:    2139246  dMISS:     138530  itACCESS:          0  itHIT:          0  itMISS:          0  dtACCESS:          0  dtHIT:          0  dtMISS:          0
cpu0_STLB RFO          ACCESS:          0  HIT:          0  MISS:          0  iACCESS:          0  iHIT:          0  iMISS:          0  dACCESS:          0  dHIT:          0  dMISS:          0  itACCESS:          0  itHIT:          0  itMISS:          0  dtACCESS:          0  dtHIT:          0  dtMISS:          0
cpu0_STLB PREFETCH     ACCESS:          0  HIT:          0  MISS:          0  iACCESS:          0  iHIT:          0  iMISS:          0  dACCESS:          0  dHIT:          0  dMISS:          0  itACCESS:          0  itHIT:          0  itMISS:          0  dtACCESS:          0  dtHIT:          0  dtMISS:          0
cpu0_STLB WRITE        ACCESS:          0  HIT:          0  MISS:          0  iACCESS:          0  iHIT:          0  iMISS:          0  dACCESS:          0  dHIT:          0  dMISS:          0  itACCESS:          0  itHIT:          0  itMISS:          0  dtACCESS:          0  dtHIT:          0  dtMISS:          0
cpu0_STLB TRANSLATION  ACCESS:          0  HIT:          0  MISS:          0  iACCESS:          0  iHIT:          0  iMISS:          0  dACCESS:          0  dHIT:          0  dMISS:          0  itACCESS:          0  itHIT:          0  itMISS:          0  dtACCESS:          0  dtHIT:          0  dtMISS:          0
cpu0_STLB PREFETCH  REQUESTED:          0  ISSUED:          0  CROSSED:          0  USEFUL:          0  USELESS:          0
cpu0_STLB AVERAGE iMISS LATENCY: 31.8906 cycles
cpu0_STLB AVERAGE dMISS LATENCY: 78.244 cycles
cpu0_STLB AVERAGE itMISS LATENCY: 0 cycles
cpu0_STLB AVERAGE dtMISS LATENCY: 0 cycles
cpu0_STLB PAGE CROSSINGS (TLB HIT):         0 
cpu0_STLB PAGE CROSSINGS (TLB MISS):         0 
cpu0_STLB AVERAGE MISS LATENCY: 110.135 cycles
cpu0_L1D TOTAL       ACCESS:   45343309  HIT:   39131192  MISS:    6212117  iACCESS:          0  iHIT:          0  iMISS:          0  dACCESS:   45060056  dHIT:   39103688  dMISS:    5956368  itACCESS:      92553  itHIT:      15139  itMISS:      77414  dtACCESS:     190700  dtHIT:      12365  dtMISS:     178335
cpu0_L1D LOAD         ACCESS:   21807564  HIT:   18219797  MISS:    3587767  iACCESS:          0  iHIT:          0  iMISS:          0  dACCESS:   21807564  dHIT:   18219797  dMISS:    3587767  itACCESS:          0  itHIT:          0  itMISS:          0  dtACCESS:          0  dtHIT:          0  dtMISS:          0
cpu0_L1D RFO          ACCESS:          0  HIT:          0  MISS:          0  iACCESS:          0  iHIT:          0  iMISS:          0  dACCESS:          0  dHIT:          0  dMISS:          0  itACCESS:          0  itHIT:          0  itMISS:          0  dtACCESS:          0  dtHIT:          0  dtMISS:          0
cpu0_L1D PREFETCH     ACCESS:   13399029  HIT:   11501243  MISS:    1897786  iACCESS:          0  iHIT:          0  iMISS:          0  dACCESS:   13399029  dHIT:   11501243  dMISS:    1897786  itACCESS:          0  itHIT:          0  itMISS:          0  dtACCESS:          0  dtHIT:          0  dtMISS:          0
cpu0_L1D WRITE        ACCESS:    9853463  HIT:    9382648  MISS:     470815  iACCESS:          0  iHIT:          0  iMISS:          0  dACCESS:    9853463  dHIT:    9382648  dMISS:     470815  itACCESS:          0  itHIT:          0  itMISS:          0  dtACCESS:          0  dtHIT:          0  dtMISS:          0
cpu0_L1D TRANSLATION  ACCESS:     283253  HIT:      27504  MISS:     255749  iACCESS:          0  iHIT:          0  iMISS:          0  dACCESS:          0  dHIT:          0  dMISS:          0  itACCESS:      92553  itHIT:      15139  itMISS:      77414  dtACCESS:     190700  dtHIT:      12365  dtMISS:     178335
cpu0_L1D PREFETCH  REQUESTED:   21807564  ISSUED:   17671031  CROSSED:          0  USEFUL:     279260  USELESS:     727230
cpu0_L1D AVERAGE iMISS LATENCY: 0 cycles
cpu0_L1D AVERAGE dMISS LATENCY: 30.3989 cycles
cpu0_L1D AVERAGE itMISS LATENCY: 1.03381 cycles
cpu0_L1D AVERAGE dtMISS LATENCY: 2.52793 cycles
cpu0_L1D PAGE CROSSINGS (TLB HIT):         0 
cpu0_L1D PAGE CROSSINGS (TLB MISS):         0 
cpu0_L1D AVERAGE MISS LATENCY: 33.9606 cycles
cpu0_L2C TOTAL       ACCESS:    8328249  HIT:    3153345  MISS:    5174904  iACCESS:    3046454  iHIT:     995029  iMISS:    2051425  dACCESS:    5031462  dHIT:    2030991  dMISS:    3000471  itACCESS:      77414  itHIT:      40625  itMISS:      36789  dtACCESS:     172919  dtHIT:      86700  dtMISS:      86219
cpu0_L2C LOAD         ACCESS:    3169596  HIT:    1580723  MISS:    1588873  iACCESS:     693539  iHIT:     196055  iMISS:     497484  dACCESS:    2476057  dHIT:    1384668  dMISS:    1091389  itACCESS:          0  itHIT:          0  itMISS:          0  dtACCESS:          0  dtHIT:          0  dtMISS:          0
cpu0_L2C RFO          ACCESS:     172130  HIT:      43189  MISS:     128941  iACCESS:          0  iHIT:          0  iMISS:          0  dACCESS:     172130  dHIT:      43189  dMISS:     128941  itACCESS:          0  itHIT:          0  itMISS:          0  dtACCESS:          0  dtHIT:          0  dtMISS:          0
cpu0_L2C PREFETCH     ACCESS:    4488864  HIT:    1290322  MISS:    3198542  iACCESS:    2352915  iHIT:     798974  iMISS:    1553941  dACCESS:    2135949  dHIT:     491348  dMISS:    1644601  itACCESS:          0  itHIT:          0  itMISS:          0  dtACCESS:          0  dtHIT:          0  dtMISS:          0
cpu0_L2C WRITE        ACCESS:     247326  HIT:     111786  MISS:     135540  iACCESS:          0  iHIT:          0  iMISS:          0  dACCESS:     247326  dHIT:     111786  dMISS:     135540  itACCESS:          0  itHIT:          0  itMISS:          0  dtACCESS:          0  dtHIT:          0  dtMISS:          0
cpu0_L2C TRANSLATION  ACCESS:     250333  HIT:     127325  MISS:     123008  iACCESS:          0  iHIT:          0  iMISS:          0  dACCESS:          0  dHIT:          0  dMISS:          0  itACCESS:      77414  itHIT:      40625  itMISS:      36789  dtACCESS:     172919  dtHIT:      86700  dtMISS:      86219
cpu0_L2C PREFETCH  REQUESTED:    1355322  ISSUED:    1355226  CROSSED:          0  USEFUL:     355150  USELESS:     369069
cpu0_L2C AVERAGE iMISS LATENCY: 24.1245 cycles
cpu0_L2C AVERAGE dMISS LATENCY: 41.4888 cycles
cpu0_L2C AVERAGE itMISS LATENCY: 1.09884 cycles
cpu0_L2C AVERAGE dtMISS LATENCY: 2.71576 cycles
cpu0_L2C PAGE CROSSINGS (TLB HIT):         0 
cpu0_L2C PAGE CROSSINGS (TLB MISS):         0 
cpu0_L2C AVERAGE MISS LATENCY: 69.4279 cycles
LLC TOTAL       ACCESS:    5054058  HIT:    3389946  MISS:    1664112  iACCESS:    1977397  iHIT:    1390700  iMISS:     586697  dACCESS:    2953653  dHIT:    1969798  dMISS:     983855  itACCESS:      36789  itHIT:       8300  itMISS:      28489  dtACCESS:      86219  dtHIT:      21148  dtMISS:      65071
LLC LOAD         ACCESS:    1583308  HIT:    1209071  MISS:     374237  iACCESS:     496075  iHIT:     373945  iMISS:     122130  dACCESS:    1087233  dHIT:     835126  dMISS:     252107  itACCESS:          0  itHIT:          0  itMISS:          0  dtACCESS:          0  dtHIT:          0  dtMISS:          0
LLC RFO          ACCESS:     128932  HIT:      65826  MISS:      63106  iACCESS:          0  iHIT:          0  iMISS:          0  dACCESS:     128932  dHIT:      65826  dMISS:      63106  itACCESS:          0  itHIT:          0  itMISS:          0  dtACCESS:          0  dtHIT:          0  dtMISS:          0
LLC PREFETCH     ACCESS:    3023219  HIT:    1892683  MISS:    1130536  iACCESS:    1481322  iHIT:    1016755  iMISS:     464567  dACCESS:    1541897  dHIT:     875928  dMISS:     665969  itACCESS:          0  itHIT:          0  itMISS:          0  dtACCESS:          0  dtHIT:          0  dtMISS:          0
LLC WRITE        ACCESS:     195591  HIT:     192918  MISS:       2673  iACCESS:          0  iHIT:          0  iMISS:          0  dACCESS:     195591  dHIT:     192918  dMISS:       2673  itACCESS:          0  itHIT:          0  itMISS:          0  dtACCESS:          0  dtHIT:          0  dtMISS:          0
LLC TRANSLATION  ACCESS:     123008  HIT:      29448  MISS:      93560  iACCESS:          0  iHIT:          0  iMISS:          0  dACCESS:          0  dHIT:          0  dMISS:          0  itACCESS:      36789  itHIT:       8300  itMISS:      28489  dtACCESS:      86219  dtHIT:      21148  dtMISS:      65071
LLC PREFETCH  REQUESTED:          0  ISSUED:          0  CROSSED:          0  USEFUL:          0  USELESS:          0
LLC AVERAGE iMISS LATENCY: 51.9574 cycles
LLC AVERAGE dMISS LATENCY: 97.5844 cycles
LLC AVERAGE itMISS LATENCY: 2.98139 cycles
LLC AVERAGE dtMISS LATENCY: 7.42619 cycles
LLC PAGE CROSSINGS (TLB HIT):         0 
LLC PAGE CROSSINGS (TLB MISS):         0 
LLC AVERAGE MISS LATENCY: 159.95 cycles

PageTableWalker TOTAL       ACCESS:     101600  
PageTableWalker AVERAGE LATENCY: 3.93485 cycles
PageTableWalker TOTAL LATENCY: 399780 cycles

DRAM Statistics
Channel 0
 RQ ROW_BUFFER_HIT:     488522
  ROW_BUFFER_MISS:    1163506
 AVG DBUS CONGESTED CYCLE:    3.64233
 WQ ROW_BUFFER_HIT:      38741
  ROW_BUFFER_MISS:      32533  FULL:          0

