last_page:0x200000000000000
VMEM_RES_CAP:0x100000
PAGE_SIZE:4096
LOG2_PAGE_SIZE:12
LOG2_PAGE_TABLE_SIZE:9
page_table_levels:5
WARNING: physical memory size is smaller than virtual memory size
FDiP enabled with aggresivity 16

*** ChampSim Multicore Out-of-Order Simulator ***

Warmup Instructions: 50000000
Simulation Instructions: 100000000
Number of CPUs: 1
Small page size: 4096
Large page size: 2097152

CPU 0 Bimodal branch predictor
Basic BTB sets: 1024 ways: 8 indirect buffer size: 4096 RAS size: 64
Instruction page size distrubution: 0
Loading instruction page size distribution from /home/bsc/bsc018186/scratch/itp_asplos25_AE/dump/srv225_ap.pdst
Data page size distrubution: 0
Loading data page size distribution from /home/bsc/bsc018186/scratch/itp_asplos25_AE/dump/srv225_ap.pdst
cpu0_L2C IP-based stride prefetcher
cpu0_L1D next line prefetcher
CHiRPing...
cpu0_L1I next line prefetcher
Off-chip DRAM Size: 4 GiB Channels: 1 Width: 64-bit Data Rate: 3200 MT/s
Heartbeat CPU 0 instructions: 10000003 cycles: 2500382 heartbeat IPC: 3.9994 cumulative IPC: 3.9994 (Simulation time: 0 hr 0 min 39 sec) 
Heartbeat CPU 0 instructions: 20000001 cycles: 5000472 heartbeat IPC: 3.99986 cumulative IPC: 3.99963 (Simulation time: 0 hr 1 min 20 sec) 
Heartbeat CPU 0 instructions: 30000001 cycles: 7500525 heartbeat IPC: 3.99992 cumulative IPC: 3.99973 (Simulation time: 0 hr 2 min 2 sec) 
Heartbeat CPU 0 instructions: 40000002 cycles: 10000594 heartbeat IPC: 3.9999 cumulative IPC: 3.99977 (Simulation time: 0 hr 2 min 43 sec) 
Heartbeat CPU 0 instructions: 50000001 cycles: 12500607 heartbeat IPC: 3.99998 cumulative IPC: 3.99981 (Simulation time: 0 hr 3 min 25 sec) 
Warmup finished CPU 0 instructions: 50000001 cycles: 12500608 cumulative IPC: 3.99981 (Simulation time: 0 hr 3 min 25 sec) 

Warmup complete CPU 0 instructions: 50000001 cycles: 12500608 (Simulation time: 0 hr 3 min 25 sec) 

Heartbeat CPU 0 instructions: 60000001 cycles: 32896801 heartbeat IPC: 0.490288 cumulative IPC: 0.490288 (Simulation time: 0 hr 4 min 40 sec) 
Heartbeat CPU 0 instructions: 70000004 cycles: 54059986 heartbeat IPC: 0.472519 cumulative IPC: 0.48124 (Simulation time: 0 hr 5 min 57 sec) 
Heartbeat CPU 0 instructions: 80000000 cycles: 73767912 heartbeat IPC: 0.50741 cumulative IPC: 0.489658 (Simulation time: 0 hr 7 min 11 sec) 
Heartbeat CPU 0 instructions: 90000004 cycles: 94733293 heartbeat IPC: 0.476977 cumulative IPC: 0.486425 (Simulation time: 0 hr 8 min 27 sec) 
Heartbeat CPU 0 instructions: 100000000 cycles: 114480078 heartbeat IPC: 0.506412 cumulative IPC: 0.490295 (Simulation time: 0 hr 9 min 41 sec) 
*** Reached end of trace: /gpfs/projects/bsc18/MN4/bsc18/romol/ChampSim/traces/qualcomm_srv/srv225_ap.champsimtrace.xz
Heartbeat CPU 0 instructions: 110000000 cycles: 134848383 heartbeat IPC: 0.490959 cumulative IPC: 0.490406 (Simulation time: 0 hr 10 min 55 sec) 
Heartbeat CPU 0 instructions: 120000001 cycles: 155095143 heartbeat IPC: 0.493907 cumulative IPC: 0.490903 (Simulation time: 0 hr 12 min 8 sec) 
Heartbeat CPU 0 instructions: 130000002 cycles: 175602487 heartbeat IPC: 0.487631 cumulative IPC: 0.490491 (Simulation time: 0 hr 13 min 22 sec) 
Heartbeat CPU 0 instructions: 140000002 cycles: 196731571 heartbeat IPC: 0.473282 cumulative IPC: 0.488518 (Simulation time: 0 hr 14 min 36 sec) 
Heartbeat CPU 0 instructions: 150000001 cycles: 217473237 heartbeat IPC: 0.482122 cumulative IPC: 0.487871 (Simulation time: 0 hr 15 min 49 sec) 
Simulation finished CPU 0 instructions: 100000000 cycles: 204972630 cumulative IPC: 0.487871 (Simulation time: 0 hr 15 min 49 sec) 

Simulation complete CPU 0 instructions: 100000000 cycles: 204972630 (Simulation time: 0 hr 15 min 49 sec) 


ChampSim completed all CPUs

Saving instructions large page distribution to /home/bsc/bsc018186/scratch/itp_asplos25_AE/dump/srv225_ap.pdst...
Saving data large page distribution to /home/bsc/bsc018186/scratch/itp_asplos25_AE/dump/srv225_ap.pdst...
=== Simulation ===
CPU 0 runs /gpfs/projects/bsc18/MN4/bsc18/romol/ChampSim/traces/qualcomm_srv/srv225_ap.champsimtrace.xz

Region of Interest Statistics

CPU 0 cumulative IPC: 0.487871 instructions: 100000000 cycles: 204972630
CPU 0 Branch Prediction Accuracy: 80.4534% MPKI: 35.261 Average ROB Occupancy at Mispredict: 10.8831
Branch type MPKI
BRANCH_DIRECT_JUMP: 1.29675
BRANCH_INDIRECT: 17.633
BRANCH_CONDITIONAL: 11.494
BRANCH_DIRECT_CALL: 2.43953
BRANCH_INDIRECT_CALL: 0.688991
BRANCH_RETURN: 1.70871

Instructions large pages: 0
Instructions small pages: 5615
Large page distribution for instructions: 0%

Data large pages: 0
Data small pages: 4573
Large page distribution for data: 0%

cpu0_L1I TOTAL       ACCESS:   35237592  HIT:   27414721  MISS:    7822871  iACCESS:   35237592  iHIT:   27414721  iMISS:    7822871  dACCESS:          0  dHIT:          0  dMISS:          0  itACCESS:          0  itHIT:          0  itMISS:          0  dtACCESS:          0  dtHIT:          0  dtMISS:          0
cpu0_L1I LOAD         ACCESS:   10150905  HIT:    8000590  MISS:    2150315  iACCESS:   10150905  iHIT:    8000590  iMISS:    2150315  dACCESS:          0  dHIT:          0  dMISS:          0  itACCESS:          0  itHIT:          0  itMISS:          0  dtACCESS:          0  dtHIT:          0  dtMISS:          0
cpu0_L1I RFO          ACCESS:          0  HIT:          0  MISS:          0  iACCESS:          0  iHIT:          0  iMISS:          0  dACCESS:          0  dHIT:          0  dMISS:          0  itACCESS:          0  itHIT:          0  itMISS:          0  dtACCESS:          0  dtHIT:          0  dtMISS:          0
cpu0_L1I PREFETCH     ACCESS:   25086687  HIT:   19414131  MISS:    5672556  iACCESS:   25086687  iHIT:   19414131  iMISS:    5672556  dACCESS:          0  dHIT:          0  dMISS:          0  itACCESS:          0  itHIT:          0  itMISS:          0  dtACCESS:          0  dtHIT:          0  dtMISS:          0
cpu0_L1I WRITE        ACCESS:          0  HIT:          0  MISS:          0  iACCESS:          0  iHIT:          0  iMISS:          0  dACCESS:          0  dHIT:          0  dMISS:          0  itACCESS:          0  itHIT:          0  itMISS:          0  dtACCESS:          0  dtHIT:          0  dtMISS:          0
cpu0_L1I TRANSLATION  ACCESS:          0  HIT:          0  MISS:          0  iACCESS:          0  iHIT:          0  iMISS:          0  dACCESS:          0  dHIT:          0  dMISS:          0  itACCESS:          0  itHIT:          0  itMISS:          0  dtACCESS:          0  dtHIT:          0  dtMISS:          0
cpu0_L1I PREFETCH  REQUESTED:   27476819  ISSUED:   27476819  CROSSED:          0  USEFUL:    1960187  USELESS:     650448
cpu0_L1I AVERAGE iMISS LATENCY: 19.4027 cycles
cpu0_L1I AVERAGE dMISS LATENCY: 0 cycles
cpu0_L1I AVERAGE itMISS LATENCY: 0 cycles
cpu0_L1I AVERAGE dtMISS LATENCY: 0 cycles
cpu0_L1I PAGE CROSSINGS (TLB HIT):         0 
cpu0_L1I PAGE CROSSINGS (TLB MISS):         0 
cpu0_L1I AVERAGE MISS LATENCY: 19.4027 cycles
cpu0_ITLB TOTAL       ACCESS:   29725646  HIT:   27782085  MISS:    1943561  iACCESS:   29725646  iHIT:   27782085  iMISS:    1943561  dACCESS:          0  dHIT:          0  dMISS:          0  itACCESS:          0  itHIT:          0  itMISS:          0  dtACCESS:          0  dtHIT:          0  dtMISS:          0
cpu0_ITLB LOAD         ACCESS:   29725646  HIT:   27782085  MISS:    1943561  iACCESS:   29725646  iHIT:   27782085  iMISS:    1943561  dACCESS:          0  dHIT:          0  dMISS:          0  itACCESS:          0  itHIT:          0  itMISS:          0  dtACCESS:          0  dtHIT:          0  dtMISS:          0
cpu0_ITLB RFO          ACCESS:          0  HIT:          0  MISS:          0  iACCESS:          0  iHIT:          0  iMISS:          0  dACCESS:          0  dHIT:          0  dMISS:          0  itACCESS:          0  itHIT:          0  itMISS:          0  dtACCESS:          0  dtHIT:          0  dtMISS:          0
cpu0_ITLB PREFETCH     ACCESS:          0  HIT:          0  MISS:          0  iACCESS:          0  iHIT:          0  iMISS:          0  dACCESS:          0  dHIT:          0  dMISS:          0  itACCESS:          0  itHIT:          0  itMISS:          0  dtACCESS:          0  dtHIT:          0  dtMISS:          0
cpu0_ITLB WRITE        ACCESS:          0  HIT:          0  MISS:          0  iACCESS:          0  iHIT:          0  iMISS:          0  dACCESS:          0  dHIT:          0  dMISS:          0  itACCESS:          0  itHIT:          0  itMISS:          0  dtACCESS:          0  dtHIT:          0  dtMISS:          0
cpu0_ITLB TRANSLATION  ACCESS:          0  HIT:          0  MISS:          0  iACCESS:          0  iHIT:          0  iMISS:          0  dACCESS:          0  dHIT:          0  dMISS:          0  itACCESS:          0  itHIT:          0  itMISS:          0  dtACCESS:          0  dtHIT:          0  dtMISS:          0
cpu0_ITLB PREFETCH  REQUESTED:          0  ISSUED:          0  CROSSED:          0  USEFUL:     327992  USELESS:      61988
cpu0_ITLB AVERAGE iMISS LATENCY: 7.7816 cycles
cpu0_ITLB AVERAGE dMISS LATENCY: 0 cycles
cpu0_ITLB AVERAGE itMISS LATENCY: 0 cycles
cpu0_ITLB AVERAGE dtMISS LATENCY: 0 cycles
cpu0_ITLB PAGE CROSSINGS (TLB HIT):         0 
cpu0_ITLB PAGE CROSSINGS (TLB MISS):         0 
cpu0_ITLB AVERAGE MISS LATENCY: 7.7816 cycles
cpu0_DTLB TOTAL       ACCESS:   27994801  HIT:   26007046  MISS:    1987755  iACCESS:          0  iHIT:          0  iMISS:          0  dACCESS:   27994801  dHIT:   26007046  dMISS:    1987755  itACCESS:          0  itHIT:          0  itMISS:          0  dtACCESS:          0  dtHIT:          0  dtMISS:          0
cpu0_DTLB LOAD         ACCESS:   27994801  HIT:   26007046  MISS:    1987755  iACCESS:          0  iHIT:          0  iMISS:          0  dACCESS:   27994801  dHIT:   26007046  dMISS:    1987755  itACCESS:          0  itHIT:          0  itMISS:          0  dtACCESS:          0  dtHIT:          0  dtMISS:          0
cpu0_DTLB RFO          ACCESS:          0  HIT:          0  MISS:          0  iACCESS:          0  iHIT:          0  iMISS:          0  dACCESS:          0  dHIT:          0  dMISS:          0  itACCESS:          0  itHIT:          0  itMISS:          0  dtACCESS:          0  dtHIT:          0  dtMISS:          0
cpu0_DTLB PREFETCH     ACCESS:          0  HIT:          0  MISS:          0  iACCESS:          0  iHIT:          0  iMISS:          0  dACCESS:          0  dHIT:          0  dMISS:          0  itACCESS:          0  itHIT:          0  itMISS:          0  dtACCESS:          0  dtHIT:          0  dtMISS:          0
cpu0_DTLB WRITE        ACCESS:          0  HIT:          0  MISS:          0  iACCESS:          0  iHIT:          0  iMISS:          0  dACCESS:          0  dHIT:          0  dMISS:          0  itACCESS:          0  itHIT:          0  itMISS:          0  dtACCESS:          0  dtHIT:          0  dtMISS:          0
cpu0_DTLB TRANSLATION  ACCESS:          0  HIT:          0  MISS:          0  iACCESS:          0  iHIT:          0  iMISS:          0  dACCESS:          0  dHIT:          0  dMISS:          0  itACCESS:          0  itHIT:          0  itMISS:          0  dtACCESS:          0  dtHIT:          0  dtMISS:          0
cpu0_DTLB PREFETCH  REQUESTED:          0  ISSUED:          0  CROSSED:          0  USEFUL:          0  USELESS:          0
cpu0_DTLB AVERAGE iMISS LATENCY: 0 cycles
cpu0_DTLB AVERAGE dMISS LATENCY: 19.9046 cycles
cpu0_DTLB AVERAGE itMISS LATENCY: 0 cycles
cpu0_DTLB AVERAGE dtMISS LATENCY: 0 cycles
cpu0_DTLB PAGE CROSSINGS (TLB HIT):         0 
cpu0_DTLB PAGE CROSSINGS (TLB MISS):         0 
cpu0_DTLB AVERAGE MISS LATENCY: 19.9046 cycles
cpu0_STLB TOTAL       ACCESS:    1591673  HIT:    1360994  MISS:     230679  iACCESS:     389979  iHIT:     302888  iMISS:      87091  dACCESS:    1201694  dHIT:    1058106  dMISS:     143588  itACCESS:          0  itHIT:          0  itMISS:          0  dtACCESS:          0  dtHIT:          0  dtMISS:          0
cpu0_STLB LOAD         ACCESS:    1591673  HIT:    1360994  MISS:     230679  iACCESS:     389979  iHIT:     302888  iMISS:      87091  dACCESS:    1201694  dHIT:    1058106  dMISS:     143588  itACCESS:          0  itHIT:          0  itMISS:          0  dtACCESS:          0  dtHIT:          0  dtMISS:          0
cpu0_STLB RFO          ACCESS:          0  HIT:          0  MISS:          0  iACCESS:          0  iHIT:          0  iMISS:          0  dACCESS:          0  dHIT:          0  dMISS:          0  itACCESS:          0  itHIT:          0  itMISS:          0  dtACCESS:          0  dtHIT:          0  dtMISS:          0
cpu0_STLB PREFETCH     ACCESS:          0  HIT:          0  MISS:          0  iACCESS:          0  iHIT:          0  iMISS:          0  dACCESS:          0  dHIT:          0  dMISS:          0  itACCESS:          0  itHIT:          0  itMISS:          0  dtACCESS:          0  dtHIT:          0  dtMISS:          0
cpu0_STLB WRITE        ACCESS:          0  HIT:          0  MISS:          0  iACCESS:          0  iHIT:          0  iMISS:          0  dACCESS:          0  dHIT:          0  dMISS:          0  itACCESS:          0  itHIT:          0  itMISS:          0  dtACCESS:          0  dtHIT:          0  dtMISS:          0
cpu0_STLB TRANSLATION  ACCESS:          0  HIT:          0  MISS:          0  iACCESS:          0  iHIT:          0  iMISS:          0  dACCESS:          0  dHIT:          0  dMISS:          0  itACCESS:          0  itHIT:          0  itMISS:          0  dtACCESS:          0  dtHIT:          0  dtMISS:          0
cpu0_STLB PREFETCH  REQUESTED:          0  ISSUED:          0  CROSSED:          0  USEFUL:          0  USELESS:          0
cpu0_STLB AVERAGE iMISS LATENCY: 52.0666 cycles
cpu0_STLB AVERAGE dMISS LATENCY: 129.822 cycles
cpu0_STLB AVERAGE itMISS LATENCY: 0 cycles
cpu0_STLB AVERAGE dtMISS LATENCY: 0 cycles
cpu0_STLB PAGE CROSSINGS (TLB HIT):         0 
cpu0_STLB PAGE CROSSINGS (TLB MISS):         0 
cpu0_STLB AVERAGE MISS LATENCY: 181.888 cycles
cpu0_L1D TOTAL       ACCESS:   42607167  HIT:   38478437  MISS:    4128730  iACCESS:          0  iHIT:          0  iMISS:          0  dACCESS:   42319067  dHIT:   38451440  dMISS:    3867627  itACCESS:      93407  itHIT:      14922  itMISS:      78485  dtACCESS:     194693  dtHIT:      12075  dtMISS:     182618
cpu0_L1D LOAD         ACCESS:   19387611  HIT:   17620317  MISS:    1767294  iACCESS:          0  iHIT:          0  iMISS:          0  dACCESS:   19387611  dHIT:   17620317  dMISS:    1767294  itACCESS:          0  itHIT:          0  itMISS:          0  dtACCESS:          0  dtHIT:          0  dtMISS:          0
cpu0_L1D RFO          ACCESS:          0  HIT:          0  MISS:          0  iACCESS:          0  iHIT:          0  iMISS:          0  dACCESS:          0  dHIT:          0  dMISS:          0  itACCESS:          0  itHIT:          0  itMISS:          0  dtACCESS:          0  dtHIT:          0  dtMISS:          0
cpu0_L1D PREFETCH     ACCESS:   12765193  HIT:   11146574  MISS:    1618619  iACCESS:          0  iHIT:          0  iMISS:          0  dACCESS:   12765193  dHIT:   11146574  dMISS:    1618619  itACCESS:          0  itHIT:          0  itMISS:          0  dtACCESS:          0  dtHIT:          0  dtMISS:          0
cpu0_L1D WRITE        ACCESS:   10166263  HIT:    9684549  MISS:     481714  iACCESS:          0  iHIT:          0  iMISS:          0  dACCESS:   10166263  dHIT:    9684549  dMISS:     481714  itACCESS:          0  itHIT:          0  itMISS:          0  dtACCESS:          0  dtHIT:          0  dtMISS:          0
cpu0_L1D TRANSLATION  ACCESS:     288100  HIT:      26997  MISS:     261103  iACCESS:          0  iHIT:          0  iMISS:          0  dACCESS:          0  dHIT:          0  dMISS:          0  itACCESS:      93407  itHIT:      14922  itMISS:      78485  dtACCESS:     194693  dtHIT:      12075  dtMISS:     182618
cpu0_L1D PREFETCH  REQUESTED:   19387611  ISSUED:   17342047  CROSSED:          0  USEFUL:     311198  USELESS:     702515
cpu0_L1D AVERAGE iMISS LATENCY: 0 cycles
cpu0_L1D AVERAGE dMISS LATENCY: 40.3195 cycles
cpu0_L1D AVERAGE itMISS LATENCY: 2.72814 cycles
cpu0_L1D AVERAGE dtMISS LATENCY: 6.77458 cycles
cpu0_L1D PAGE CROSSINGS (TLB HIT):         0 
cpu0_L1D PAGE CROSSINGS (TLB MISS):         0 
cpu0_L1D AVERAGE MISS LATENCY: 49.8222 cycles
cpu0_L2C TOTAL       ACCESS:    7227219  HIT:    3689568  MISS:    3537651  iACCESS:    3338455  iHIT:    2021962  iMISS:    1316493  dACCESS:    3630780  dHIT:    1632516  dMISS:    1998264  itACCESS:      78485  itHIT:      13170  itMISS:      65315  dtACCESS:     179499  dtHIT:      21920  dtMISS:     157579
cpu0_L2C LOAD         ACCESS:    1711847  HIT:     907009  MISS:     804838  iACCESS:     765331  iHIT:     490720  iMISS:     274611  dACCESS:     946516  dHIT:     416289  dMISS:     530227  itACCESS:          0  itHIT:          0  itMISS:          0  dtACCESS:          0  dtHIT:          0  dtMISS:          0
cpu0_L2C RFO          ACCESS:     164551  HIT:      62161  MISS:     102390  iACCESS:          0  iHIT:          0  iMISS:          0  dACCESS:     164551  dHIT:      62161  dMISS:     102390  itACCESS:          0  itHIT:          0  itMISS:          0  dtACCESS:          0  dtHIT:          0  dtMISS:          0
cpu0_L2C PREFETCH     ACCESS:    4817143  HIT:    2410776  MISS:    2406367  iACCESS:    2573124  iHIT:    1531242  iMISS:    1041882  dACCESS:    2244019  dHIT:     879534  dMISS:    1364485  itACCESS:          0  itHIT:          0  itMISS:          0  dtACCESS:          0  dtHIT:          0  dtMISS:          0
cpu0_L2C WRITE        ACCESS:     275694  HIT:     274532  MISS:       1162  iACCESS:          0  iHIT:          0  iMISS:          0  dACCESS:     275694  dHIT:     274532  dMISS:       1162  itACCESS:          0  itHIT:          0  itMISS:          0  dtACCESS:          0  dtHIT:          0  dtMISS:          0
cpu0_L2C TRANSLATION  ACCESS:     257984  HIT:      35090  MISS:     222894  iACCESS:          0  iHIT:          0  iMISS:          0  dACCESS:          0  dHIT:          0  dMISS:          0  itACCESS:      78485  itHIT:      13170  itMISS:      65315  dtACCESS:     179499  dtHIT:      21920  dtMISS:     157579
cpu0_L2C PREFETCH  REQUESTED:    1488543  ISSUED:    1488163  CROSSED:          0  USEFUL:     352763  USELESS:     294690
cpu0_L2C AVERAGE iMISS LATENCY: 34.5604 cycles
cpu0_L2C AVERAGE dMISS LATENCY: 60.3805 cycles
cpu0_L2C AVERAGE itMISS LATENCY: 2.96506 cycles
cpu0_L2C AVERAGE dtMISS LATENCY: 7.40228 cycles
cpu0_L2C PAGE CROSSINGS (TLB HIT):         0 
cpu0_L2C PAGE CROSSINGS (TLB MISS):         0 
cpu0_L2C AVERAGE MISS LATENCY: 105.309 cycles
LLC TOTAL       ACCESS:    3499796  HIT:    1569340  MISS:    1930456  iACCESS:    1237483  iHIT:     573255  iMISS:     664228  dACCESS:    2039419  dHIT:     949489  dMISS:    1089930  itACCESS:      65315  itHIT:      12109  itMISS:      53206  dtACCESS:     157579  dtHIT:      34487  dtMISS:     123092
LLC LOAD         ACCESS:     799161  HIT:     384435  MISS:     414726  iACCESS:     273368  iHIT:     131146  iMISS:     142222  dACCESS:     525793  dHIT:     253289  dMISS:     272504  itACCESS:          0  itHIT:          0  itMISS:          0  dtACCESS:          0  dtHIT:          0  dtMISS:          0
LLC RFO          ACCESS:     102368  HIT:      37449  MISS:      64919  iACCESS:          0  iHIT:          0  iMISS:          0  dACCESS:     102368  dHIT:      37449  dMISS:      64919  itACCESS:          0  itHIT:          0  itMISS:          0  dtACCESS:          0  dtHIT:          0  dtMISS:          0
LLC PREFETCH     ACCESS:    2227631  HIT:     962214  MISS:    1265417  iACCESS:     964115  iHIT:     442109  iMISS:     522006  dACCESS:    1263516  dHIT:     520105  dMISS:     743411  itACCESS:          0  itHIT:          0  itMISS:          0  dtACCESS:          0  dtHIT:          0  dtMISS:          0
LLC WRITE        ACCESS:     147742  HIT:     138646  MISS:       9096  iACCESS:          0  iHIT:          0  iMISS:          0  dACCESS:     147742  dHIT:     138646  dMISS:       9096  itACCESS:          0  itHIT:          0  itMISS:          0  dtACCESS:          0  dtHIT:          0  dtMISS:          0
LLC TRANSLATION  ACCESS:     222894  HIT:      46596  MISS:     176298  iACCESS:          0  iHIT:          0  iMISS:          0  dACCESS:          0  dHIT:          0  dMISS:          0  itACCESS:      65315  itHIT:      12109  itMISS:      53206  dtACCESS:     157579  dtHIT:      34487  dtMISS:     123092
LLC PREFETCH  REQUESTED:          0  ISSUED:          0  CROSSED:          0  USEFUL:          0  USELESS:          0
LLC AVERAGE iMISS LATENCY: 50.7888 cycles
LLC AVERAGE dMISS LATENCY: 92.3622 cycles
LLC AVERAGE itMISS LATENCY: 4.76555 cycles
LLC AVERAGE dtMISS LATENCY: 11.9583 cycles
LLC PAGE CROSSINGS (TLB HIT):         0 
LLC PAGE CROSSINGS (TLB MISS):         0 
LLC AVERAGE MISS LATENCY: 159.875 cycles

PageTableWalker TOTAL       ACCESS:     118546  
PageTableWalker AVERAGE LATENCY: 5.03429 cycles
PageTableWalker TOTAL LATENCY: 596794 cycles

DRAM Statistics
Channel 0
 RQ ROW_BUFFER_HIT:     526246
  ROW_BUFFER_MISS:    1381287
 AVG DBUS CONGESTED CYCLE:    3.63442
 WQ ROW_BUFFER_HIT:      38417
  ROW_BUFFER_MISS:      26682  FULL:          0

