last_page:0x200000000000000
VMEM_RES_CAP:0x100000
PAGE_SIZE:4096
LOG2_PAGE_SIZE:12
LOG2_PAGE_TABLE_SIZE:9
page_table_levels:5
WARNING: physical memory size is smaller than virtual memory size
FDiP enabled with aggresivity 16

*** ChampSim Multicore Out-of-Order Simulator ***

Warmup Instructions: 50000000
Simulation Instructions: 100000000
Number of CPUs: 1
Small page size: 4096
Large page size: 2097152

CPU 0 Bimodal branch predictor
Basic BTB sets: 1024 ways: 8 indirect buffer size: 4096 RAS size: 64
Instruction page size distrubution: 0
Loading instruction page size distribution from /home/bsc/bsc018186/scratch/itp_asplos25_AE/dump/srv21_ap.pdst
Data page size distrubution: 0
Loading data page size distribution from /home/bsc/bsc018186/scratch/itp_asplos25_AE/dump/srv21_ap.pdst
cpu0_L2C IP-based stride prefetcher
cpu0_L2C is using PTP replacement policy:
	TLB_STRESS_THRESHOLD:0
	PTE_EVICTION_RATIO:0
cpu0_L1D next line prefetcher
CHiRPing...
cpu0_L1I next line prefetcher
Off-chip DRAM Size: 4 GiB Channels: 1 Width: 64-bit Data Rate: 3200 MT/s
Heartbeat CPU 0 instructions: 10000001 cycles: 2500362 heartbeat IPC: 3.99943 cumulative IPC: 3.99943 (Simulation time: 0 hr 0 min 39 sec) 
Heartbeat CPU 0 instructions: 20000002 cycles: 5459287 heartbeat IPC: 3.37961 cumulative IPC: 3.66349 (Simulation time: 0 hr 1 min 21 sec) 
Heartbeat CPU 0 instructions: 30000000 cycles: 8115035 heartbeat IPC: 3.76542 cumulative IPC: 3.69685 (Simulation time: 0 hr 2 min 3 sec) 
Heartbeat CPU 0 instructions: 40000003 cycles: 10615073 heartbeat IPC: 3.99995 cumulative IPC: 3.76823 (Simulation time: 0 hr 2 min 44 sec) 
Heartbeat CPU 0 instructions: 50000002 cycles: 13115084 heartbeat IPC: 3.99999 cumulative IPC: 3.81241 (Simulation time: 0 hr 3 min 25 sec) 
Warmup finished CPU 0 instructions: 50000002 cycles: 13115085 cumulative IPC: 3.81241 (Simulation time: 0 hr 3 min 25 sec) 

Warmup complete CPU 0 instructions: 50000002 cycles: 13115085 (Simulation time: 0 hr 3 min 25 sec) 

Heartbeat CPU 0 instructions: 60000002 cycles: 32627269 heartbeat IPC: 0.512501 cumulative IPC: 0.512501 (Simulation time: 0 hr 4 min 35 sec) 
Heartbeat CPU 0 instructions: 70000000 cycles: 51807641 heartbeat IPC: 0.521367 cumulative IPC: 0.516896 (Simulation time: 0 hr 5 min 46 sec) 
Heartbeat CPU 0 instructions: 80000004 cycles: 71373910 heartbeat IPC: 0.511084 cumulative IPC: 0.514944 (Simulation time: 0 hr 6 min 56 sec) 
Heartbeat CPU 0 instructions: 90000001 cycles: 90210398 heartbeat IPC: 0.530885 cumulative IPC: 0.518839 (Simulation time: 0 hr 8 min 6 sec) 
Heartbeat CPU 0 instructions: 100000002 cycles: 110290201 heartbeat IPC: 0.498013 cumulative IPC: 0.514536 (Simulation time: 0 hr 9 min 19 sec) 
*** Reached end of trace: /gpfs/projects/bsc18/MN4/bsc18/romol/ChampSim/traces/qualcomm_srv/srv21_ap.champsimtrace.xz
Heartbeat CPU 0 instructions: 110000004 cycles: 131222619 heartbeat IPC: 0.477728 cumulative IPC: 0.508012 (Simulation time: 0 hr 10 min 33 sec) 
Heartbeat CPU 0 instructions: 120000002 cycles: 144893051 heartbeat IPC: 0.731506 cumulative IPC: 0.531197 (Simulation time: 0 hr 11 min 37 sec) 
Heartbeat CPU 0 instructions: 130000000 cycles: 157485525 heartbeat IPC: 0.794125 cumulative IPC: 0.554131 (Simulation time: 0 hr 12 min 39 sec) 
Heartbeat CPU 0 instructions: 140000000 cycles: 179413303 heartbeat IPC: 0.456043 cumulative IPC: 0.541197 (Simulation time: 0 hr 13 min 53 sec) 
Heartbeat CPU 0 instructions: 150000000 cycles: 200215150 heartbeat IPC: 0.480727 cumulative IPC: 0.534474 (Simulation time: 0 hr 15 min 5 sec) 
Simulation finished CPU 0 instructions: 100000002 cycles: 187100067 cumulative IPC: 0.534474 (Simulation time: 0 hr 15 min 5 sec) 

Simulation complete CPU 0 instructions: 100000002 cycles: 187100067 (Simulation time: 0 hr 15 min 5 sec) 


ChampSim completed all CPUs

Saving instructions large page distribution to /home/bsc/bsc018186/scratch/itp_asplos25_AE/dump/srv21_ap.pdst...
Saving data large page distribution to /home/bsc/bsc018186/scratch/itp_asplos25_AE/dump/srv21_ap.pdst...
=== Simulation ===
CPU 0 runs /gpfs/projects/bsc18/MN4/bsc18/romol/ChampSim/traces/qualcomm_srv/srv21_ap.champsimtrace.xz

Region of Interest Statistics

CPU 0 cumulative IPC: 0.534474 instructions: 100000002 cycles: 187100067
CPU 0 Branch Prediction Accuracy: 82.7117% MPKI: 33.4932 Average ROB Occupancy at Mispredict: 11.4512
Branch type MPKI
BRANCH_DIRECT_JUMP: 1.22764
BRANCH_INDIRECT: 16.8543
BRANCH_CONDITIONAL: 10.7433
BRANCH_DIRECT_CALL: 2.31866
BRANCH_INDIRECT_CALL: 0.71183
BRANCH_RETURN: 1.63758

Instructions large pages: 0
Instructions small pages: 1397
Large page distribution for instructions: 0%

Data large pages: 0
Data small pages: 5144
Large page distribution for data: 0%

cpu0_L1I TOTAL       ACCESS:   34880542  HIT:   27437712  MISS:    7442830  iACCESS:   34880542  iHIT:   27437712  iMISS:    7442830  dACCESS:          0  dHIT:          0  dMISS:          0  itACCESS:          0  itHIT:          0  itMISS:          0  dtACCESS:          0  dtHIT:          0  dtMISS:          0
cpu0_L1I LOAD         ACCESS:    9218357  HIT:    7174315  MISS:    2044042  iACCESS:    9218357  iHIT:    7174315  iMISS:    2044042  dACCESS:          0  dHIT:          0  dMISS:          0  itACCESS:          0  itHIT:          0  itMISS:          0  dtACCESS:          0  dtHIT:          0  dtMISS:          0
cpu0_L1I RFO          ACCESS:          0  HIT:          0  MISS:          0  iACCESS:          0  iHIT:          0  iMISS:          0  dACCESS:          0  dHIT:          0  dMISS:          0  itACCESS:          0  itHIT:          0  itMISS:          0  dtACCESS:          0  dtHIT:          0  dtMISS:          0
cpu0_L1I PREFETCH     ACCESS:   25662185  HIT:   20263397  MISS:    5398788  iACCESS:   25662185  iHIT:   20263397  iMISS:    5398788  dACCESS:          0  dHIT:          0  dMISS:          0  itACCESS:          0  itHIT:          0  itMISS:          0  dtACCESS:          0  dtHIT:          0  dtMISS:          0
cpu0_L1I WRITE        ACCESS:          0  HIT:          0  MISS:          0  iACCESS:          0  iHIT:          0  iMISS:          0  dACCESS:          0  dHIT:          0  dMISS:          0  itACCESS:          0  itHIT:          0  itMISS:          0  dtACCESS:          0  dtHIT:          0  dtMISS:          0
cpu0_L1I TRANSLATION  ACCESS:          0  HIT:          0  MISS:          0  iACCESS:          0  iHIT:          0  iMISS:          0  dACCESS:          0  dHIT:          0  dMISS:          0  itACCESS:          0  itHIT:          0  itMISS:          0  dtACCESS:          0  dtHIT:          0  dtMISS:          0
cpu0_L1I PREFETCH  REQUESTED:   27613368  ISSUED:   27612042  CROSSED:          0  USEFUL:    1783740  USELESS:     601210
cpu0_L1I AVERAGE iMISS LATENCY: 20.4816 cycles
cpu0_L1I AVERAGE dMISS LATENCY: 0 cycles
cpu0_L1I AVERAGE itMISS LATENCY: 0 cycles
cpu0_L1I AVERAGE dtMISS LATENCY: 0 cycles
cpu0_L1I PAGE CROSSINGS (TLB HIT):         0 
cpu0_L1I PAGE CROSSINGS (TLB MISS):         0 
cpu0_L1I AVERAGE MISS LATENCY: 20.4816 cycles
cpu0_ITLB TOTAL       ACCESS:   29401833  HIT:   27645599  MISS:    1756234  iACCESS:   29401833  iHIT:   27645599  iMISS:    1756234  dACCESS:          0  dHIT:          0  dMISS:          0  itACCESS:          0  itHIT:          0  itMISS:          0  dtACCESS:          0  dtHIT:          0  dtMISS:          0
cpu0_ITLB LOAD         ACCESS:   29401833  HIT:   27645599  MISS:    1756234  iACCESS:   29401833  iHIT:   27645599  iMISS:    1756234  dACCESS:          0  dHIT:          0  dMISS:          0  itACCESS:          0  itHIT:          0  itMISS:          0  dtACCESS:          0  dtHIT:          0  dtMISS:          0
cpu0_ITLB RFO          ACCESS:          0  HIT:          0  MISS:          0  iACCESS:          0  iHIT:          0  iMISS:          0  dACCESS:          0  dHIT:          0  dMISS:          0  itACCESS:          0  itHIT:          0  itMISS:          0  dtACCESS:          0  dtHIT:          0  dtMISS:          0
cpu0_ITLB PREFETCH     ACCESS:          0  HIT:          0  MISS:          0  iACCESS:          0  iHIT:          0  iMISS:          0  dACCESS:          0  dHIT:          0  dMISS:          0  itACCESS:          0  itHIT:          0  itMISS:          0  dtACCESS:          0  dtHIT:          0  dtMISS:          0
cpu0_ITLB WRITE        ACCESS:          0  HIT:          0  MISS:          0  iACCESS:          0  iHIT:          0  iMISS:          0  dACCESS:          0  dHIT:          0  dMISS:          0  itACCESS:          0  itHIT:          0  itMISS:          0  dtACCESS:          0  dtHIT:          0  dtMISS:          0
cpu0_ITLB TRANSLATION  ACCESS:          0  HIT:          0  MISS:          0  iACCESS:          0  iHIT:          0  iMISS:          0  dACCESS:          0  dHIT:          0  dMISS:          0  itACCESS:          0  itHIT:          0  itMISS:          0  dtACCESS:          0  dtHIT:          0  dtMISS:          0
cpu0_ITLB PREFETCH  REQUESTED:          0  ISSUED:          0  CROSSED:          0  USEFUL:     300096  USELESS:      56770
cpu0_ITLB AVERAGE iMISS LATENCY: 5.62978 cycles
cpu0_ITLB AVERAGE dMISS LATENCY: 0 cycles
cpu0_ITLB AVERAGE itMISS LATENCY: 0 cycles
cpu0_ITLB AVERAGE dtMISS LATENCY: 0 cycles
cpu0_ITLB PAGE CROSSINGS (TLB HIT):         0 
cpu0_ITLB PAGE CROSSINGS (TLB MISS):         0 
cpu0_ITLB AVERAGE MISS LATENCY: 5.62978 cycles
cpu0_DTLB TOTAL       ACCESS:   29883536  HIT:   25612368  MISS:    4271168  iACCESS:          0  iHIT:          0  iMISS:          0  dACCESS:   29883536  dHIT:   25612368  dMISS:    4271168  itACCESS:          0  itHIT:          0  itMISS:          0  dtACCESS:          0  dtHIT:          0  dtMISS:          0
cpu0_DTLB LOAD         ACCESS:   29883536  HIT:   25612368  MISS:    4271168  iACCESS:          0  iHIT:          0  iMISS:          0  dACCESS:   29883536  dHIT:   25612368  dMISS:    4271168  itACCESS:          0  itHIT:          0  itMISS:          0  dtACCESS:          0  dtHIT:          0  dtMISS:          0
cpu0_DTLB RFO          ACCESS:          0  HIT:          0  MISS:          0  iACCESS:          0  iHIT:          0  iMISS:          0  dACCESS:          0  dHIT:          0  dMISS:          0  itACCESS:          0  itHIT:          0  itMISS:          0  dtACCESS:          0  dtHIT:          0  dtMISS:          0
cpu0_DTLB PREFETCH     ACCESS:          0  HIT:          0  MISS:          0  iACCESS:          0  iHIT:          0  iMISS:          0  dACCESS:          0  dHIT:          0  dMISS:          0  itACCESS:          0  itHIT:          0  itMISS:          0  dtACCESS:          0  dtHIT:          0  dtMISS:          0
cpu0_DTLB WRITE        ACCESS:          0  HIT:          0  MISS:          0  iACCESS:          0  iHIT:          0  iMISS:          0  dACCESS:          0  dHIT:          0  dMISS:          0  itACCESS:          0  itHIT:          0  itMISS:          0  dtACCESS:          0  dtHIT:          0  dtMISS:          0
cpu0_DTLB TRANSLATION  ACCESS:          0  HIT:          0  MISS:          0  iACCESS:          0  iHIT:          0  iMISS:          0  dACCESS:          0  dHIT:          0  dMISS:          0  itACCESS:          0  itHIT:          0  itMISS:          0  dtACCESS:          0  dtHIT:          0  dtMISS:          0
cpu0_DTLB PREFETCH  REQUESTED:          0  ISSUED:          0  CROSSED:          0  USEFUL:          0  USELESS:          0
cpu0_DTLB AVERAGE iMISS LATENCY: 0 cycles
cpu0_DTLB AVERAGE dMISS LATENCY: 8.25095 cycles
cpu0_DTLB AVERAGE itMISS LATENCY: 0 cycles
cpu0_DTLB AVERAGE dtMISS LATENCY: 0 cycles
cpu0_DTLB PAGE CROSSINGS (TLB HIT):         0 
cpu0_DTLB PAGE CROSSINGS (TLB MISS):         0 
cpu0_DTLB AVERAGE MISS LATENCY: 8.25095 cycles
cpu0_STLB TOTAL       ACCESS:    2634772  HIT:    2410122  MISS:     224650  iACCESS:     356873  iHIT:     270750  iMISS:      86123  dACCESS:    2277899  dHIT:    2139372  dMISS:     138527  itACCESS:          0  itHIT:          0  itMISS:          0  dtACCESS:          0  dtHIT:          0  dtMISS:          0
cpu0_STLB LOAD         ACCESS:    2634772  HIT:    2410122  MISS:     224650  iACCESS:     356873  iHIT:     270750  iMISS:      86123  dACCESS:    2277899  dHIT:    2139372  dMISS:     138527  itACCESS:          0  itHIT:          0  itMISS:          0  dtACCESS:          0  dtHIT:          0  dtMISS:          0
cpu0_STLB RFO          ACCESS:          0  HIT:          0  MISS:          0  iACCESS:          0  iHIT:          0  iMISS:          0  dACCESS:          0  dHIT:          0  dMISS:          0  itACCESS:          0  itHIT:          0  itMISS:          0  dtACCESS:          0  dtHIT:          0  dtMISS:          0
cpu0_STLB PREFETCH     ACCESS:          0  HIT:          0  MISS:          0  iACCESS:          0  iHIT:          0  iMISS:          0  dACCESS:          0  dHIT:          0  dMISS:          0  itACCESS:          0  itHIT:          0  itMISS:          0  dtACCESS:          0  dtHIT:          0  dtMISS:          0
cpu0_STLB WRITE        ACCESS:          0  HIT:          0  MISS:          0  iACCESS:          0  iHIT:          0  iMISS:          0  dACCESS:          0  dHIT:          0  dMISS:          0  itACCESS:          0  itHIT:          0  itMISS:          0  dtACCESS:          0  dtHIT:          0  dtMISS:          0
cpu0_STLB TRANSLATION  ACCESS:          0  HIT:          0  MISS:          0  iACCESS:          0  iHIT:          0  iMISS:          0  dACCESS:          0  dHIT:          0  dMISS:          0  itACCESS:          0  itHIT:          0  itMISS:          0  dtACCESS:          0  dtHIT:          0  dtMISS:          0
cpu0_STLB PREFETCH  REQUESTED:          0  ISSUED:          0  CROSSED:          0  USEFUL:          0  USELESS:          0
cpu0_STLB AVERAGE iMISS LATENCY: 31.3037 cycles
cpu0_STLB AVERAGE dMISS LATENCY: 74.8978 cycles
cpu0_STLB AVERAGE itMISS LATENCY: 0 cycles
cpu0_STLB AVERAGE dtMISS LATENCY: 0 cycles
cpu0_STLB PAGE CROSSINGS (TLB HIT):         0 
cpu0_STLB PAGE CROSSINGS (TLB MISS):         0 
cpu0_STLB AVERAGE MISS LATENCY: 106.202 cycles
cpu0_L1D TOTAL       ACCESS:   45721588  HIT:   39050577  MISS:    6671011  iACCESS:          0  iHIT:          0  iMISS:          0  dACCESS:   45437199  dHIT:   39023042  dMISS:    6414157  itACCESS:      92556  itHIT:      15153  itMISS:      77403  dtACCESS:     191833  dtHIT:      12382  dtMISS:     179451
cpu0_L1D LOAD         ACCESS:   22042561  HIT:   18226450  MISS:    3816111  iACCESS:          0  iHIT:          0  iMISS:          0  dACCESS:   22042561  dHIT:   18226450  dMISS:    3816111  itACCESS:          0  itHIT:          0  itMISS:          0  dtACCESS:          0  dtHIT:          0  dtMISS:          0
cpu0_L1D RFO          ACCESS:          0  HIT:          0  MISS:          0  iACCESS:          0  iHIT:          0  iMISS:          0  dACCESS:          0  dHIT:          0  dMISS:          0  itACCESS:          0  itHIT:          0  itMISS:          0  dtACCESS:          0  dtHIT:          0  dtMISS:          0
cpu0_L1D PREFETCH     ACCESS:   13540886  HIT:   11418360  MISS:    2122526  iACCESS:          0  iHIT:          0  iMISS:          0  dACCESS:   13540886  dHIT:   11418360  dMISS:    2122526  itACCESS:          0  itHIT:          0  itMISS:          0  dtACCESS:          0  dtHIT:          0  dtMISS:          0
cpu0_L1D WRITE        ACCESS:    9853752  HIT:    9378232  MISS:     475520  iACCESS:          0  iHIT:          0  iMISS:          0  dACCESS:    9853752  dHIT:    9378232  dMISS:     475520  itACCESS:          0  itHIT:          0  itMISS:          0  dtACCESS:          0  dtHIT:          0  dtMISS:          0
cpu0_L1D TRANSLATION  ACCESS:     284389  HIT:      27535  MISS:     256854  iACCESS:          0  iHIT:          0  iMISS:          0  dACCESS:          0  dHIT:          0  dMISS:          0  itACCESS:      92556  itHIT:      15153  itMISS:      77403  dtACCESS:     191833  dtHIT:      12382  dtMISS:     179451
cpu0_L1D PREFETCH  REQUESTED:   22042561  ISSUED:   17556819  CROSSED:          0  USEFUL:     279113  USELESS:     701875
cpu0_L1D AVERAGE iMISS LATENCY: 0 cycles
cpu0_L1D AVERAGE dMISS LATENCY: 28.973 cycles
cpu0_L1D AVERAGE itMISS LATENCY: 0.943067 cycles
cpu0_L1D AVERAGE dtMISS LATENCY: 2.24404 cycles
cpu0_L1D PAGE CROSSINGS (TLB HIT):         0 
cpu0_L1D PAGE CROSSINGS (TLB MISS):         0 
cpu0_L1D AVERAGE MISS LATENCY: 32.1601 cycles
cpu0_L2C TOTAL       ACCESS:    8296783  HIT:    2874229  MISS:    5422554  iACCESS:    3046577  iHIT:     977568  iMISS:    2069009  dACCESS:    4999886  dHIT:    1767110  dMISS:    3232776  itACCESS:      77403  itHIT:      40742  itMISS:      36661  dtACCESS:     172917  dtHIT:      88809  dtMISS:      84108
cpu0_L2C LOAD         ACCESS:    3164424  HIT:    1363087  MISS:    1801337  iACCESS:     694017  iHIT:     192121  iMISS:     501896  dACCESS:    2470407  dHIT:    1170966  dMISS:    1299441  itACCESS:          0  itHIT:          0  itMISS:          0  dtACCESS:          0  dtHIT:          0  dtMISS:          0
cpu0_L2C RFO          ACCESS:     172111  HIT:      23673  MISS:     148438  iACCESS:          0  iHIT:          0  iMISS:          0  dACCESS:     172111  dHIT:      23673  dMISS:     148438  itACCESS:          0  itHIT:          0  itMISS:          0  dtACCESS:          0  dtHIT:          0  dtMISS:          0
cpu0_L2C PREFETCH     ACCESS:    4462892  HIT:    1247877  MISS:    3215015  iACCESS:    2352560  iHIT:     785447  iMISS:    1567113  dACCESS:    2110332  dHIT:     462430  dMISS:    1647902  itACCESS:          0  itHIT:          0  itMISS:          0  dtACCESS:          0  dtHIT:          0  dtMISS:          0
cpu0_L2C WRITE        ACCESS:     247036  HIT:     110041  MISS:     136995  iACCESS:          0  iHIT:          0  iMISS:          0  dACCESS:     247036  dHIT:     110041  dMISS:     136995  itACCESS:          0  itHIT:          0  itMISS:          0  dtACCESS:          0  dtHIT:          0  dtMISS:          0
cpu0_L2C TRANSLATION  ACCESS:     250320  HIT:     129551  MISS:     120769  iACCESS:          0  iHIT:          0  iMISS:          0  dACCESS:          0  dHIT:          0  dMISS:          0  itACCESS:      77403  itHIT:      40742  itMISS:      36661  dtACCESS:     172917  dtHIT:      88809  dtMISS:      84108
cpu0_L2C PREFETCH  REQUESTED:    1355080  ISSUED:    1354999  CROSSED:          0  USEFUL:     353847  USELESS:     370393
cpu0_L2C AVERAGE iMISS LATENCY: 23.1681 cycles
cpu0_L2C AVERAGE dMISS LATENCY: 40.5186 cycles
cpu0_L2C AVERAGE itMISS LATENCY: 1.02454 cycles
cpu0_L2C AVERAGE dtMISS LATENCY: 2.45687 cycles
cpu0_L2C PAGE CROSSINGS (TLB HIT):         0 
cpu0_L2C PAGE CROSSINGS (TLB MISS):         0 
cpu0_L2C AVERAGE MISS LATENCY: 67.1681 cycles
LLC TOTAL       ACCESS:    5308323  HIT:    3645966  MISS:    1662357  iACCESS:    1994912  iHIT:    1407256  iMISS:     587656  dACCESS:    3192642  dHIT:    2207751  dMISS:     984891  itACCESS:      36661  itHIT:       8893  itMISS:      27768  dtACCESS:      84108  dtHIT:      22066  dtMISS:      62042
LLC LOAD         ACCESS:    1796117  HIT:    1421372  MISS:     374745  iACCESS:     500427  iHIT:     378653  iMISS:     121774  dACCESS:    1295690  dHIT:    1042719  dMISS:     252971  itACCESS:          0  itHIT:          0  itMISS:          0  dtACCESS:          0  dtHIT:          0  dtMISS:          0
LLC RFO          ACCESS:     148436  HIT:      84486  MISS:      63950  iACCESS:          0  iHIT:          0  iMISS:          0  dACCESS:     148436  dHIT:      84486  dMISS:      63950  itACCESS:          0  itHIT:          0  itMISS:          0  dtACCESS:          0  dtHIT:          0  dtMISS:          0
LLC PREFETCH     ACCESS:    3047687  HIT:    1916356  MISS:    1131331  iACCESS:    1494485  iHIT:    1028603  iMISS:     465882  dACCESS:    1553202  dHIT:     887753  dMISS:     665449  itACCESS:          0  itHIT:          0  itMISS:          0  dtACCESS:          0  dtHIT:          0  dtMISS:          0
LLC WRITE        ACCESS:     195314  HIT:     192793  MISS:       2521  iACCESS:          0  iHIT:          0  iMISS:          0  dACCESS:     195314  dHIT:     192793  dMISS:       2521  itACCESS:          0  itHIT:          0  itMISS:          0  dtACCESS:          0  dtHIT:          0  dtMISS:          0
LLC TRANSLATION  ACCESS:     120769  HIT:      30959  MISS:      89810  iACCESS:          0  iHIT:          0  iMISS:          0  dACCESS:          0  dHIT:          0  dMISS:          0  itACCESS:      36661  itHIT:       8893  itMISS:      27768  dtACCESS:      84108  dtHIT:      22066  dtMISS:      62042
LLC PREFETCH  REQUESTED:          0  ISSUED:          0  CROSSED:          0  USEFUL:          0  USELESS:          0
LLC AVERAGE iMISS LATENCY: 52.2772 cycles
LLC AVERAGE dMISS LATENCY: 97.9103 cycles
LLC AVERAGE itMISS LATENCY: 2.90769 cycles
LLC AVERAGE dtMISS LATENCY: 7.01986 cycles
LLC PAGE CROSSINGS (TLB HIT):         0 
LLC PAGE CROSSINGS (TLB MISS):         0 
LLC AVERAGE MISS LATENCY: 160.115 cycles

PageTableWalker TOTAL       ACCESS:     101597  
PageTableWalker AVERAGE LATENCY: 3.91866 cycles
PageTableWalker TOTAL LATENCY: 398124 cycles

DRAM Statistics
Channel 0
 RQ ROW_BUFFER_HIT:     485324
  ROW_BUFFER_MISS:    1164499
 AVG DBUS CONGESTED CYCLE:    3.64317
 WQ ROW_BUFFER_HIT:      39285
  ROW_BUFFER_MISS:      32596  FULL:          0

