last_page:0x200000000000000
VMEM_RES_CAP:0x100000
PAGE_SIZE:4096
LOG2_PAGE_SIZE:12
LOG2_PAGE_TABLE_SIZE:9
page_table_levels:5
WARNING: physical memory size is smaller than virtual memory size
FDiP enabled with aggresivity 16

*** ChampSim Multicore Out-of-Order Simulator ***

Warmup Instructions: 50000000
Simulation Instructions: 100000000
Number of CPUs: 1
Small page size: 4096
Large page size: 2097152

CPU 0 Bimodal branch predictor
Basic BTB sets: 1024 ways: 8 indirect buffer size: 4096 RAS size: 64
Instruction page size distrubution: 0
Loading instruction page size distribution from /home/bsc/bsc018186/scratch/itp_asplos25_AE/dump/srv276_ap.pdst
Data page size distrubution: 0
Loading data page size distribution from /home/bsc/bsc018186/scratch/itp_asplos25_AE/dump/srv276_ap.pdst
cpu0_L2C IP-based stride prefetcher
cpu0_L1D next line prefetcher
CHiRPing...
cpu0_L1I next line prefetcher
Off-chip DRAM Size: 4 GiB Channels: 1 Width: 64-bit Data Rate: 3200 MT/s
Heartbeat CPU 0 instructions: 10000000 cycles: 2510023 heartbeat IPC: 3.98403 cumulative IPC: 3.98403 (Simulation time: 0 hr 0 min 38 sec) 
Heartbeat CPU 0 instructions: 20000001 cycles: 5010530 heartbeat IPC: 3.99919 cumulative IPC: 3.9916 (Simulation time: 0 hr 1 min 18 sec) 
Heartbeat CPU 0 instructions: 30000003 cycles: 7511221 heartbeat IPC: 3.9989 cumulative IPC: 3.99403 (Simulation time: 0 hr 1 min 58 sec) 
Heartbeat CPU 0 instructions: 40000001 cycles: 10014869 heartbeat IPC: 3.99418 cumulative IPC: 3.99407 (Simulation time: 0 hr 2 min 39 sec) 
Heartbeat CPU 0 instructions: 50000002 cycles: 12515612 heartbeat IPC: 3.99882 cumulative IPC: 3.99502 (Simulation time: 0 hr 3 min 20 sec) 
Warmup finished CPU 0 instructions: 50000002 cycles: 12515613 cumulative IPC: 3.99502 (Simulation time: 0 hr 3 min 20 sec) 

Warmup complete CPU 0 instructions: 50000002 cycles: 12515613 (Simulation time: 0 hr 3 min 20 sec) 

Heartbeat CPU 0 instructions: 60000000 cycles: 37793679 heartbeat IPC: 0.3956 cumulative IPC: 0.3956 (Simulation time: 0 hr 4 min 39 sec) 
Heartbeat CPU 0 instructions: 70000001 cycles: 61985813 heartbeat IPC: 0.413358 cumulative IPC: 0.404284 (Simulation time: 0 hr 5 min 58 sec) 
Heartbeat CPU 0 instructions: 80000000 cycles: 82657934 heartbeat IPC: 0.483744 cumulative IPC: 0.427702 (Simulation time: 0 hr 7 min 13 sec) 
Heartbeat CPU 0 instructions: 90000000 cycles: 88916489 heartbeat IPC: 1.59782 cumulative IPC: 0.523555 (Simulation time: 0 hr 8 min 8 sec) 
Heartbeat CPU 0 instructions: 100000002 cycles: 99139137 heartbeat IPC: 0.978221 cumulative IPC: 0.577211 (Simulation time: 0 hr 9 min 2 sec) 
*** Reached end of trace: /gpfs/projects/bsc18/MN4/bsc18/romol/ChampSim/traces/qualcomm_srv/srv276_ap.champsimtrace.xz
Heartbeat CPU 0 instructions: 110000001 cycles: 122790081 heartbeat IPC: 0.422817 cumulative IPC: 0.544097 (Simulation time: 0 hr 10 min 22 sec) 
Heartbeat CPU 0 instructions: 120000003 cycles: 148380573 heartbeat IPC: 0.390771 cumulative IPC: 0.515218 (Simulation time: 0 hr 11 min 45 sec) 
Heartbeat CPU 0 instructions: 130000000 cycles: 173970612 heartbeat IPC: 0.390777 cumulative IPC: 0.495495 (Simulation time: 0 hr 13 min 7 sec) 
Heartbeat CPU 0 instructions: 140000003 cycles: 198140390 heartbeat IPC: 0.41374 cumulative IPC: 0.48485 (Simulation time: 0 hr 14 min 27 sec) 
Heartbeat CPU 0 instructions: 150000002 cycles: 221441821 heartbeat IPC: 0.429159 cumulative IPC: 0.478638 (Simulation time: 0 hr 15 min 46 sec) 
Simulation finished CPU 0 instructions: 100000000 cycles: 208926209 cumulative IPC: 0.478638 (Simulation time: 0 hr 15 min 46 sec) 

Simulation complete CPU 0 instructions: 100000000 cycles: 208926209 (Simulation time: 0 hr 15 min 46 sec) 


ChampSim completed all CPUs

Saving instructions large page distribution to /home/bsc/bsc018186/scratch/itp_asplos25_AE/dump/srv276_ap.pdst...
Saving data large page distribution to /home/bsc/bsc018186/scratch/itp_asplos25_AE/dump/srv276_ap.pdst...
=== Simulation ===
CPU 0 runs /gpfs/projects/bsc18/MN4/bsc18/romol/ChampSim/traces/qualcomm_srv/srv276_ap.champsimtrace.xz

Region of Interest Statistics

CPU 0 cumulative IPC: 0.478638 instructions: 100000000 cycles: 208926209
CPU 0 Branch Prediction Accuracy: 83.3312% MPKI: 32.6245 Average ROB Occupancy at Mispredict: 12.2939
Branch type MPKI
BRANCH_DIRECT_JUMP: 0.994901
BRANCH_INDIRECT: 16.1841
BRANCH_CONDITIONAL: 11.102
BRANCH_DIRECT_CALL: 1.82731
BRANCH_INDIRECT_CALL: 1.13042
BRANCH_RETURN: 1.38584

Instructions large pages: 0
Instructions small pages: 1471
Large page distribution for instructions: 0%

Data large pages: 0
Data small pages: 5292
Large page distribution for data: 0%

cpu0_L1I TOTAL       ACCESS:   30559532  HIT:   24947997  MISS:    5611535  iACCESS:   30559532  iHIT:   24947997  iMISS:    5611535  dACCESS:          0  dHIT:          0  dMISS:          0  itACCESS:          0  itHIT:          0  itMISS:          0  dtACCESS:          0  dtHIT:          0  dtMISS:          0
cpu0_L1I LOAD         ACCESS:    7059304  HIT:    5499390  MISS:    1559914  iACCESS:    7059304  iHIT:    5499390  iMISS:    1559914  dACCESS:          0  dHIT:          0  dMISS:          0  itACCESS:          0  itHIT:          0  itMISS:          0  dtACCESS:          0  dtHIT:          0  dtMISS:          0
cpu0_L1I RFO          ACCESS:          0  HIT:          0  MISS:          0  iACCESS:          0  iHIT:          0  iMISS:          0  dACCESS:          0  dHIT:          0  dMISS:          0  itACCESS:          0  itHIT:          0  itMISS:          0  dtACCESS:          0  dtHIT:          0  dtMISS:          0
cpu0_L1I PREFETCH     ACCESS:   23500228  HIT:   19448607  MISS:    4051621  iACCESS:   23500228  iHIT:   19448607  iMISS:    4051621  dACCESS:          0  dHIT:          0  dMISS:          0  itACCESS:          0  itHIT:          0  itMISS:          0  dtACCESS:          0  dtHIT:          0  dtMISS:          0
cpu0_L1I WRITE        ACCESS:          0  HIT:          0  MISS:          0  iACCESS:          0  iHIT:          0  iMISS:          0  dACCESS:          0  dHIT:          0  dMISS:          0  itACCESS:          0  itHIT:          0  itMISS:          0  dtACCESS:          0  dtHIT:          0  dtMISS:          0
cpu0_L1I TRANSLATION  ACCESS:          0  HIT:          0  MISS:          0  iACCESS:          0  iHIT:          0  iMISS:          0  dACCESS:          0  dHIT:          0  dMISS:          0  itACCESS:          0  itHIT:          0  itMISS:          0  dtACCESS:          0  dtHIT:          0  dtMISS:          0
cpu0_L1I PREFETCH  REQUESTED:   25073341  ISSUED:   25073139  CROSSED:          0  USEFUL:    1384438  USELESS:     502503
cpu0_L1I AVERAGE iMISS LATENCY: 25.1186 cycles
cpu0_L1I AVERAGE dMISS LATENCY: 0 cycles
cpu0_L1I AVERAGE itMISS LATENCY: 0 cycles
cpu0_L1I AVERAGE dtMISS LATENCY: 0 cycles
cpu0_L1I PAGE CROSSINGS (TLB HIT):         0 
cpu0_L1I PAGE CROSSINGS (TLB MISS):         0 
cpu0_L1I AVERAGE MISS LATENCY: 25.1186 cycles
cpu0_ITLB TOTAL       ACCESS:   26274542  HIT:   24903914  MISS:    1370628  iACCESS:   26274542  iHIT:   24903914  iMISS:    1370628  dACCESS:          0  dHIT:          0  dMISS:          0  itACCESS:          0  itHIT:          0  itMISS:          0  dtACCESS:          0  dtHIT:          0  dtMISS:          0
cpu0_ITLB LOAD         ACCESS:   26274542  HIT:   24903914  MISS:    1370628  iACCESS:   26274542  iHIT:   24903914  iMISS:    1370628  dACCESS:          0  dHIT:          0  dMISS:          0  itACCESS:          0  itHIT:          0  itMISS:          0  dtACCESS:          0  dtHIT:          0  dtMISS:          0
cpu0_ITLB RFO          ACCESS:          0  HIT:          0  MISS:          0  iACCESS:          0  iHIT:          0  iMISS:          0  dACCESS:          0  dHIT:          0  dMISS:          0  itACCESS:          0  itHIT:          0  itMISS:          0  dtACCESS:          0  dtHIT:          0  dtMISS:          0
cpu0_ITLB PREFETCH     ACCESS:          0  HIT:          0  MISS:          0  iACCESS:          0  iHIT:          0  iMISS:          0  dACCESS:          0  dHIT:          0  dMISS:          0  itACCESS:          0  itHIT:          0  itMISS:          0  dtACCESS:          0  dtHIT:          0  dtMISS:          0
cpu0_ITLB WRITE        ACCESS:          0  HIT:          0  MISS:          0  iACCESS:          0  iHIT:          0  iMISS:          0  dACCESS:          0  dHIT:          0  dMISS:          0  itACCESS:          0  itHIT:          0  itMISS:          0  dtACCESS:          0  dtHIT:          0  dtMISS:          0
cpu0_ITLB TRANSLATION  ACCESS:          0  HIT:          0  MISS:          0  iACCESS:          0  iHIT:          0  iMISS:          0  dACCESS:          0  dHIT:          0  dMISS:          0  itACCESS:          0  itHIT:          0  itMISS:          0  dtACCESS:          0  dtHIT:          0  dtMISS:          0
cpu0_ITLB PREFETCH  REQUESTED:          0  ISSUED:          0  CROSSED:          0  USEFUL:     236854  USELESS:      49810
cpu0_ITLB AVERAGE iMISS LATENCY: 10.7711 cycles
cpu0_ITLB AVERAGE dMISS LATENCY: 0 cycles
cpu0_ITLB AVERAGE itMISS LATENCY: 0 cycles
cpu0_ITLB AVERAGE dtMISS LATENCY: 0 cycles
cpu0_ITLB PAGE CROSSINGS (TLB HIT):         0 
cpu0_ITLB PAGE CROSSINGS (TLB MISS):         0 
cpu0_ITLB AVERAGE MISS LATENCY: 10.7711 cycles
cpu0_DTLB TOTAL       ACCESS:   31788380  HIT:   27768318  MISS:    4020062  iACCESS:          0  iHIT:          0  iMISS:          0  dACCESS:   31788380  dHIT:   27768318  dMISS:    4020062  itACCESS:          0  itHIT:          0  itMISS:          0  dtACCESS:          0  dtHIT:          0  dtMISS:          0
cpu0_DTLB LOAD         ACCESS:   31788380  HIT:   27768318  MISS:    4020062  iACCESS:          0  iHIT:          0  iMISS:          0  dACCESS:   31788380  dHIT:   27768318  dMISS:    4020062  itACCESS:          0  itHIT:          0  itMISS:          0  dtACCESS:          0  dtHIT:          0  dtMISS:          0
cpu0_DTLB RFO          ACCESS:          0  HIT:          0  MISS:          0  iACCESS:          0  iHIT:          0  iMISS:          0  dACCESS:          0  dHIT:          0  dMISS:          0  itACCESS:          0  itHIT:          0  itMISS:          0  dtACCESS:          0  dtHIT:          0  dtMISS:          0
cpu0_DTLB PREFETCH     ACCESS:          0  HIT:          0  MISS:          0  iACCESS:          0  iHIT:          0  iMISS:          0  dACCESS:          0  dHIT:          0  dMISS:          0  itACCESS:          0  itHIT:          0  itMISS:          0  dtACCESS:          0  dtHIT:          0  dtMISS:          0
cpu0_DTLB WRITE        ACCESS:          0  HIT:          0  MISS:          0  iACCESS:          0  iHIT:          0  iMISS:          0  dACCESS:          0  dHIT:          0  dMISS:          0  itACCESS:          0  itHIT:          0  itMISS:          0  dtACCESS:          0  dtHIT:          0  dtMISS:          0
cpu0_DTLB TRANSLATION  ACCESS:          0  HIT:          0  MISS:          0  iACCESS:          0  iHIT:          0  iMISS:          0  dACCESS:          0  dHIT:          0  dMISS:          0  itACCESS:          0  itHIT:          0  itMISS:          0  dtACCESS:          0  dtHIT:          0  dtMISS:          0
cpu0_DTLB PREFETCH  REQUESTED:          0  ISSUED:          0  CROSSED:          0  USEFUL:          0  USELESS:          0
cpu0_DTLB AVERAGE iMISS LATENCY: 0 cycles
cpu0_DTLB AVERAGE dMISS LATENCY: 12.3117 cycles
cpu0_DTLB AVERAGE itMISS LATENCY: 0 cycles
cpu0_DTLB AVERAGE dtMISS LATENCY: 0 cycles
cpu0_DTLB PAGE CROSSINGS (TLB HIT):         0 
cpu0_DTLB PAGE CROSSINGS (TLB MISS):         0 
cpu0_DTLB AVERAGE MISS LATENCY: 12.3117 cycles
cpu0_STLB TOTAL       ACCESS:    2336389  HIT:    2117305  MISS:     219084  iACCESS:     286669  iHIT:     209205  iMISS:      77464  dACCESS:    2049720  dHIT:    1908100  dMISS:     141620  itACCESS:          0  itHIT:          0  itMISS:          0  dtACCESS:          0  dtHIT:          0  dtMISS:          0
cpu0_STLB LOAD         ACCESS:    2336389  HIT:    2117305  MISS:     219084  iACCESS:     286669  iHIT:     209205  iMISS:      77464  dACCESS:    2049720  dHIT:    1908100  dMISS:     141620  itACCESS:          0  itHIT:          0  itMISS:          0  dtACCESS:          0  dtHIT:          0  dtMISS:          0
cpu0_STLB RFO          ACCESS:          0  HIT:          0  MISS:          0  iACCESS:          0  iHIT:          0  iMISS:          0  dACCESS:          0  dHIT:          0  dMISS:          0  itACCESS:          0  itHIT:          0  itMISS:          0  dtACCESS:          0  dtHIT:          0  dtMISS:          0
cpu0_STLB PREFETCH     ACCESS:          0  HIT:          0  MISS:          0  iACCESS:          0  iHIT:          0  iMISS:          0  dACCESS:          0  dHIT:          0  dMISS:          0  itACCESS:          0  itHIT:          0  itMISS:          0  dtACCESS:          0  dtHIT:          0  dtMISS:          0
cpu0_STLB WRITE        ACCESS:          0  HIT:          0  MISS:          0  iACCESS:          0  iHIT:          0  iMISS:          0  dACCESS:          0  dHIT:          0  dMISS:          0  itACCESS:          0  itHIT:          0  itMISS:          0  dtACCESS:          0  dtHIT:          0  dtMISS:          0
cpu0_STLB TRANSLATION  ACCESS:          0  HIT:          0  MISS:          0  iACCESS:          0  iHIT:          0  iMISS:          0  dACCESS:          0  dHIT:          0  dMISS:          0  itACCESS:          0  itHIT:          0  itMISS:          0  dtACCESS:          0  dtHIT:          0  dtMISS:          0
cpu0_STLB PREFETCH  REQUESTED:          0  ISSUED:          0  CROSSED:          0  USEFUL:          0  USELESS:          0
cpu0_STLB AVERAGE iMISS LATENCY: 56.8771 cycles
cpu0_STLB AVERAGE dMISS LATENCY: 150.08 cycles
cpu0_STLB AVERAGE itMISS LATENCY: 0 cycles
cpu0_STLB AVERAGE dtMISS LATENCY: 0 cycles
cpu0_STLB PAGE CROSSINGS (TLB HIT):         0 
cpu0_STLB PAGE CROSSINGS (TLB MISS):         0 
cpu0_STLB AVERAGE MISS LATENCY: 206.957 cycles
cpu0_L1D TOTAL       ACCESS:   49022705  HIT:   41127302  MISS:    7895403  iACCESS:          0  iHIT:          0  iMISS:          0  dACCESS:   48696449  dHIT:   41104927  dMISS:    7591522  itACCESS:      90339  itHIT:      11195  itMISS:      79144  dtACCESS:     235917  dtHIT:      11180  dtMISS:     224737
cpu0_L1D LOAD         ACCESS:   24632179  HIT:   20346312  MISS:    4285867  iACCESS:          0  iHIT:          0  iMISS:          0  dACCESS:   24632179  dHIT:   20346312  dMISS:    4285867  itACCESS:          0  itHIT:          0  itMISS:          0  dtACCESS:          0  dtHIT:          0  dtMISS:          0
cpu0_L1D RFO          ACCESS:          0  HIT:          0  MISS:          0  iACCESS:          0  iHIT:          0  iMISS:          0  dACCESS:          0  dHIT:          0  dMISS:          0  itACCESS:          0  itHIT:          0  itMISS:          0  dtACCESS:          0  dtHIT:          0  dtMISS:          0
cpu0_L1D PREFETCH     ACCESS:   14588235  HIT:   11966407  MISS:    2621828  iACCESS:          0  iHIT:          0  iMISS:          0  dACCESS:   14588235  dHIT:   11966407  dMISS:    2621828  itACCESS:          0  itHIT:          0  itMISS:          0  dtACCESS:          0  dtHIT:          0  dtMISS:          0
cpu0_L1D WRITE        ACCESS:    9476035  HIT:    8792208  MISS:     683827  iACCESS:          0  iHIT:          0  iMISS:          0  dACCESS:    9476035  dHIT:    8792208  dMISS:     683827  itACCESS:          0  itHIT:          0  itMISS:          0  dtACCESS:          0  dtHIT:          0  dtMISS:          0
cpu0_L1D TRANSLATION  ACCESS:     326256  HIT:      22375  MISS:     303881  iACCESS:          0  iHIT:          0  iMISS:          0  dACCESS:          0  dHIT:          0  dMISS:          0  itACCESS:      90339  itHIT:      11195  itMISS:      79144  dtACCESS:     235917  dtHIT:      11180  dtMISS:     224737
cpu0_L1D PREFETCH  REQUESTED:   24632179  ISSUED:   19023899  CROSSED:          0  USEFUL:     278091  USELESS:     877392
cpu0_L1D AVERAGE iMISS LATENCY: 0 cycles
cpu0_L1D AVERAGE dMISS LATENCY: 29.6737 cycles
cpu0_L1D AVERAGE itMISS LATENCY: 1.49055 cycles
cpu0_L1D AVERAGE dtMISS LATENCY: 3.92331 cycles
cpu0_L1D PAGE CROSSINGS (TLB HIT):         0 
cpu0_L1D PAGE CROSSINGS (TLB MISS):         0 
cpu0_L1D AVERAGE MISS LATENCY: 35.0876 cycles
cpu0_L2C TOTAL       ACCESS:    7851009  HIT:    4852527  MISS:    2998482  iACCESS:    2423875  iHIT:    1412974  iMISS:    1010901  dACCESS:    5180446  dHIT:    3406742  dMISS:    1773704  itACCESS:      72495  itHIT:      11260  itMISS:      61235  dtACCESS:     174193  dtHIT:      21551  dtMISS:     152642
cpu0_L2C LOAD         ACCESS:    3248756  HIT:    2502977  MISS:     745779  iACCESS:     559441  iHIT:     351442  iMISS:     207999  dACCESS:    2689315  dHIT:    2151535  dMISS:     537780  itACCESS:          0  itHIT:          0  itMISS:          0  dtACCESS:          0  dtHIT:          0  dtMISS:          0
cpu0_L2C RFO          ACCESS:     182516  HIT:      77786  MISS:     104730  iACCESS:          0  iHIT:          0  iMISS:          0  dACCESS:     182516  dHIT:      77786  dMISS:     104730  itACCESS:          0  itHIT:          0  itMISS:          0  dtACCESS:          0  dtHIT:          0  dtMISS:          0
cpu0_L2C PREFETCH     ACCESS:    3916103  HIT:    1982833  MISS:    1933270  iACCESS:    1864434  iHIT:    1061532  iMISS:     802902  dACCESS:    2051669  dHIT:     921301  dMISS:    1130368  itACCESS:          0  itHIT:          0  itMISS:          0  dtACCESS:          0  dtHIT:          0  dtMISS:          0
cpu0_L2C WRITE        ACCESS:     256946  HIT:     256120  MISS:        826  iACCESS:          0  iHIT:          0  iMISS:          0  dACCESS:     256946  dHIT:     256120  dMISS:        826  itACCESS:          0  itHIT:          0  itMISS:          0  dtACCESS:          0  dtHIT:          0  dtMISS:          0
cpu0_L2C TRANSLATION  ACCESS:     246688  HIT:      32811  MISS:     213877  iACCESS:          0  iHIT:          0  iMISS:          0  dACCESS:          0  dHIT:          0  dMISS:          0  itACCESS:      72495  itHIT:      11260  itMISS:      61235  dtACCESS:     174193  dtHIT:      21551  dtMISS:     152642
cpu0_L2C PREFETCH  REQUESTED:    1057915  ISSUED:    1057735  CROSSED:          0  USEFUL:     241525  USELESS:     228020
cpu0_L2C AVERAGE iMISS LATENCY: 40.0586 cycles
cpu0_L2C AVERAGE dMISS LATENCY: 84.6763 cycles
cpu0_L2C AVERAGE itMISS LATENCY: 3.68615 cycles
cpu0_L2C AVERAGE dtMISS LATENCY: 9.75354 cycles
cpu0_L2C PAGE CROSSINGS (TLB HIT):         0 
cpu0_L2C PAGE CROSSINGS (TLB MISS):         0 
cpu0_L2C AVERAGE MISS LATENCY: 138.175 cycles
LLC TOTAL       ACCESS:    2996701  HIT:     902017  MISS:    2094684  iACCESS:     950484  iHIT:     290583  iMISS:     659901  dACCESS:    1832340  dHIT:     584789  dMISS:    1247551  itACCESS:      61235  itHIT:       5975  itMISS:      55260  dtACCESS:     152642  dtHIT:      20670  dtMISS:     131972
LLC LOAD         ACCESS:     740364  HIT:     228336  MISS:     512028  iACCESS:     207275  iHIT:      69145  iMISS:     138130  dACCESS:     533089  dHIT:     159191  dMISS:     373898  itACCESS:          0  itHIT:          0  itMISS:          0  dtACCESS:          0  dtHIT:          0  dtMISS:          0
LLC RFO          ACCESS:     104728  HIT:      25384  MISS:      79344  iACCESS:          0  iHIT:          0  iMISS:          0  dACCESS:     104728  dHIT:      25384  dMISS:      79344  itACCESS:          0  itHIT:          0  itMISS:          0  dtACCESS:          0  dtHIT:          0  dtMISS:          0
LLC PREFETCH     ACCESS:    1790132  HIT:     482504  MISS:    1307628  iACCESS:     743209  iHIT:     221438  iMISS:     521771  dACCESS:    1046923  dHIT:     261066  dMISS:     785857  itACCESS:          0  itHIT:          0  itMISS:          0  dtACCESS:          0  dtHIT:          0  dtMISS:          0
LLC WRITE        ACCESS:     147600  HIT:     139148  MISS:       8452  iACCESS:          0  iHIT:          0  iMISS:          0  dACCESS:     147600  dHIT:     139148  dMISS:       8452  itACCESS:          0  itHIT:          0  itMISS:          0  dtACCESS:          0  dtHIT:          0  dtMISS:          0
LLC TRANSLATION  ACCESS:     213877  HIT:      26645  MISS:     187232  iACCESS:          0  iHIT:          0  iMISS:          0  dACCESS:          0  dHIT:          0  dMISS:          0  itACCESS:      61235  itHIT:       5975  itMISS:      55260  dtACCESS:     152642  dtHIT:      20670  dtMISS:     131972
LLC PREFETCH  REQUESTED:          0  ISSUED:          0  CROSSED:          0  USEFUL:          0  USELESS:          0
LLC AVERAGE iMISS LATENCY: 48.4136 cycles
LLC AVERAGE dMISS LATENCY: 106.429 cycles
LLC AVERAGE itMISS LATENCY: 4.69733 cycles
LLC AVERAGE dtMISS LATENCY: 12.5237 cycles
LLC PAGE CROSSINGS (TLB HIT):         0 
LLC PAGE CROSSINGS (TLB MISS):         0 
LLC AVERAGE MISS LATENCY: 172.064 cycles

PageTableWalker TOTAL       ACCESS:     140467  
PageTableWalker AVERAGE LATENCY: 5.39852 cycles
PageTableWalker TOTAL LATENCY: 758313 cycles

DRAM Statistics
Channel 0
 RQ ROW_BUFFER_HIT:     513360
  ROW_BUFFER_MISS:    1556055
 AVG DBUS CONGESTED CYCLE:    3.66247
 WQ ROW_BUFFER_HIT:      44085
  ROW_BUFFER_MISS:      43178  FULL:          0

