last_page:0x200000000000000
VMEM_RES_CAP:0x100000
PAGE_SIZE:4096
LOG2_PAGE_SIZE:12
LOG2_PAGE_TABLE_SIZE:9
page_table_levels:5
WARNING: physical memory size is smaller than virtual memory size
FDiP enabled with aggresivity 16

*** ChampSim Multicore Out-of-Order Simulator ***

Warmup Instructions: 50000000
Simulation Instructions: 100000000
Number of CPUs: 1
Small page size: 4096
Large page size: 2097152

CPU 0 Bimodal branch predictor
Basic BTB sets: 1024 ways: 8 indirect buffer size: 4096 RAS size: 64
Instruction page size distrubution: 0
Loading instruction page size distribution from /home/bsc/bsc018186/scratch/itp_asplos25_AE/dump/srv222_ap.pdst
Data page size distrubution: 0
Loading data page size distribution from /home/bsc/bsc018186/scratch/itp_asplos25_AE/dump/srv222_ap.pdst
cpu0_L2C IP-based stride prefetcher
cpu0_L2C is using xPTP/LRU
	TLB_LOWER_STRESS_THRESHOLD:1
	TLB_UPPER_STRESS_THRESHOLD:9
	MIN_EVICTION_POSITION:4
cpu0_L1D next line prefetcher
cpu0_STLB using iTP with max lru@8
cpu0_STLB using iTP with instr@0 and data@2
Init sat counter with 3 bits (max:50).
cpu0_L1I next line prefetcher
Off-chip DRAM Size: 4 GiB Channels: 1 Width: 64-bit Data Rate: 3200 MT/s
Heartbeat CPU 0 instructions: 10000003 cycles: 2500251 heartbeat IPC: 3.9996 cumulative IPC: 3.9996 (Simulation time: 0 hr 0 min 38 sec) 
Heartbeat CPU 0 instructions: 20000003 cycles: 5000252 heartbeat IPC: 4 cumulative IPC: 3.9998 (Simulation time: 0 hr 1 min 17 sec) 
Heartbeat CPU 0 instructions: 30000002 cycles: 7500340 heartbeat IPC: 3.99986 cumulative IPC: 3.99982 (Simulation time: 0 hr 1 min 57 sec) 
Heartbeat CPU 0 instructions: 40000001 cycles: 10000364 heartbeat IPC: 3.99997 cumulative IPC: 3.99986 (Simulation time: 0 hr 2 min 38 sec) 
Heartbeat CPU 0 instructions: 50000001 cycles: 12500364 heartbeat IPC: 4 cumulative IPC: 3.99989 (Simulation time: 0 hr 3 min 20 sec) 
Warmup finished CPU 0 instructions: 50000001 cycles: 12500365 cumulative IPC: 3.99989 (Simulation time: 0 hr 3 min 20 sec) 

Warmup complete CPU 0 instructions: 50000001 cycles: 12500365 (Simulation time: 0 hr 3 min 20 sec) 

Heartbeat CPU 0 instructions: 60000000 cycles: 29756961 heartbeat IPC: 0.579489 cumulative IPC: 0.579489 (Simulation time: 0 hr 4 min 34 sec) 
Heartbeat CPU 0 instructions: 70000004 cycles: 46694736 heartbeat IPC: 0.590397 cumulative IPC: 0.584892 (Simulation time: 0 hr 5 min 48 sec) 
Heartbeat CPU 0 instructions: 80000000 cycles: 63360193 heartbeat IPC: 0.600044 cumulative IPC: 0.589857 (Simulation time: 0 hr 7 min 2 sec) 
Heartbeat CPU 0 instructions: 90000000 cycles: 81118825 heartbeat IPC: 0.563107 cumulative IPC: 0.582934 (Simulation time: 0 hr 8 min 17 sec) 
Heartbeat CPU 0 instructions: 100000000 cycles: 98356224 heartbeat IPC: 0.580134 cumulative IPC: 0.582372 (Simulation time: 0 hr 9 min 32 sec) 
*** Reached end of trace: /gpfs/projects/bsc18/MN4/bsc18/romol/ChampSim/traces/qualcomm_srv/srv222_ap.champsimtrace.xz
Heartbeat CPU 0 instructions: 110000000 cycles: 115004131 heartbeat IPC: 0.600677 cumulative IPC: 0.585345 (Simulation time: 0 hr 10 min 42 sec) 
Heartbeat CPU 0 instructions: 120000002 cycles: 132405775 heartbeat IPC: 0.574659 cumulative IPC: 0.583794 (Simulation time: 0 hr 11 min 51 sec) 
Heartbeat CPU 0 instructions: 130000001 cycles: 149987895 heartbeat IPC: 0.56876 cumulative IPC: 0.581871 (Simulation time: 0 hr 13 min 5 sec) 
Heartbeat CPU 0 instructions: 140000001 cycles: 166672377 heartbeat IPC: 0.59936 cumulative IPC: 0.583764 (Simulation time: 0 hr 14 min 17 sec) 
Heartbeat CPU 0 instructions: 150000000 cycles: 183872460 heartbeat IPC: 0.581393 cumulative IPC: 0.583526 (Simulation time: 0 hr 15 min 30 sec) 
Simulation finished CPU 0 instructions: 100000003 cycles: 171372097 cumulative IPC: 0.583526 (Simulation time: 0 hr 15 min 30 sec) 

Simulation complete CPU 0 instructions: 100000003 cycles: 171372097 (Simulation time: 0 hr 15 min 30 sec) 


ChampSim completed all CPUs

Saving instructions large page distribution to /home/bsc/bsc018186/scratch/itp_asplos25_AE/dump/srv222_ap.pdst...
Saving data large page distribution to /home/bsc/bsc018186/scratch/itp_asplos25_AE/dump/srv222_ap.pdst...
=== Simulation ===
CPU 0 runs /gpfs/projects/bsc18/MN4/bsc18/romol/ChampSim/traces/qualcomm_srv/srv222_ap.champsimtrace.xz

Region of Interest Statistics

CPU 0 cumulative IPC: 0.583526 instructions: 100000003 cycles: 171372097
CPU 0 Branch Prediction Accuracy: 80.1337% MPKI: 35.8772 Average ROB Occupancy at Mispredict: 10.452
Branch type MPKI
BRANCH_DIRECT_JUMP: 1.34829
BRANCH_INDIRECT: 17.9544
BRANCH_CONDITIONAL: 11.6356
BRANCH_DIRECT_CALL: 2.54634
BRANCH_INDIRECT_CALL: 0.66241
BRANCH_RETURN: 1.73014

Instructions large pages: 0
Instructions small pages: 1201
Large page distribution for instructions: 0%

Data large pages: 0
Data small pages: 5008
Large page distribution for data: 0%

cpu0_L1I TOTAL       ACCESS:   36252830  HIT:   28090702  MISS:    8162128  iACCESS:   36252830  iHIT:   28090702  iMISS:    8162128  dACCESS:          0  dHIT:          0  dMISS:          0  itACCESS:          0  itHIT:          0  itMISS:          0  dtACCESS:          0  dtHIT:          0  dtMISS:          0
cpu0_L1I LOAD         ACCESS:   10605041  HIT:    8368619  MISS:    2236422  iACCESS:   10605041  iHIT:    8368619  iMISS:    2236422  dACCESS:          0  dHIT:          0  dMISS:          0  itACCESS:          0  itHIT:          0  itMISS:          0  dtACCESS:          0  dtHIT:          0  dtMISS:          0
cpu0_L1I RFO          ACCESS:          0  HIT:          0  MISS:          0  iACCESS:          0  iHIT:          0  iMISS:          0  dACCESS:          0  dHIT:          0  dMISS:          0  itACCESS:          0  itHIT:          0  itMISS:          0  dtACCESS:          0  dtHIT:          0  dtMISS:          0
cpu0_L1I PREFETCH     ACCESS:   25647789  HIT:   19722083  MISS:    5925706  iACCESS:   25647789  iHIT:   19722083  iMISS:    5925706  dACCESS:          0  dHIT:          0  dMISS:          0  itACCESS:          0  itHIT:          0  itMISS:          0  dtACCESS:          0  dtHIT:          0  dtMISS:          0
cpu0_L1I WRITE        ACCESS:          0  HIT:          0  MISS:          0  iACCESS:          0  iHIT:          0  iMISS:          0  dACCESS:          0  dHIT:          0  dMISS:          0  itACCESS:          0  itHIT:          0  itMISS:          0  dtACCESS:          0  dtHIT:          0  dtMISS:          0
cpu0_L1I TRANSLATION  ACCESS:          0  HIT:          0  MISS:          0  iACCESS:          0  iHIT:          0  iMISS:          0  dACCESS:          0  dHIT:          0  dMISS:          0  itACCESS:          0  itHIT:          0  itMISS:          0  dtACCESS:          0  dtHIT:          0  dtMISS:          0
cpu0_L1I PREFETCH  REQUESTED:   28116517  ISSUED:   28116340  CROSSED:          0  USEFUL:    2017593  USELESS:     652145
cpu0_L1I AVERAGE iMISS LATENCY: 15.9744 cycles
cpu0_L1I AVERAGE dMISS LATENCY: 0 cycles
cpu0_L1I AVERAGE itMISS LATENCY: 0 cycles
cpu0_L1I AVERAGE dtMISS LATENCY: 0 cycles
cpu0_L1I PAGE CROSSINGS (TLB HIT):         0 
cpu0_L1I PAGE CROSSINGS (TLB MISS):         0 
cpu0_L1I AVERAGE MISS LATENCY: 15.9744 cycles
cpu0_ITLB TOTAL       ACCESS:   30329326  HIT:   28411893  MISS:    1917433  iACCESS:   30329326  iHIT:   28411893  iMISS:    1917433  dACCESS:          0  dHIT:          0  dMISS:          0  itACCESS:          0  itHIT:          0  itMISS:          0  dtACCESS:          0  dtHIT:          0  dtMISS:          0
cpu0_ITLB LOAD         ACCESS:   30329326  HIT:   28411893  MISS:    1917433  iACCESS:   30329326  iHIT:   28411893  iMISS:    1917433  dACCESS:          0  dHIT:          0  dMISS:          0  itACCESS:          0  itHIT:          0  itMISS:          0  dtACCESS:          0  dtHIT:          0  dtMISS:          0
cpu0_ITLB RFO          ACCESS:          0  HIT:          0  MISS:          0  iACCESS:          0  iHIT:          0  iMISS:          0  dACCESS:          0  dHIT:          0  dMISS:          0  itACCESS:          0  itHIT:          0  itMISS:          0  dtACCESS:          0  dtHIT:          0  dtMISS:          0
cpu0_ITLB PREFETCH     ACCESS:          0  HIT:          0  MISS:          0  iACCESS:          0  iHIT:          0  iMISS:          0  dACCESS:          0  dHIT:          0  dMISS:          0  itACCESS:          0  itHIT:          0  itMISS:          0  dtACCESS:          0  dtHIT:          0  dtMISS:          0
cpu0_ITLB WRITE        ACCESS:          0  HIT:          0  MISS:          0  iACCESS:          0  iHIT:          0  iMISS:          0  dACCESS:          0  dHIT:          0  dMISS:          0  itACCESS:          0  itHIT:          0  itMISS:          0  dtACCESS:          0  dtHIT:          0  dtMISS:          0
cpu0_ITLB TRANSLATION  ACCESS:          0  HIT:          0  MISS:          0  iACCESS:          0  iHIT:          0  iMISS:          0  dACCESS:          0  dHIT:          0  dMISS:          0  itACCESS:          0  itHIT:          0  itMISS:          0  dtACCESS:          0  dtHIT:          0  dtMISS:          0
cpu0_ITLB PREFETCH  REQUESTED:          0  ISSUED:          0  CROSSED:          0  USEFUL:     328847  USELESS:      64935
cpu0_ITLB AVERAGE iMISS LATENCY: 3.20536 cycles
cpu0_ITLB AVERAGE dMISS LATENCY: 0 cycles
cpu0_ITLB AVERAGE itMISS LATENCY: 0 cycles
cpu0_ITLB AVERAGE dtMISS LATENCY: 0 cycles
cpu0_ITLB PAGE CROSSINGS (TLB HIT):         0 
cpu0_ITLB PAGE CROSSINGS (TLB MISS):         0 
cpu0_ITLB AVERAGE MISS LATENCY: 3.20536 cycles
cpu0_DTLB TOTAL       ACCESS:   27926610  HIT:   25916352  MISS:    2010258  iACCESS:          0  iHIT:          0  iMISS:          0  dACCESS:   27926610  dHIT:   25916352  dMISS:    2010258  itACCESS:          0  itHIT:          0  itMISS:          0  dtACCESS:          0  dtHIT:          0  dtMISS:          0
cpu0_DTLB LOAD         ACCESS:   27926610  HIT:   25916352  MISS:    2010258  iACCESS:          0  iHIT:          0  iMISS:          0  dACCESS:   27926610  dHIT:   25916352  dMISS:    2010258  itACCESS:          0  itHIT:          0  itMISS:          0  dtACCESS:          0  dtHIT:          0  dtMISS:          0
cpu0_DTLB RFO          ACCESS:          0  HIT:          0  MISS:          0  iACCESS:          0  iHIT:          0  iMISS:          0  dACCESS:          0  dHIT:          0  dMISS:          0  itACCESS:          0  itHIT:          0  itMISS:          0  dtACCESS:          0  dtHIT:          0  dtMISS:          0
cpu0_DTLB PREFETCH     ACCESS:          0  HIT:          0  MISS:          0  iACCESS:          0  iHIT:          0  iMISS:          0  dACCESS:          0  dHIT:          0  dMISS:          0  itACCESS:          0  itHIT:          0  itMISS:          0  dtACCESS:          0  dtHIT:          0  dtMISS:          0
cpu0_DTLB WRITE        ACCESS:          0  HIT:          0  MISS:          0  iACCESS:          0  iHIT:          0  iMISS:          0  dACCESS:          0  dHIT:          0  dMISS:          0  itACCESS:          0  itHIT:          0  itMISS:          0  dtACCESS:          0  dtHIT:          0  dtMISS:          0
cpu0_DTLB TRANSLATION  ACCESS:          0  HIT:          0  MISS:          0  iACCESS:          0  iHIT:          0  iMISS:          0  dACCESS:          0  dHIT:          0  dMISS:          0  itACCESS:          0  itHIT:          0  itMISS:          0  dtACCESS:          0  dtHIT:          0  dtMISS:          0
cpu0_DTLB PREFETCH  REQUESTED:          0  ISSUED:          0  CROSSED:          0  USEFUL:          0  USELESS:          0
cpu0_DTLB AVERAGE iMISS LATENCY: 0 cycles
cpu0_DTLB AVERAGE dMISS LATENCY: 13.0958 cycles
cpu0_DTLB AVERAGE itMISS LATENCY: 0 cycles
cpu0_DTLB AVERAGE dtMISS LATENCY: 0 cycles
cpu0_DTLB PAGE CROSSINGS (TLB HIT):         0 
cpu0_DTLB PAGE CROSSINGS (TLB MISS):         0 
cpu0_DTLB AVERAGE MISS LATENCY: 13.0958 cycles
cpu0_STLB TOTAL       ACCESS:    1610766  HIT:    1400926  MISS:     209840  iACCESS:     393787  iHIT:     365824  iMISS:      27963  dACCESS:    1216979  dHIT:    1035102  dMISS:     181877  itACCESS:          0  itHIT:          0  itMISS:          0  dtACCESS:          0  dtHIT:          0  dtMISS:          0
cpu0_STLB LOAD         ACCESS:    1610766  HIT:    1400926  MISS:     209840  iACCESS:     393787  iHIT:     365824  iMISS:      27963  dACCESS:    1216979  dHIT:    1035102  dMISS:     181877  itACCESS:          0  itHIT:          0  itMISS:          0  dtACCESS:          0  dtHIT:          0  dtMISS:          0
cpu0_STLB RFO          ACCESS:          0  HIT:          0  MISS:          0  iACCESS:          0  iHIT:          0  iMISS:          0  dACCESS:          0  dHIT:          0  dMISS:          0  itACCESS:          0  itHIT:          0  itMISS:          0  dtACCESS:          0  dtHIT:          0  dtMISS:          0
cpu0_STLB PREFETCH     ACCESS:          0  HIT:          0  MISS:          0  iACCESS:          0  iHIT:          0  iMISS:          0  dACCESS:          0  dHIT:          0  dMISS:          0  itACCESS:          0  itHIT:          0  itMISS:          0  dtACCESS:          0  dtHIT:          0  dtMISS:          0
cpu0_STLB WRITE        ACCESS:          0  HIT:          0  MISS:          0  iACCESS:          0  iHIT:          0  iMISS:          0  dACCESS:          0  dHIT:          0  dMISS:          0  itACCESS:          0  itHIT:          0  itMISS:          0  dtACCESS:          0  dtHIT:          0  dtMISS:          0
cpu0_STLB TRANSLATION  ACCESS:          0  HIT:          0  MISS:          0  iACCESS:          0  iHIT:          0  iMISS:          0  dACCESS:          0  dHIT:          0  dMISS:          0  itACCESS:          0  itHIT:          0  itMISS:          0  dtACCESS:          0  dtHIT:          0  dtMISS:          0
cpu0_STLB PREFETCH  REQUESTED:          0  ISSUED:          0  CROSSED:          0  USEFUL:          0  USELESS:          0
cpu0_STLB AVERAGE iMISS LATENCY: 14.6518 cycles
cpu0_STLB AVERAGE dMISS LATENCY: 78.9397 cycles
cpu0_STLB AVERAGE itMISS LATENCY: 0 cycles
cpu0_STLB AVERAGE dtMISS LATENCY: 0 cycles
cpu0_STLB PAGE CROSSINGS (TLB HIT):         0 
cpu0_STLB PAGE CROSSINGS (TLB MISS):         0 
cpu0_STLB AVERAGE MISS LATENCY: 93.5914 cycles
cpu0_L1D TOTAL       ACCESS:   42470772  HIT:   38526755  MISS:    3944017  iACCESS:          0  iHIT:          0  iMISS:          0  dACCESS:   42186586  dHIT:   38509574  dMISS:    3677012  itACCESS:      31633  itHIT:       2744  itMISS:      28889  dtACCESS:     252553  dtHIT:      14437  dtMISS:     238116
cpu0_L1D LOAD         ACCESS:   19290207  HIT:   17615883  MISS:    1674324  iACCESS:          0  iHIT:          0  iMISS:          0  dACCESS:   19290207  dHIT:   17615883  dMISS:    1674324  itACCESS:          0  itHIT:          0  itMISS:          0  dtACCESS:          0  dtHIT:          0  dtMISS:          0
cpu0_L1D RFO          ACCESS:          0  HIT:          0  MISS:          0  iACCESS:          0  iHIT:          0  iMISS:          0  dACCESS:          0  dHIT:          0  dMISS:          0  itACCESS:          0  itHIT:          0  itMISS:          0  dtACCESS:          0  dtHIT:          0  dtMISS:          0
cpu0_L1D PREFETCH     ACCESS:   12781244  HIT:   11215400  MISS:    1565844  iACCESS:          0  iHIT:          0  iMISS:          0  dACCESS:   12781244  dHIT:   11215400  dMISS:    1565844  itACCESS:          0  itHIT:          0  itMISS:          0  dtACCESS:          0  dtHIT:          0  dtMISS:          0
cpu0_L1D WRITE        ACCESS:   10115135  HIT:    9678291  MISS:     436844  iACCESS:          0  iHIT:          0  iMISS:          0  dACCESS:   10115135  dHIT:    9678291  dMISS:     436844  itACCESS:          0  itHIT:          0  itMISS:          0  dtACCESS:          0  dtHIT:          0  dtMISS:          0
cpu0_L1D TRANSLATION  ACCESS:     284186  HIT:      17181  MISS:     267005  iACCESS:          0  iHIT:          0  iMISS:          0  dACCESS:          0  dHIT:          0  dMISS:          0  itACCESS:      31633  itHIT:       2744  itMISS:      28889  dtACCESS:     252553  dtHIT:      14437  dtMISS:     238116
cpu0_L1D PREFETCH  REQUESTED:   19290207  ISSUED:   17354069  CROSSED:          0  USEFUL:     311121  USELESS:     702537
cpu0_L1D AVERAGE iMISS LATENCY: 0 cycles
cpu0_L1D AVERAGE dMISS LATENCY: 35.7856 cycles
cpu0_L1D AVERAGE itMISS LATENCY: 0.708473 cycles
cpu0_L1D AVERAGE dtMISS LATENCY: 3.59914 cycles
cpu0_L1D PAGE CROSSINGS (TLB HIT):         0 
cpu0_L1D PAGE CROSSINGS (TLB MISS):         0 
cpu0_L1D AVERAGE MISS LATENCY: 40.0932 cycles
cpu0_L2C TOTAL       ACCESS:    7310866  HIT:    2490546  MISS:    4820320  iACCESS:    3397345  iHIT:    1388693  iMISS:    2008652  dACCESS:    3653475  dHIT:     936245  dMISS:    2717230  itACCESS:      28889  itHIT:      11221  itMISS:      17668  dtACCESS:     231157  dtHIT:     154387  dtMISS:      76770
cpu0_L2C LOAD         ACCESS:    1713005  HIT:     513376  MISS:    1199629  iACCESS:     766339  iHIT:     295541  iMISS:     470798  dACCESS:     946666  dHIT:     217835  dMISS:     728831  itACCESS:          0  itHIT:          0  itMISS:          0  dtACCESS:          0  dtHIT:          0  dtMISS:          0
cpu0_L2C RFO          ACCESS:     159487  HIT:      28908  MISS:     130579  iACCESS:          0  iHIT:          0  iMISS:          0  dACCESS:     159487  dHIT:      28908  dMISS:     130579  itACCESS:          0  itHIT:          0  itMISS:          0  dtACCESS:          0  dtHIT:          0  dtMISS:          0
cpu0_L2C PREFETCH     ACCESS:    4906717  HIT:    1667398  MISS:    3239319  iACCESS:    2631006  iHIT:    1093152  iMISS:    1537854  dACCESS:    2275711  dHIT:     574246  dMISS:    1701465  itACCESS:          0  itHIT:          0  itMISS:          0  dtACCESS:          0  dtHIT:          0  dtMISS:          0
cpu0_L2C WRITE        ACCESS:     271611  HIT:     115256  MISS:     156355  iACCESS:          0  iHIT:          0  iMISS:          0  dACCESS:     271611  dHIT:     115256  dMISS:     156355  itACCESS:          0  itHIT:          0  itMISS:          0  dtACCESS:          0  dtHIT:          0  dtMISS:          0
cpu0_L2C TRANSLATION  ACCESS:     260046  HIT:     165608  MISS:      94438  iACCESS:          0  iHIT:          0  iMISS:          0  dACCESS:          0  dHIT:          0  dMISS:          0  itACCESS:      28889  itHIT:      11221  itMISS:      17668  dtACCESS:     231157  dtHIT:     154387  dtMISS:      76770
cpu0_L2C PREFETCH  REQUESTED:    1533942  ISSUED:    1533875  CROSSED:          0  USEFUL:     403840  USELESS:     382750
cpu0_L2C AVERAGE iMISS LATENCY: 20.7296 cycles
cpu0_L2C AVERAGE dMISS LATENCY: 36.1576 cycles
cpu0_L2C AVERAGE itMISS LATENCY: 0.521867 cycles
cpu0_L2C AVERAGE dtMISS LATENCY: 2.49556 cycles
cpu0_L2C PAGE CROSSINGS (TLB HIT):         0 
cpu0_L2C PAGE CROSSINGS (TLB MISS):         0 
cpu0_L2C AVERAGE MISS LATENCY: 59.9046 cycles
LLC TOTAL       ACCESS:    4707978  HIT:    3428152  MISS:    1279826  iACCESS:    1940734  iHIT:    1517771  iMISS:     422963  dACCESS:    2672806  dHIT:    1886365  dMISS:     786441  itACCESS:      17668  itHIT:       5232  itMISS:      12436  dtACCESS:      76770  dtHIT:      18784  dtMISS:      57986
LLC LOAD         ACCESS:    1193366  HIT:     912027  MISS:     281339  iACCESS:     469610  iHIT:     380959  iMISS:      88651  dACCESS:     723756  dHIT:     531068  dMISS:     192688  itACCESS:          0  itHIT:          0  itMISS:          0  dtACCESS:          0  dtHIT:          0  dtMISS:          0
LLC RFO          ACCESS:     130553  HIT:      81072  MISS:      49481  iACCESS:          0  iHIT:          0  iMISS:          0  dACCESS:     130553  dHIT:      81072  dMISS:      49481  itACCESS:          0  itHIT:          0  itMISS:          0  dtACCESS:          0  dtHIT:          0  dtMISS:          0
LLC PREFETCH     ACCESS:    3085988  HIT:    2210453  MISS:     875535  iACCESS:    1471124  iHIT:    1136812  iMISS:     334312  dACCESS:    1614864  dHIT:    1073641  dMISS:     541223  itACCESS:          0  itHIT:          0  itMISS:          0  dtACCESS:          0  dtHIT:          0  dtMISS:          0
LLC WRITE        ACCESS:     203633  HIT:     200584  MISS:       3049  iACCESS:          0  iHIT:          0  iMISS:          0  dACCESS:     203633  dHIT:     200584  dMISS:       3049  itACCESS:          0  itHIT:          0  itMISS:          0  dtACCESS:          0  dtHIT:          0  dtMISS:          0
LLC TRANSLATION  ACCESS:      94438  HIT:      24016  MISS:      70422  iACCESS:          0  iHIT:          0  iMISS:          0  dACCESS:          0  dHIT:          0  dMISS:          0  itACCESS:      17668  itHIT:       5232  itMISS:      12436  dtACCESS:      76770  dtHIT:      18784  dtMISS:      57986
LLC PREFETCH  REQUESTED:          0  ISSUED:          0  CROSSED:          0  USEFUL:          0  USELESS:          0
LLC AVERAGE iMISS LATENCY: 48.739 cycles
LLC AVERAGE dMISS LATENCY: 99.6907 cycles
LLC AVERAGE itMISS LATENCY: 1.69428 cycles
LLC AVERAGE dtMISS LATENCY: 8.21734 cycles
LLC PAGE CROSSINGS (TLB HIT):         0 
LLC PAGE CROSSINGS (TLB MISS):         0 
LLC AVERAGE MISS LATENCY: 158.342 cycles

PageTableWalker TOTAL       ACCESS:      98148  
PageTableWalker AVERAGE LATENCY: 4.23298 cycles
PageTableWalker TOTAL LATENCY: 415458 cycles

DRAM Statistics
Channel 0
 RQ ROW_BUFFER_HIT:     358038
  ROW_BUFFER_MISS:     907758
 AVG DBUS CONGESTED CYCLE:    3.63616
 WQ ROW_BUFFER_HIT:      33006
  ROW_BUFFER_MISS:      31429  FULL:          0

