last_page:0x200000000000000
VMEM_RES_CAP:0x100000
PAGE_SIZE:4096
LOG2_PAGE_SIZE:12
LOG2_PAGE_TABLE_SIZE:9
page_table_levels:5
WARNING: physical memory size is smaller than virtual memory size
FDiP enabled with aggresivity 16

*** ChampSim Multicore Out-of-Order Simulator ***

Warmup Instructions: 50000000
Simulation Instructions: 100000000
Number of CPUs: 1
Small page size: 4096
Large page size: 2097152

CPU 0 Bimodal branch predictor
Basic BTB sets: 1024 ways: 8 indirect buffer size: 4096 RAS size: 64
Instruction page size distrubution: 0
Loading instruction page size distribution from /home/bsc/bsc018186/scratch/itp_asplos25_AE/dump/srv276_ap.pdst
Data page size distrubution: 0
Loading data page size distribution from /home/bsc/bsc018186/scratch/itp_asplos25_AE/dump/srv276_ap.pdst
cpu0_L2C IP-based stride prefetcher
cpu0_L2C is using PTP replacement policy:
	TLB_STRESS_THRESHOLD:0
	PTE_EVICTION_RATIO:0
cpu0_L1D next line prefetcher
cpu0_L1I next line prefetcher
Off-chip DRAM Size: 4 GiB Channels: 1 Width: 64-bit Data Rate: 3200 MT/s
Heartbeat CPU 0 instructions: 10000000 cycles: 2509923 heartbeat IPC: 3.98419 cumulative IPC: 3.98419 (Simulation time: 0 hr 0 min 37 sec) 
Heartbeat CPU 0 instructions: 20000000 cycles: 5010511 heartbeat IPC: 3.99906 cumulative IPC: 3.99161 (Simulation time: 0 hr 1 min 16 sec) 
Heartbeat CPU 0 instructions: 30000001 cycles: 7511297 heartbeat IPC: 3.99875 cumulative IPC: 3.99399 (Simulation time: 0 hr 1 min 56 sec) 
Heartbeat CPU 0 instructions: 40000000 cycles: 10014967 heartbeat IPC: 3.99414 cumulative IPC: 3.99403 (Simulation time: 0 hr 2 min 35 sec) 
Heartbeat CPU 0 instructions: 50000002 cycles: 12515792 heartbeat IPC: 3.99869 cumulative IPC: 3.99496 (Simulation time: 0 hr 3 min 16 sec) 
Warmup finished CPU 0 instructions: 50000002 cycles: 12515793 cumulative IPC: 3.99496 (Simulation time: 0 hr 3 min 16 sec) 

Warmup complete CPU 0 instructions: 50000002 cycles: 12515793 (Simulation time: 0 hr 3 min 16 sec) 

Heartbeat CPU 0 instructions: 60000000 cycles: 37063649 heartbeat IPC: 0.407368 cumulative IPC: 0.407368 (Simulation time: 0 hr 4 min 32 sec) 
Heartbeat CPU 0 instructions: 70000001 cycles: 60729980 heartbeat IPC: 0.422542 cumulative IPC: 0.414816 (Simulation time: 0 hr 5 min 48 sec) 
Heartbeat CPU 0 instructions: 80000000 cycles: 81156707 heartbeat IPC: 0.489555 cumulative IPC: 0.437058 (Simulation time: 0 hr 7 min 2 sec) 
Heartbeat CPU 0 instructions: 90000000 cycles: 88007546 heartbeat IPC: 1.45968 cumulative IPC: 0.52986 (Simulation time: 0 hr 7 min 58 sec) 
Heartbeat CPU 0 instructions: 100000002 cycles: 98233177 heartbeat IPC: 0.977935 cumulative IPC: 0.583313 (Simulation time: 0 hr 8 min 52 sec) 
*** Reached end of trace: /gpfs/projects/bsc18/MN4/bsc18/romol/ChampSim/traces/qualcomm_srv/srv276_ap.champsimtrace.xz
Heartbeat CPU 0 instructions: 110000001 cycles: 121337626 heartbeat IPC: 0.432818 cumulative IPC: 0.55136 (Simulation time: 0 hr 10 min 10 sec) 
Heartbeat CPU 0 instructions: 120000003 cycles: 146865133 heartbeat IPC: 0.391735 cumulative IPC: 0.52103 (Simulation time: 0 hr 11 min 31 sec) 
Heartbeat CPU 0 instructions: 130000000 cycles: 172440572 heartbeat IPC: 0.391001 cumulative IPC: 0.500236 (Simulation time: 0 hr 12 min 51 sec) 
Heartbeat CPU 0 instructions: 140000003 cycles: 196659878 heartbeat IPC: 0.412894 cumulative IPC: 0.488748 (Simulation time: 0 hr 14 min 10 sec) 
Heartbeat CPU 0 instructions: 150000002 cycles: 219916761 heartbeat IPC: 0.429981 cumulative IPC: 0.482158 (Simulation time: 0 hr 15 min 28 sec) 
Simulation finished CPU 0 instructions: 100000000 cycles: 207400969 cumulative IPC: 0.482158 (Simulation time: 0 hr 15 min 28 sec) 

Simulation complete CPU 0 instructions: 100000000 cycles: 207400969 (Simulation time: 0 hr 15 min 28 sec) 


ChampSim completed all CPUs

Saving instructions large page distribution to /home/bsc/bsc018186/scratch/itp_asplos25_AE/dump/srv276_ap.pdst...
Saving data large page distribution to /home/bsc/bsc018186/scratch/itp_asplos25_AE/dump/srv276_ap.pdst...
=== Simulation ===
CPU 0 runs /gpfs/projects/bsc18/MN4/bsc18/romol/ChampSim/traces/qualcomm_srv/srv276_ap.champsimtrace.xz

Region of Interest Statistics

CPU 0 cumulative IPC: 0.482158 instructions: 100000000 cycles: 207400969
CPU 0 Branch Prediction Accuracy: 83.3312% MPKI: 32.6245 Average ROB Occupancy at Mispredict: 12.4446
Branch type MPKI
BRANCH_DIRECT_JUMP: 0.994901
BRANCH_INDIRECT: 16.1841
BRANCH_CONDITIONAL: 11.102
BRANCH_DIRECT_CALL: 1.82731
BRANCH_INDIRECT_CALL: 1.13042
BRANCH_RETURN: 1.38584

Instructions large pages: 0
Instructions small pages: 1471
Large page distribution for instructions: 0%

Data large pages: 0
Data small pages: 5292
Large page distribution for data: 0%

cpu0_L1I TOTAL       ACCESS:   30600828  HIT:   24949347  MISS:    5651481  iACCESS:   30600828  iHIT:   24949347  iMISS:    5651481  dACCESS:          0  dHIT:          0  dMISS:          0  itACCESS:          0  itHIT:          0  itMISS:          0  dtACCESS:          0  dtHIT:          0  dtMISS:          0
cpu0_L1I LOAD         ACCESS:    7071798  HIT:    5501170  MISS:    1570628  iACCESS:    7071798  iHIT:    5501170  iMISS:    1570628  dACCESS:          0  dHIT:          0  dMISS:          0  itACCESS:          0  itHIT:          0  itMISS:          0  dtACCESS:          0  dtHIT:          0  dtMISS:          0
cpu0_L1I RFO          ACCESS:          0  HIT:          0  MISS:          0  iACCESS:          0  iHIT:          0  iMISS:          0  dACCESS:          0  dHIT:          0  dMISS:          0  itACCESS:          0  itHIT:          0  itMISS:          0  dtACCESS:          0  dtHIT:          0  dtMISS:          0
cpu0_L1I PREFETCH     ACCESS:   23529030  HIT:   19448177  MISS:    4080853  iACCESS:   23529030  iHIT:   19448177  iMISS:    4080853  dACCESS:          0  dHIT:          0  dMISS:          0  itACCESS:          0  itHIT:          0  itMISS:          0  dtACCESS:          0  dtHIT:          0  dtMISS:          0
cpu0_L1I WRITE        ACCESS:          0  HIT:          0  MISS:          0  iACCESS:          0  iHIT:          0  iMISS:          0  dACCESS:          0  dHIT:          0  dMISS:          0  itACCESS:          0  itHIT:          0  itMISS:          0  dtACCESS:          0  dtHIT:          0  dtMISS:          0
cpu0_L1I TRANSLATION  ACCESS:          0  HIT:          0  MISS:          0  iACCESS:          0  iHIT:          0  iMISS:          0  dACCESS:          0  dHIT:          0  dMISS:          0  itACCESS:          0  itHIT:          0  itMISS:          0  dtACCESS:          0  dtHIT:          0  dtMISS:          0
cpu0_L1I PREFETCH  REQUESTED:   25085376  ISSUED:   25085108  CROSSED:          0  USEFUL:    1386579  USELESS:     502465
cpu0_L1I AVERAGE iMISS LATENCY: 24.9836 cycles
cpu0_L1I AVERAGE dMISS LATENCY: 0 cycles
cpu0_L1I AVERAGE itMISS LATENCY: 0 cycles
cpu0_L1I AVERAGE dtMISS LATENCY: 0 cycles
cpu0_L1I PAGE CROSSINGS (TLB HIT):         0 
cpu0_L1I PAGE CROSSINGS (TLB MISS):         0 
cpu0_L1I AVERAGE MISS LATENCY: 24.9836 cycles
cpu0_ITLB TOTAL       ACCESS:   26243208  HIT:   24876456  MISS:    1366752  iACCESS:   26243208  iHIT:   24876456  iMISS:    1366752  dACCESS:          0  dHIT:          0  dMISS:          0  itACCESS:          0  itHIT:          0  itMISS:          0  dtACCESS:          0  dtHIT:          0  dtMISS:          0
cpu0_ITLB LOAD         ACCESS:   26243208  HIT:   24876456  MISS:    1366752  iACCESS:   26243208  iHIT:   24876456  iMISS:    1366752  dACCESS:          0  dHIT:          0  dMISS:          0  itACCESS:          0  itHIT:          0  itMISS:          0  dtACCESS:          0  dtHIT:          0  dtMISS:          0
cpu0_ITLB RFO          ACCESS:          0  HIT:          0  MISS:          0  iACCESS:          0  iHIT:          0  iMISS:          0  dACCESS:          0  dHIT:          0  dMISS:          0  itACCESS:          0  itHIT:          0  itMISS:          0  dtACCESS:          0  dtHIT:          0  dtMISS:          0
cpu0_ITLB PREFETCH     ACCESS:          0  HIT:          0  MISS:          0  iACCESS:          0  iHIT:          0  iMISS:          0  dACCESS:          0  dHIT:          0  dMISS:          0  itACCESS:          0  itHIT:          0  itMISS:          0  dtACCESS:          0  dtHIT:          0  dtMISS:          0
cpu0_ITLB WRITE        ACCESS:          0  HIT:          0  MISS:          0  iACCESS:          0  iHIT:          0  iMISS:          0  dACCESS:          0  dHIT:          0  dMISS:          0  itACCESS:          0  itHIT:          0  itMISS:          0  dtACCESS:          0  dtHIT:          0  dtMISS:          0
cpu0_ITLB TRANSLATION  ACCESS:          0  HIT:          0  MISS:          0  iACCESS:          0  iHIT:          0  iMISS:          0  dACCESS:          0  dHIT:          0  dMISS:          0  itACCESS:          0  itHIT:          0  itMISS:          0  dtACCESS:          0  dtHIT:          0  dtMISS:          0
cpu0_ITLB PREFETCH  REQUESTED:          0  ISSUED:          0  CROSSED:          0  USEFUL:     236940  USELESS:      49761
cpu0_ITLB AVERAGE iMISS LATENCY: 10.1181 cycles
cpu0_ITLB AVERAGE dMISS LATENCY: 0 cycles
cpu0_ITLB AVERAGE itMISS LATENCY: 0 cycles
cpu0_ITLB AVERAGE dtMISS LATENCY: 0 cycles
cpu0_ITLB PAGE CROSSINGS (TLB HIT):         0 
cpu0_ITLB PAGE CROSSINGS (TLB MISS):         0 
cpu0_ITLB AVERAGE MISS LATENCY: 10.1181 cycles
cpu0_DTLB TOTAL       ACCESS:   31795108  HIT:   27773712  MISS:    4021396  iACCESS:          0  iHIT:          0  iMISS:          0  dACCESS:   31795108  dHIT:   27773712  dMISS:    4021396  itACCESS:          0  itHIT:          0  itMISS:          0  dtACCESS:          0  dtHIT:          0  dtMISS:          0
cpu0_DTLB LOAD         ACCESS:   31795108  HIT:   27773712  MISS:    4021396  iACCESS:          0  iHIT:          0  iMISS:          0  dACCESS:   31795108  dHIT:   27773712  dMISS:    4021396  itACCESS:          0  itHIT:          0  itMISS:          0  dtACCESS:          0  dtHIT:          0  dtMISS:          0
cpu0_DTLB RFO          ACCESS:          0  HIT:          0  MISS:          0  iACCESS:          0  iHIT:          0  iMISS:          0  dACCESS:          0  dHIT:          0  dMISS:          0  itACCESS:          0  itHIT:          0  itMISS:          0  dtACCESS:          0  dtHIT:          0  dtMISS:          0
cpu0_DTLB PREFETCH     ACCESS:          0  HIT:          0  MISS:          0  iACCESS:          0  iHIT:          0  iMISS:          0  dACCESS:          0  dHIT:          0  dMISS:          0  itACCESS:          0  itHIT:          0  itMISS:          0  dtACCESS:          0  dtHIT:          0  dtMISS:          0
cpu0_DTLB WRITE        ACCESS:          0  HIT:          0  MISS:          0  iACCESS:          0  iHIT:          0  iMISS:          0  dACCESS:          0  dHIT:          0  dMISS:          0  itACCESS:          0  itHIT:          0  itMISS:          0  dtACCESS:          0  dtHIT:          0  dtMISS:          0
cpu0_DTLB TRANSLATION  ACCESS:          0  HIT:          0  MISS:          0  iACCESS:          0  iHIT:          0  iMISS:          0  dACCESS:          0  dHIT:          0  dMISS:          0  itACCESS:          0  itHIT:          0  itMISS:          0  dtACCESS:          0  dtHIT:          0  dtMISS:          0
cpu0_DTLB PREFETCH  REQUESTED:          0  ISSUED:          0  CROSSED:          0  USEFUL:          0  USELESS:          0
cpu0_DTLB AVERAGE iMISS LATENCY: 0 cycles
cpu0_DTLB AVERAGE dMISS LATENCY: 11.6234 cycles
cpu0_DTLB AVERAGE itMISS LATENCY: 0 cycles
cpu0_DTLB AVERAGE dtMISS LATENCY: 0 cycles
cpu0_DTLB PAGE CROSSINGS (TLB HIT):         0 
cpu0_DTLB PAGE CROSSINGS (TLB MISS):         0 
cpu0_DTLB AVERAGE MISS LATENCY: 11.6234 cycles
cpu0_STLB TOTAL       ACCESS:    2332999  HIT:    2113912  MISS:     219087  iACCESS:     286708  iHIT:     209244  iMISS:      77464  dACCESS:    2046291  dHIT:    1904668  dMISS:     141623  itACCESS:          0  itHIT:          0  itMISS:          0  dtACCESS:          0  dtHIT:          0  dtMISS:          0
cpu0_STLB LOAD         ACCESS:    2332999  HIT:    2113912  MISS:     219087  iACCESS:     286708  iHIT:     209244  iMISS:      77464  dACCESS:    2046291  dHIT:    1904668  dMISS:     141623  itACCESS:          0  itHIT:          0  itMISS:          0  dtACCESS:          0  dtHIT:          0  dtMISS:          0
cpu0_STLB RFO          ACCESS:          0  HIT:          0  MISS:          0  iACCESS:          0  iHIT:          0  iMISS:          0  dACCESS:          0  dHIT:          0  dMISS:          0  itACCESS:          0  itHIT:          0  itMISS:          0  dtACCESS:          0  dtHIT:          0  dtMISS:          0
cpu0_STLB PREFETCH     ACCESS:          0  HIT:          0  MISS:          0  iACCESS:          0  iHIT:          0  iMISS:          0  dACCESS:          0  dHIT:          0  dMISS:          0  itACCESS:          0  itHIT:          0  itMISS:          0  dtACCESS:          0  dtHIT:          0  dtMISS:          0
cpu0_STLB WRITE        ACCESS:          0  HIT:          0  MISS:          0  iACCESS:          0  iHIT:          0  iMISS:          0  dACCESS:          0  dHIT:          0  dMISS:          0  itACCESS:          0  itHIT:          0  itMISS:          0  dtACCESS:          0  dtHIT:          0  dtMISS:          0
cpu0_STLB TRANSLATION  ACCESS:          0  HIT:          0  MISS:          0  iACCESS:          0  iHIT:          0  iMISS:          0  dACCESS:          0  dHIT:          0  dMISS:          0  itACCESS:          0  itHIT:          0  itMISS:          0  dtACCESS:          0  dtHIT:          0  dtMISS:          0
cpu0_STLB PREFETCH  REQUESTED:          0  ISSUED:          0  CROSSED:          0  USEFUL:          0  USELESS:          0
cpu0_STLB AVERAGE iMISS LATENCY: 52.6121 cycles
cpu0_STLB AVERAGE dMISS LATENCY: 137.425 cycles
cpu0_STLB AVERAGE itMISS LATENCY: 0 cycles
cpu0_STLB AVERAGE dtMISS LATENCY: 0 cycles
cpu0_STLB PAGE CROSSINGS (TLB HIT):         0 
cpu0_STLB PAGE CROSSINGS (TLB MISS):         0 
cpu0_STLB AVERAGE MISS LATENCY: 190.037 cycles
cpu0_L1D TOTAL       ACCESS:   49267181  HIT:   41113233  MISS:    8153948  iACCESS:          0  iHIT:          0  iMISS:          0  dACCESS:   48944036  dHIT:   41090886  dMISS:    7853150  itACCESS:      90722  itHIT:      11194  itMISS:      79528  dtACCESS:     232423  dtHIT:      11153  dtMISS:     221270
cpu0_L1D LOAD         ACCESS:   24775271  HIT:   20400411  MISS:    4374860  iACCESS:          0  iHIT:          0  iMISS:          0  dACCESS:   24775271  dHIT:   20400411  dMISS:    4374860  itACCESS:          0  itHIT:          0  itMISS:          0  dtACCESS:          0  dtHIT:          0  dtMISS:          0
cpu0_L1D RFO          ACCESS:          0  HIT:          0  MISS:          0  iACCESS:          0  iHIT:          0  iMISS:          0  dACCESS:          0  dHIT:          0  dMISS:          0  itACCESS:          0  itHIT:          0  itMISS:          0  dtACCESS:          0  dtHIT:          0  dtMISS:          0
cpu0_L1D PREFETCH     ACCESS:   14683050  HIT:   11904171  MISS:    2778879  iACCESS:          0  iHIT:          0  iMISS:          0  dACCESS:   14683050  dHIT:   11904171  dMISS:    2778879  itACCESS:          0  itHIT:          0  itMISS:          0  dtACCESS:          0  dtHIT:          0  dtMISS:          0
cpu0_L1D WRITE        ACCESS:    9485715  HIT:    8786304  MISS:     699411  iACCESS:          0  iHIT:          0  iMISS:          0  dACCESS:    9485715  dHIT:    8786304  dMISS:     699411  itACCESS:          0  itHIT:          0  itMISS:          0  dtACCESS:          0  dtHIT:          0  dtMISS:          0
cpu0_L1D TRANSLATION  ACCESS:     323145  HIT:      22347  MISS:     300798  iACCESS:          0  iHIT:          0  iMISS:          0  dACCESS:          0  dHIT:          0  dMISS:          0  itACCESS:      90722  itHIT:      11194  itMISS:      79528  dtACCESS:     232423  dtHIT:      11153  dtMISS:     221270
cpu0_L1D PREFETCH  REQUESTED:   24775271  ISSUED:   19024438  CROSSED:          0  USEFUL:     278247  USELESS:     889742
cpu0_L1D AVERAGE iMISS LATENCY: 0 cycles
cpu0_L1D AVERAGE dMISS LATENCY: 29.3262 cycles
cpu0_L1D AVERAGE itMISS LATENCY: 1.32871 cycles
cpu0_L1D AVERAGE dtMISS LATENCY: 3.46136 cycles
cpu0_L1D PAGE CROSSINGS (TLB HIT):         0 
cpu0_L1D PAGE CROSSINGS (TLB MISS):         0 
cpu0_L1D AVERAGE MISS LATENCY: 34.1162 cycles
cpu0_L2C TOTAL       ACCESS:    7852787  HIT:    4165974  MISS:    3686813  iACCESS:    2423880  iHIT:    1263471  iMISS:    1160409  dACCESS:    5182210  dHIT:    2853325  dMISS:    2328885  itACCESS:      72496  itHIT:      15554  itMISS:      56942  dtACCESS:     174201  dtHIT:      33624  dtMISS:     140577
cpu0_L2C LOAD         ACCESS:    3231145  HIT:    2034512  MISS:    1196633  iACCESS:     557166  iHIT:     303415  iMISS:     253751  dACCESS:    2673979  dHIT:    1731097  dMISS:     942882  itACCESS:          0  itHIT:          0  itMISS:          0  dtACCESS:          0  dtHIT:          0  dtMISS:          0
cpu0_L2C RFO          ACCESS:     182453  HIT:      49442  MISS:     133011  iACCESS:          0  iHIT:          0  iMISS:          0  dACCESS:     182453  dHIT:      49442  dMISS:     133011  itACCESS:          0  itHIT:          0  itMISS:          0  dtACCESS:          0  dtHIT:          0  dtMISS:          0
cpu0_L2C PREFETCH     ACCESS:    3935950  HIT:    1810391  MISS:    2125559  iACCESS:    1866714  iHIT:     960056  iMISS:     906658  dACCESS:    2069236  dHIT:     850335  dMISS:    1218901  itACCESS:          0  itHIT:          0  itMISS:          0  dtACCESS:          0  dtHIT:          0  dtMISS:          0
cpu0_L2C WRITE        ACCESS:     256542  HIT:     222451  MISS:      34091  iACCESS:          0  iHIT:          0  iMISS:          0  dACCESS:     256542  dHIT:     222451  dMISS:      34091  itACCESS:          0  itHIT:          0  itMISS:          0  dtACCESS:          0  dtHIT:          0  dtMISS:          0
cpu0_L2C TRANSLATION  ACCESS:     246697  HIT:      49178  MISS:     197519  iACCESS:          0  iHIT:          0  iMISS:          0  dACCESS:          0  dHIT:          0  dMISS:          0  itACCESS:      72496  itHIT:      15554  itMISS:      56942  dtACCESS:     174201  dtHIT:      33624  dtMISS:     140577
cpu0_L2C PREFETCH  REQUESTED:    1062897  ISSUED:    1062813  CROSSED:          0  USEFUL:     245957  USELESS:     243785
cpu0_L2C AVERAGE iMISS LATENCY: 32.6445 cycles
cpu0_L2C AVERAGE dMISS LATENCY: 70.7341 cycles
cpu0_L2C AVERAGE itMISS LATENCY: 2.74574 cycles
cpu0_L2C AVERAGE dtMISS LATENCY: 7.18934 cycles
cpu0_L2C PAGE CROSSINGS (TLB HIT):         0 
cpu0_L2C PAGE CROSSINGS (TLB MISS):         0 
cpu0_L2C AVERAGE MISS LATENCY: 113.314 cycles
LLC TOTAL       ACCESS:    3666641  HIT:    1625721  MISS:    2040920  iACCESS:    1099792  iHIT:     456363  iMISS:     643429  dACCESS:    2369330  dHIT:    1142201  dMISS:    1227129  itACCESS:      56942  itHIT:       6466  itMISS:      50476  dtACCESS:     140577  dtHIT:      20691  dtMISS:     119886
LLC LOAD         ACCESS:    1190729  HIT:     687228  MISS:     503501  iACCESS:     253024  iHIT:     117969  iMISS:     135055  dACCESS:     937705  dHIT:     569259  dMISS:     368446  itACCESS:          0  itHIT:          0  itMISS:          0  dtACCESS:          0  dtHIT:          0  dtMISS:          0
LLC RFO          ACCESS:     133009  HIT:      54320  MISS:      78689  iACCESS:          0  iHIT:          0  iMISS:          0  dACCESS:     133009  dHIT:      54320  dMISS:      78689  itACCESS:          0  itHIT:          0  itMISS:          0  dtACCESS:          0  dtHIT:          0  dtMISS:          0
LLC PREFETCH     ACCESS:    1982170  HIT:     700704  MISS:    1281466  iACCESS:     846768  iHIT:     338394  iMISS:     508374  dACCESS:    1135402  dHIT:     362310  dMISS:     773092  itACCESS:          0  itHIT:          0  itMISS:          0  dtACCESS:          0  dtHIT:          0  dtMISS:          0
LLC WRITE        ACCESS:     163214  HIT:     156312  MISS:       6902  iACCESS:          0  iHIT:          0  iMISS:          0  dACCESS:     163214  dHIT:     156312  dMISS:       6902  itACCESS:          0  itHIT:          0  itMISS:          0  dtACCESS:          0  dtHIT:          0  dtMISS:          0
LLC TRANSLATION  ACCESS:     197519  HIT:      27157  MISS:     170362  iACCESS:          0  iHIT:          0  iMISS:          0  dACCESS:          0  dHIT:          0  dMISS:          0  itACCESS:      56942  itHIT:       6466  itMISS:      50476  dtACCESS:     140577  dtHIT:      20691  dtMISS:     119886
LLC PREFETCH  REQUESTED:          0  ISSUED:          0  CROSSED:          0  USEFUL:          0  USELESS:          0
LLC AVERAGE iMISS LATENCY: 48.4065 cycles
LLC AVERAGE dMISS LATENCY: 107.703 cycles
LLC AVERAGE itMISS LATENCY: 4.4075 cycles
LLC AVERAGE dtMISS LATENCY: 11.6285 cycles
LLC PAGE CROSSINGS (TLB HIT):         0 
LLC PAGE CROSSINGS (TLB MISS):         0 
LLC AVERAGE MISS LATENCY: 172.145 cycles

PageTableWalker TOTAL       ACCESS:     140466  
PageTableWalker AVERAGE LATENCY: 4.67423 cycles
PageTableWalker TOTAL LATENCY: 656570 cycles

DRAM Statistics
Channel 0
 RQ ROW_BUFFER_HIT:     505984
  ROW_BUFFER_MISS:    1511576
 AVG DBUS CONGESTED CYCLE:    3.66307
 WQ ROW_BUFFER_HIT:      44164
  ROW_BUFFER_MISS:      44456  FULL:          0

