last_page:0x200000000000000
VMEM_RES_CAP:0x100000
PAGE_SIZE:4096
LOG2_PAGE_SIZE:12
LOG2_PAGE_TABLE_SIZE:9
page_table_levels:5
WARNING: physical memory size is smaller than virtual memory size
FDiP enabled with aggresivity 16

*** ChampSim Multicore Out-of-Order Simulator ***

Warmup Instructions: 50000000
Simulation Instructions: 100000000
Number of CPUs: 1
Small page size: 4096
Large page size: 2097152

CPU 0 Bimodal branch predictor
Basic BTB sets: 1024 ways: 8 indirect buffer size: 4096 RAS size: 64
Instruction page size distrubution: 0
Loading instruction page size distribution from /home/bsc/bsc018186/scratch/itp_asplos25_AE/dump/srv222_ap.pdst
Data page size distrubution: 0
Loading data page size distribution from /home/bsc/bsc018186/scratch/itp_asplos25_AE/dump/srv222_ap.pdst
cpu0_L2C IP-based stride prefetcher
cpu0_L1D next line prefetcher
cpu0_STLB using iTP with max lru@8
cpu0_STLB using iTP with instr@0 and data@2
Init sat counter with 3 bits (max:50).
cpu0_L1I next line prefetcher
Off-chip DRAM Size: 4 GiB Channels: 1 Width: 64-bit Data Rate: 3200 MT/s
Heartbeat CPU 0 instructions: 10000000 cycles: 2500219 heartbeat IPC: 3.99965 cumulative IPC: 3.99965 (Simulation time: 0 hr 0 min 37 sec) 
Heartbeat CPU 0 instructions: 20000002 cycles: 5000220 heartbeat IPC: 4 cumulative IPC: 3.99983 (Simulation time: 0 hr 1 min 17 sec) 
Heartbeat CPU 0 instructions: 30000002 cycles: 7500275 heartbeat IPC: 3.99992 cumulative IPC: 3.99986 (Simulation time: 0 hr 1 min 57 sec) 
Heartbeat CPU 0 instructions: 40000001 cycles: 10000299 heartbeat IPC: 3.99997 cumulative IPC: 3.99989 (Simulation time: 0 hr 2 min 37 sec) 
Heartbeat CPU 0 instructions: 50000001 cycles: 12500323 heartbeat IPC: 3.99997 cumulative IPC: 3.9999 (Simulation time: 0 hr 3 min 18 sec) 
Warmup finished CPU 0 instructions: 50000001 cycles: 12500324 cumulative IPC: 3.9999 (Simulation time: 0 hr 3 min 18 sec) 

Warmup complete CPU 0 instructions: 50000001 cycles: 12500324 (Simulation time: 0 hr 3 min 18 sec) 

Heartbeat CPU 0 instructions: 60000000 cycles: 30882791 heartbeat IPC: 0.543997 cumulative IPC: 0.543997 (Simulation time: 0 hr 4 min 27 sec) 
Heartbeat CPU 0 instructions: 70000004 cycles: 49093716 heartbeat IPC: 0.549122 cumulative IPC: 0.546547 (Simulation time: 0 hr 5 min 36 sec) 
Heartbeat CPU 0 instructions: 80000000 cycles: 66841212 heartbeat IPC: 0.56346 cumulative IPC: 0.552071 (Simulation time: 0 hr 6 min 45 sec) 
Heartbeat CPU 0 instructions: 90000000 cycles: 85703345 heartbeat IPC: 0.530163 cumulative IPC: 0.546426 (Simulation time: 0 hr 7 min 55 sec) 
Heartbeat CPU 0 instructions: 100000000 cycles: 104040484 heartbeat IPC: 0.545342 cumulative IPC: 0.546209 (Simulation time: 0 hr 9 min 4 sec) 
*** Reached end of trace: /gpfs/projects/bsc18/MN4/bsc18/romol/ChampSim/traces/qualcomm_srv/srv222_ap.champsimtrace.xz
Heartbeat CPU 0 instructions: 110000000 cycles: 121768181 heartbeat IPC: 0.56409 cumulative IPC: 0.54911 (Simulation time: 0 hr 10 min 14 sec) 
Heartbeat CPU 0 instructions: 120000003 cycles: 140167530 heartbeat IPC: 0.543498 cumulative IPC: 0.548301 (Simulation time: 0 hr 11 min 24 sec) 
Heartbeat CPU 0 instructions: 130000000 cycles: 158742738 heartbeat IPC: 0.538352 cumulative IPC: 0.547037 (Simulation time: 0 hr 12 min 33 sec) 
Heartbeat CPU 0 instructions: 140000001 cycles: 176564914 heartbeat IPC: 0.561099 cumulative IPC: 0.548565 (Simulation time: 0 hr 13 min 41 sec) 
Heartbeat CPU 0 instructions: 150000000 cycles: 194851068 heartbeat IPC: 0.546862 cumulative IPC: 0.548394 (Simulation time: 0 hr 14 min 51 sec) 
Simulation finished CPU 0 instructions: 100000003 cycles: 182350746 cumulative IPC: 0.548394 (Simulation time: 0 hr 14 min 51 sec) 

Simulation complete CPU 0 instructions: 100000003 cycles: 182350746 (Simulation time: 0 hr 14 min 51 sec) 


ChampSim completed all CPUs

Saving instructions large page distribution to /home/bsc/bsc018186/scratch/itp_asplos25_AE/dump/srv222_ap.pdst...
Saving data large page distribution to /home/bsc/bsc018186/scratch/itp_asplos25_AE/dump/srv222_ap.pdst...
=== Simulation ===
CPU 0 runs /gpfs/projects/bsc18/MN4/bsc18/romol/ChampSim/traces/qualcomm_srv/srv222_ap.champsimtrace.xz

Region of Interest Statistics

CPU 0 cumulative IPC: 0.548394 instructions: 100000003 cycles: 182350746
CPU 0 Branch Prediction Accuracy: 80.1337% MPKI: 35.8772 Average ROB Occupancy at Mispredict: 10.4526
Branch type MPKI
BRANCH_DIRECT_JUMP: 1.34829
BRANCH_INDIRECT: 17.9544
BRANCH_CONDITIONAL: 11.6356
BRANCH_DIRECT_CALL: 2.54634
BRANCH_INDIRECT_CALL: 0.66241
BRANCH_RETURN: 1.73014

Instructions large pages: 0
Instructions small pages: 1201
Large page distribution for instructions: 0%

Data large pages: 0
Data small pages: 5008
Large page distribution for data: 0%

cpu0_L1I TOTAL       ACCESS:   36434505  HIT:   28016519  MISS:    8417986  iACCESS:   36434505  iHIT:   28016519  iMISS:    8417986  dACCESS:          0  dHIT:          0  dMISS:          0  itACCESS:          0  itHIT:          0  itMISS:          0  dtACCESS:          0  dtHIT:          0  dtMISS:          0
cpu0_L1I LOAD         ACCESS:   10651346  HIT:    8348249  MISS:    2303097  iACCESS:   10651346  iHIT:    8348249  iMISS:    2303097  dACCESS:          0  dHIT:          0  dMISS:          0  itACCESS:          0  itHIT:          0  itMISS:          0  dtACCESS:          0  dtHIT:          0  dtMISS:          0
cpu0_L1I RFO          ACCESS:          0  HIT:          0  MISS:          0  iACCESS:          0  iHIT:          0  iMISS:          0  dACCESS:          0  dHIT:          0  dMISS:          0  itACCESS:          0  itHIT:          0  itMISS:          0  dtACCESS:          0  dtHIT:          0  dtMISS:          0
cpu0_L1I PREFETCH     ACCESS:   25783159  HIT:   19668270  MISS:    6114889  iACCESS:   25783159  iHIT:   19668270  iMISS:    6114889  dACCESS:          0  dHIT:          0  dMISS:          0  itACCESS:          0  itHIT:          0  itMISS:          0  dtACCESS:          0  dtHIT:          0  dtMISS:          0
cpu0_L1I WRITE        ACCESS:          0  HIT:          0  MISS:          0  iACCESS:          0  iHIT:          0  iMISS:          0  dACCESS:          0  dHIT:          0  dMISS:          0  itACCESS:          0  itHIT:          0  itMISS:          0  dtACCESS:          0  dtHIT:          0  dtMISS:          0
cpu0_L1I TRANSLATION  ACCESS:          0  HIT:          0  MISS:          0  iACCESS:          0  iHIT:          0  iMISS:          0  dACCESS:          0  dHIT:          0  dMISS:          0  itACCESS:          0  itHIT:          0  itMISS:          0  dtACCESS:          0  dtHIT:          0  dtMISS:          0
cpu0_L1I PREFETCH  REQUESTED:   28158226  ISSUED:   28156233  CROSSED:          0  USEFUL:    2015924  USELESS:     651727
cpu0_L1I AVERAGE iMISS LATENCY: 18.3861 cycles
cpu0_L1I AVERAGE dMISS LATENCY: 0 cycles
cpu0_L1I AVERAGE itMISS LATENCY: 0 cycles
cpu0_L1I AVERAGE dtMISS LATENCY: 0 cycles
cpu0_L1I PAGE CROSSINGS (TLB HIT):         0 
cpu0_L1I PAGE CROSSINGS (TLB MISS):         0 
cpu0_L1I AVERAGE MISS LATENCY: 18.3861 cycles
cpu0_ITLB TOTAL       ACCESS:   30368091  HIT:   28441670  MISS:    1926421  iACCESS:   30368091  iHIT:   28441670  iMISS:    1926421  dACCESS:          0  dHIT:          0  dMISS:          0  itACCESS:          0  itHIT:          0  itMISS:          0  dtACCESS:          0  dtHIT:          0  dtMISS:          0
cpu0_ITLB LOAD         ACCESS:   30368091  HIT:   28441670  MISS:    1926421  iACCESS:   30368091  iHIT:   28441670  iMISS:    1926421  dACCESS:          0  dHIT:          0  dMISS:          0  itACCESS:          0  itHIT:          0  itMISS:          0  dtACCESS:          0  dtHIT:          0  dtMISS:          0
cpu0_ITLB RFO          ACCESS:          0  HIT:          0  MISS:          0  iACCESS:          0  iHIT:          0  iMISS:          0  dACCESS:          0  dHIT:          0  dMISS:          0  itACCESS:          0  itHIT:          0  itMISS:          0  dtACCESS:          0  dtHIT:          0  dtMISS:          0
cpu0_ITLB PREFETCH     ACCESS:          0  HIT:          0  MISS:          0  iACCESS:          0  iHIT:          0  iMISS:          0  dACCESS:          0  dHIT:          0  dMISS:          0  itACCESS:          0  itHIT:          0  itMISS:          0  dtACCESS:          0  dtHIT:          0  dtMISS:          0
cpu0_ITLB WRITE        ACCESS:          0  HIT:          0  MISS:          0  iACCESS:          0  iHIT:          0  iMISS:          0  dACCESS:          0  dHIT:          0  dMISS:          0  itACCESS:          0  itHIT:          0  itMISS:          0  dtACCESS:          0  dtHIT:          0  dtMISS:          0
cpu0_ITLB TRANSLATION  ACCESS:          0  HIT:          0  MISS:          0  iACCESS:          0  iHIT:          0  iMISS:          0  dACCESS:          0  dHIT:          0  dMISS:          0  itACCESS:          0  itHIT:          0  itMISS:          0  dtACCESS:          0  dtHIT:          0  dtMISS:          0
cpu0_ITLB PREFETCH  REQUESTED:          0  ISSUED:          0  CROSSED:          0  USEFUL:     328807  USELESS:      64959
cpu0_ITLB AVERAGE iMISS LATENCY: 2.92166 cycles
cpu0_ITLB AVERAGE dMISS LATENCY: 0 cycles
cpu0_ITLB AVERAGE itMISS LATENCY: 0 cycles
cpu0_ITLB AVERAGE dtMISS LATENCY: 0 cycles
cpu0_ITLB PAGE CROSSINGS (TLB HIT):         0 
cpu0_ITLB PAGE CROSSINGS (TLB MISS):         0 
cpu0_ITLB AVERAGE MISS LATENCY: 2.92166 cycles
cpu0_DTLB TOTAL       ACCESS:   27937012  HIT:   25926446  MISS:    2010566  iACCESS:          0  iHIT:          0  iMISS:          0  dACCESS:   27937012  dHIT:   25926446  dMISS:    2010566  itACCESS:          0  itHIT:          0  itMISS:          0  dtACCESS:          0  dtHIT:          0  dtMISS:          0
cpu0_DTLB LOAD         ACCESS:   27937012  HIT:   25926446  MISS:    2010566  iACCESS:          0  iHIT:          0  iMISS:          0  dACCESS:   27937012  dHIT:   25926446  dMISS:    2010566  itACCESS:          0  itHIT:          0  itMISS:          0  dtACCESS:          0  dtHIT:          0  dtMISS:          0
cpu0_DTLB RFO          ACCESS:          0  HIT:          0  MISS:          0  iACCESS:          0  iHIT:          0  iMISS:          0  dACCESS:          0  dHIT:          0  dMISS:          0  itACCESS:          0  itHIT:          0  itMISS:          0  dtACCESS:          0  dtHIT:          0  dtMISS:          0
cpu0_DTLB PREFETCH     ACCESS:          0  HIT:          0  MISS:          0  iACCESS:          0  iHIT:          0  iMISS:          0  dACCESS:          0  dHIT:          0  dMISS:          0  itACCESS:          0  itHIT:          0  itMISS:          0  dtACCESS:          0  dtHIT:          0  dtMISS:          0
cpu0_DTLB WRITE        ACCESS:          0  HIT:          0  MISS:          0  iACCESS:          0  iHIT:          0  iMISS:          0  dACCESS:          0  dHIT:          0  dMISS:          0  itACCESS:          0  itHIT:          0  itMISS:          0  dtACCESS:          0  dtHIT:          0  dtMISS:          0
cpu0_DTLB TRANSLATION  ACCESS:          0  HIT:          0  MISS:          0  iACCESS:          0  iHIT:          0  iMISS:          0  dACCESS:          0  dHIT:          0  dMISS:          0  itACCESS:          0  itHIT:          0  itMISS:          0  dtACCESS:          0  dtHIT:          0  dtMISS:          0
cpu0_DTLB PREFETCH  REQUESTED:          0  ISSUED:          0  CROSSED:          0  USEFUL:          0  USELESS:          0
cpu0_DTLB AVERAGE iMISS LATENCY: 0 cycles
cpu0_DTLB AVERAGE dMISS LATENCY: 13.4148 cycles
cpu0_DTLB AVERAGE itMISS LATENCY: 0 cycles
cpu0_DTLB AVERAGE dtMISS LATENCY: 0 cycles
cpu0_DTLB PAGE CROSSINGS (TLB HIT):         0 
cpu0_DTLB PAGE CROSSINGS (TLB MISS):         0 
cpu0_DTLB AVERAGE MISS LATENCY: 13.4148 cycles
cpu0_STLB TOTAL       ACCESS:    1610351  HIT:    1400509  MISS:     209842  iACCESS:     393784  iHIT:     365809  iMISS:      27975  dACCESS:    1216567  dHIT:    1034700  dMISS:     181867  itACCESS:          0  itHIT:          0  itMISS:          0  dtACCESS:          0  dtHIT:          0  dtMISS:          0
cpu0_STLB LOAD         ACCESS:    1610351  HIT:    1400509  MISS:     209842  iACCESS:     393784  iHIT:     365809  iMISS:      27975  dACCESS:    1216567  dHIT:    1034700  dMISS:     181867  itACCESS:          0  itHIT:          0  itMISS:          0  dtACCESS:          0  dtHIT:          0  dtMISS:          0
cpu0_STLB RFO          ACCESS:          0  HIT:          0  MISS:          0  iACCESS:          0  iHIT:          0  iMISS:          0  dACCESS:          0  dHIT:          0  dMISS:          0  itACCESS:          0  itHIT:          0  itMISS:          0  dtACCESS:          0  dtHIT:          0  dtMISS:          0
cpu0_STLB PREFETCH     ACCESS:          0  HIT:          0  MISS:          0  iACCESS:          0  iHIT:          0  iMISS:          0  dACCESS:          0  dHIT:          0  dMISS:          0  itACCESS:          0  itHIT:          0  itMISS:          0  dtACCESS:          0  dtHIT:          0  dtMISS:          0
cpu0_STLB WRITE        ACCESS:          0  HIT:          0  MISS:          0  iACCESS:          0  iHIT:          0  iMISS:          0  dACCESS:          0  dHIT:          0  dMISS:          0  itACCESS:          0  itHIT:          0  itMISS:          0  dtACCESS:          0  dtHIT:          0  dtMISS:          0
cpu0_STLB TRANSLATION  ACCESS:          0  HIT:          0  MISS:          0  iACCESS:          0  iHIT:          0  iMISS:          0  dACCESS:          0  dHIT:          0  dMISS:          0  itACCESS:          0  itHIT:          0  itMISS:          0  dtACCESS:          0  dtHIT:          0  dtMISS:          0
cpu0_STLB PREFETCH  REQUESTED:          0  ISSUED:          0  CROSSED:          0  USEFUL:          0  USELESS:          0
cpu0_STLB AVERAGE iMISS LATENCY: 12.1853 cycles
cpu0_STLB AVERAGE dMISS LATENCY: 82.051 cycles
cpu0_STLB AVERAGE itMISS LATENCY: 0 cycles
cpu0_STLB AVERAGE dtMISS LATENCY: 0 cycles
cpu0_STLB PAGE CROSSINGS (TLB HIT):         0 
cpu0_STLB PAGE CROSSINGS (TLB MISS):         0 
cpu0_STLB AVERAGE MISS LATENCY: 94.2363 cycles
cpu0_L1D TOTAL       ACCESS:   42627905  HIT:   38537733  MISS:    4090172  iACCESS:          0  iHIT:          0  iMISS:          0  dACCESS:   42342259  dHIT:   38520565  dMISS:    3821694  itACCESS:      31604  itHIT:       2728  itMISS:      28876  dtACCESS:     254042  dtHIT:      14440  dtMISS:     239602
cpu0_L1D LOAD         ACCESS:   19367425  HIT:   17621892  MISS:    1745533  iACCESS:          0  iHIT:          0  iMISS:          0  dACCESS:   19367425  dHIT:   17621892  dMISS:    1745533  itACCESS:          0  itHIT:          0  itMISS:          0  dtACCESS:          0  dtHIT:          0  dtMISS:          0
cpu0_L1D RFO          ACCESS:          0  HIT:          0  MISS:          0  iACCESS:          0  iHIT:          0  iMISS:          0  dACCESS:          0  dHIT:          0  dMISS:          0  itACCESS:          0  itHIT:          0  itMISS:          0  dtACCESS:          0  dtHIT:          0  dtMISS:          0
cpu0_L1D PREFETCH     ACCESS:   12868156  HIT:   11218710  MISS:    1649446  iACCESS:          0  iHIT:          0  iMISS:          0  dACCESS:   12868156  dHIT:   11218710  dMISS:    1649446  itACCESS:          0  itHIT:          0  itMISS:          0  dtACCESS:          0  dtHIT:          0  dtMISS:          0
cpu0_L1D WRITE        ACCESS:   10106678  HIT:    9679963  MISS:     426715  iACCESS:          0  iHIT:          0  iMISS:          0  dACCESS:   10106678  dHIT:    9679963  dMISS:     426715  itACCESS:          0  itHIT:          0  itMISS:          0  dtACCESS:          0  dtHIT:          0  dtMISS:          0
cpu0_L1D TRANSLATION  ACCESS:     285646  HIT:      17168  MISS:     268478  iACCESS:          0  iHIT:          0  iMISS:          0  dACCESS:          0  dHIT:          0  dMISS:          0  itACCESS:      31604  itHIT:       2728  itMISS:      28876  dtACCESS:     254042  dtHIT:      14440  dtMISS:     239602
cpu0_L1D PREFETCH  REQUESTED:   19367425  ISSUED:   17352459  CROSSED:          0  USEFUL:     309924  USELESS:     702572
cpu0_L1D AVERAGE iMISS LATENCY: 0 cycles
cpu0_L1D AVERAGE dMISS LATENCY: 38.657 cycles
cpu0_L1D AVERAGE itMISS LATENCY: 0.556942 cycles
cpu0_L1D AVERAGE dtMISS LATENCY: 3.61944 cycles
cpu0_L1D PAGE CROSSINGS (TLB HIT):         0 
cpu0_L1D PAGE CROSSINGS (TLB MISS):         0 
cpu0_L1D AVERAGE MISS LATENCY: 42.8333 cycles
cpu0_L2C TOTAL       ACCESS:    7315862  HIT:    1640343  MISS:    5675519  iACCESS:    3397720  iHIT:     844844  iMISS:    2552876  dACCESS:    3658107  dHIT:     655058  dMISS:    3003049  itACCESS:      28876  itHIT:      15007  itMISS:      13869  dtACCESS:     231159  dtHIT:     125434  dtMISS:     105725
cpu0_L2C LOAD         ACCESS:    1714474  HIT:     265152  MISS:    1449322  iACCESS:     767424  iHIT:     135829  iMISS:     631595  dACCESS:     947050  dHIT:     129323  dMISS:     817727  itACCESS:          0  itHIT:          0  itMISS:          0  dtACCESS:          0  dtHIT:          0  dtMISS:          0
cpu0_L2C RFO          ACCESS:     160119  HIT:      44818  MISS:     115301  iACCESS:          0  iHIT:          0  iMISS:          0  dACCESS:     160119  dHIT:      44818  dMISS:     115301  itACCESS:          0  itHIT:          0  itMISS:          0  dtACCESS:          0  dtHIT:          0  dtMISS:          0
cpu0_L2C PREFETCH     ACCESS:    4909699  HIT:    1069141  MISS:    3840558  iACCESS:    2630296  iHIT:     709015  iMISS:    1921281  dACCESS:    2279403  dHIT:     360126  dMISS:    1919277  itACCESS:          0  itHIT:          0  itMISS:          0  dtACCESS:          0  dtHIT:          0  dtMISS:          0
cpu0_L2C WRITE        ACCESS:     271535  HIT:     120791  MISS:     150744  iACCESS:          0  iHIT:          0  iMISS:          0  dACCESS:     271535  dHIT:     120791  dMISS:     150744  itACCESS:          0  itHIT:          0  itMISS:          0  dtACCESS:          0  dtHIT:          0  dtMISS:          0
cpu0_L2C TRANSLATION  ACCESS:     260035  HIT:     140441  MISS:     119594  iACCESS:          0  iHIT:          0  iMISS:          0  dACCESS:          0  dHIT:          0  dMISS:          0  itACCESS:      28876  itHIT:      15007  itMISS:      13869  dtACCESS:     231159  dtHIT:     125434  dtMISS:     105725
cpu0_L2C PREFETCH  REQUESTED:    1539630  ISSUED:    1539627  CROSSED:          0  USEFUL:     438130  USELESS:     428092
cpu0_L2C AVERAGE iMISS LATENCY: 21.9202 cycles
cpu0_L2C AVERAGE dMISS LATENCY: 35.2679 cycles
cpu0_L2C AVERAGE itMISS LATENCY: 0.352976 cycles
cpu0_L2C AVERAGE dtMISS LATENCY: 2.22155 cycles
cpu0_L2C PAGE CROSSINGS (TLB HIT):         0 
cpu0_L2C PAGE CROSSINGS (TLB MISS):         0 
cpu0_L2C AVERAGE MISS LATENCY: 59.7626 cycles
LLC TOTAL       ACCESS:    5493356  HIT:    3976621  MISS:    1516735  iACCESS:    2476250  iHIT:    1950287  iMISS:     525963  dACCESS:    2897512  dHIT:    1974122  dMISS:     923390  itACCESS:      13869  itHIT:       3923  itMISS:       9946  dtACCESS:     105725  dtHIT:      48289  dtMISS:      57436
LLC LOAD         ACCESS:    1442641  HIT:    1107361  MISS:     335280  iACCESS:     630182  iHIT:     519922  iMISS:     110260  dACCESS:     812459  dHIT:     587439  dMISS:     225020  itACCESS:          0  itHIT:          0  itMISS:          0  dtACCESS:          0  dtHIT:          0  dtMISS:          0
LLC RFO          ACCESS:     115297  HIT:      65343  MISS:      49954  iACCESS:          0  iHIT:          0  iMISS:          0  dACCESS:     115297  dHIT:      65343  dMISS:      49954  itACCESS:          0  itHIT:          0  itMISS:          0  dtACCESS:          0  dtHIT:          0  dtMISS:          0
LLC PREFETCH     ACCESS:    3667015  HIT:    2614244  MISS:    1052771  iACCESS:    1846068  iHIT:    1430365  iMISS:     415703  dACCESS:    1820947  dHIT:    1183879  dMISS:     637068  itACCESS:          0  itHIT:          0  itMISS:          0  dtACCESS:          0  dtHIT:          0  dtMISS:          0
LLC WRITE        ACCESS:     148809  HIT:     137461  MISS:      11348  iACCESS:          0  iHIT:          0  iMISS:          0  dACCESS:     148809  dHIT:     137461  dMISS:      11348  itACCESS:          0  itHIT:          0  itMISS:          0  dtACCESS:          0  dtHIT:          0  dtMISS:          0
LLC TRANSLATION  ACCESS:     119594  HIT:      52212  MISS:      67382  iACCESS:          0  iHIT:          0  iMISS:          0  dACCESS:          0  dHIT:          0  dMISS:          0  itACCESS:      13869  itHIT:       3923  itMISS:       9946  dtACCESS:     105725  dtHIT:      48289  dtMISS:      57436
LLC PREFETCH  REQUESTED:          0  ISSUED:          0  CROSSED:          0  USEFUL:          0  USELESS:          0
LLC AVERAGE iMISS LATENCY: 50.4236 cycles
LLC AVERAGE dMISS LATENCY: 97.861 cycles
LLC AVERAGE itMISS LATENCY: 1.14107 cycles
LLC AVERAGE dtMISS LATENCY: 6.95189 cycles
LLC PAGE CROSSINGS (TLB HIT):         0 
LLC PAGE CROSSINGS (TLB MISS):         0 
LLC AVERAGE MISS LATENCY: 156.378 cycles

PageTableWalker TOTAL       ACCESS:      98165  
PageTableWalker AVERAGE LATENCY: 4.47815 cycles
PageTableWalker TOTAL LATENCY: 439597 cycles

DRAM Statistics
Channel 0
 RQ ROW_BUFFER_HIT:     457618
  ROW_BUFFER_MISS:    1033209
 AVG DBUS CONGESTED CYCLE:    3.63447
 WQ ROW_BUFFER_HIT:      29454
  ROW_BUFFER_MISS:      23431  FULL:          0

