last_page:0x200000000000000
VMEM_RES_CAP:0x100000
PAGE_SIZE:4096
LOG2_PAGE_SIZE:12
LOG2_PAGE_TABLE_SIZE:9
page_table_levels:5
WARNING: physical memory size is smaller than virtual memory size
FDiP enabled with aggresivity 16

*** ChampSim Multicore Out-of-Order Simulator ***

Warmup Instructions: 50000000
Simulation Instructions: 100000000
Number of CPUs: 1
Small page size: 4096
Large page size: 2097152

CPU 0 Bimodal branch predictor
Basic BTB sets: 1024 ways: 8 indirect buffer size: 4096 RAS size: 64
Instruction page size distrubution: 0
Loading instruction page size distribution from /home/bsc/bsc018186/scratch/itp_asplos25_AE/dump/srv224_ap.pdst
Data page size distrubution: 0
Loading data page size distribution from /home/bsc/bsc018186/scratch/itp_asplos25_AE/dump/srv224_ap.pdst
cpu0_L2C IP-based stride prefetcher
cpu0_L1D next line prefetcher
CHiRPing...
cpu0_L1I next line prefetcher
Off-chip DRAM Size: 4 GiB Channels: 1 Width: 64-bit Data Rate: 3200 MT/s
Heartbeat CPU 0 instructions: 10000000 cycles: 2500193 heartbeat IPC: 3.9997 cumulative IPC: 3.9997 (Simulation time: 0 hr 0 min 38 sec) 
Heartbeat CPU 0 instructions: 20000004 cycles: 5067631 heartbeat IPC: 3.89494 cumulative IPC: 3.94662 (Simulation time: 0 hr 1 min 18 sec) 
Heartbeat CPU 0 instructions: 30000000 cycles: 8080324 heartbeat IPC: 3.31929 cumulative IPC: 3.71273 (Simulation time: 0 hr 2 min 0 sec) 
Heartbeat CPU 0 instructions: 40000002 cycles: 10589021 heartbeat IPC: 3.98614 cumulative IPC: 3.7775 (Simulation time: 0 hr 2 min 41 sec) 
Heartbeat CPU 0 instructions: 50000003 cycles: 13089077 heartbeat IPC: 3.99992 cumulative IPC: 3.81998 (Simulation time: 0 hr 3 min 22 sec) 
Warmup finished CPU 0 instructions: 50000003 cycles: 13089078 cumulative IPC: 3.81998 (Simulation time: 0 hr 3 min 22 sec) 

Warmup complete CPU 0 instructions: 50000003 cycles: 13089078 (Simulation time: 0 hr 3 min 22 sec) 

Heartbeat CPU 0 instructions: 60000000 cycles: 27225475 heartbeat IPC: 0.707394 cumulative IPC: 0.707394 (Simulation time: 0 hr 4 min 28 sec) 
Heartbeat CPU 0 instructions: 70000003 cycles: 43173364 heartbeat IPC: 0.627043 cumulative IPC: 0.664799 (Simulation time: 0 hr 5 min 35 sec) 
Heartbeat CPU 0 instructions: 80000004 cycles: 57319601 heartbeat IPC: 0.706902 cumulative IPC: 0.678265 (Simulation time: 0 hr 6 min 39 sec) 
Heartbeat CPU 0 instructions: 90000001 cycles: 72569838 heartbeat IPC: 0.655728 cumulative IPC: 0.672487 (Simulation time: 0 hr 7 min 45 sec) 
Heartbeat CPU 0 instructions: 100000000 cycles: 87046328 heartbeat IPC: 0.690776 cumulative IPC: 0.676067 (Simulation time: 0 hr 8 min 50 sec) 
*** Reached end of trace: /gpfs/projects/bsc18/MN4/bsc18/romol/ChampSim/traces/qualcomm_srv/srv224_ap.champsimtrace.xz
Heartbeat CPU 0 instructions: 110000004 cycles: 101792052 heartbeat IPC: 0.678163 cumulative IPC: 0.676415 (Simulation time: 0 hr 9 min 56 sec) 
Heartbeat CPU 0 instructions: 120000002 cycles: 115150542 heartbeat IPC: 0.748588 cumulative IPC: 0.685862 (Simulation time: 0 hr 11 min 0 sec) 
Heartbeat CPU 0 instructions: 130000002 cycles: 123701301 heartbeat IPC: 1.16949 cumulative IPC: 0.723248 (Simulation time: 0 hr 12 min 0 sec) 
Heartbeat CPU 0 instructions: 140000000 cycles: 136008765 heartbeat IPC: 0.812515 cumulative IPC: 0.732186 (Simulation time: 0 hr 13 min 3 sec) 
Heartbeat CPU 0 instructions: 150000000 cycles: 151282789 heartbeat IPC: 0.654707 cumulative IPC: 0.723622 (Simulation time: 0 hr 14 min 10 sec) 
Simulation finished CPU 0 instructions: 100000004 cycles: 138193714 cumulative IPC: 0.723622 (Simulation time: 0 hr 14 min 10 sec) 

Simulation complete CPU 0 instructions: 100000004 cycles: 138193714 (Simulation time: 0 hr 14 min 10 sec) 


ChampSim completed all CPUs

Saving instructions large page distribution to /home/bsc/bsc018186/scratch/itp_asplos25_AE/dump/srv224_ap.pdst...
Saving data large page distribution to /home/bsc/bsc018186/scratch/itp_asplos25_AE/dump/srv224_ap.pdst...
=== Simulation ===
CPU 0 runs /gpfs/projects/bsc18/MN4/bsc18/romol/ChampSim/traces/qualcomm_srv/srv224_ap.champsimtrace.xz

Region of Interest Statistics

CPU 0 cumulative IPC: 0.723622 instructions: 100000004 cycles: 138193714
CPU 0 Branch Prediction Accuracy: 84.847% MPKI: 29.0896 Average ROB Occupancy at Mispredict: 14.3302
Branch type MPKI
BRANCH_DIRECT_JUMP: 0.95753
BRANCH_INDIRECT: 15.2614
BRANCH_CONDITIONAL: 9.36381
BRANCH_DIRECT_CALL: 1.72292
BRANCH_INDIRECT_CALL: 0.54439
BRANCH_RETURN: 1.23953

Instructions large pages: 0
Instructions small pages: 1142
Large page distribution for instructions: 0%

Data large pages: 0
Data small pages: 9342
Large page distribution for data: 0%

cpu0_L1I TOTAL       ACCESS:   34931173  HIT:   27410189  MISS:    7520984  iACCESS:   34931173  iHIT:   27410189  iMISS:    7520984  dACCESS:          0  dHIT:          0  dMISS:          0  itACCESS:          0  itHIT:          0  itMISS:          0  dtACCESS:          0  dtHIT:          0  dtMISS:          0
cpu0_L1I LOAD         ACCESS:    9463510  HIT:    7360346  MISS:    2103164  iACCESS:    9463510  iHIT:    7360346  iMISS:    2103164  dACCESS:          0  dHIT:          0  dMISS:          0  itACCESS:          0  itHIT:          0  itMISS:          0  dtACCESS:          0  dtHIT:          0  dtMISS:          0
cpu0_L1I RFO          ACCESS:          0  HIT:          0  MISS:          0  iACCESS:          0  iHIT:          0  iMISS:          0  dACCESS:          0  dHIT:          0  dMISS:          0  itACCESS:          0  itHIT:          0  itMISS:          0  dtACCESS:          0  dtHIT:          0  dtMISS:          0
cpu0_L1I PREFETCH     ACCESS:   25467663  HIT:   20049843  MISS:    5417820  iACCESS:   25467663  iHIT:   20049843  iMISS:    5417820  dACCESS:          0  dHIT:          0  dMISS:          0  itACCESS:          0  itHIT:          0  itMISS:          0  dtACCESS:          0  dtHIT:          0  dtMISS:          0
cpu0_L1I WRITE        ACCESS:          0  HIT:          0  MISS:          0  iACCESS:          0  iHIT:          0  iMISS:          0  dACCESS:          0  dHIT:          0  dMISS:          0  itACCESS:          0  itHIT:          0  itMISS:          0  dtACCESS:          0  dtHIT:          0  dtMISS:          0
cpu0_L1I TRANSLATION  ACCESS:          0  HIT:          0  MISS:          0  iACCESS:          0  iHIT:          0  iMISS:          0  dACCESS:          0  dHIT:          0  dMISS:          0  itACCESS:          0  itHIT:          0  itMISS:          0  dtACCESS:          0  dtHIT:          0  dtMISS:          0
cpu0_L1I PREFETCH  REQUESTED:   27532792  ISSUED:   27530887  CROSSED:          0  USEFUL:    1742122  USELESS:     565263
cpu0_L1I AVERAGE iMISS LATENCY: 13.69 cycles
cpu0_L1I AVERAGE dMISS LATENCY: 0 cycles
cpu0_L1I AVERAGE itMISS LATENCY: 0 cycles
cpu0_L1I AVERAGE dtMISS LATENCY: 0 cycles
cpu0_L1I PAGE CROSSINGS (TLB HIT):         0 
cpu0_L1I PAGE CROSSINGS (TLB MISS):         0 
cpu0_L1I AVERAGE MISS LATENCY: 13.69 cycles
cpu0_ITLB TOTAL       ACCESS:   28989319  HIT:   27266624  MISS:    1722695  iACCESS:   28989319  iHIT:   27266624  iMISS:    1722695  dACCESS:          0  dHIT:          0  dMISS:          0  itACCESS:          0  itHIT:          0  itMISS:          0  dtACCESS:          0  dtHIT:          0  dtMISS:          0
cpu0_ITLB LOAD         ACCESS:   28989319  HIT:   27266624  MISS:    1722695  iACCESS:   28989319  iHIT:   27266624  iMISS:    1722695  dACCESS:          0  dHIT:          0  dMISS:          0  itACCESS:          0  itHIT:          0  itMISS:          0  dtACCESS:          0  dtHIT:          0  dtMISS:          0
cpu0_ITLB RFO          ACCESS:          0  HIT:          0  MISS:          0  iACCESS:          0  iHIT:          0  iMISS:          0  dACCESS:          0  dHIT:          0  dMISS:          0  itACCESS:          0  itHIT:          0  itMISS:          0  dtACCESS:          0  dtHIT:          0  dtMISS:          0
cpu0_ITLB PREFETCH     ACCESS:          0  HIT:          0  MISS:          0  iACCESS:          0  iHIT:          0  iMISS:          0  dACCESS:          0  dHIT:          0  dMISS:          0  itACCESS:          0  itHIT:          0  itMISS:          0  dtACCESS:          0  dtHIT:          0  dtMISS:          0
cpu0_ITLB WRITE        ACCESS:          0  HIT:          0  MISS:          0  iACCESS:          0  iHIT:          0  iMISS:          0  dACCESS:          0  dHIT:          0  dMISS:          0  itACCESS:          0  itHIT:          0  itMISS:          0  dtACCESS:          0  dtHIT:          0  dtMISS:          0
cpu0_ITLB TRANSLATION  ACCESS:          0  HIT:          0  MISS:          0  iACCESS:          0  iHIT:          0  iMISS:          0  dACCESS:          0  dHIT:          0  dMISS:          0  itACCESS:          0  itHIT:          0  itMISS:          0  dtACCESS:          0  dtHIT:          0  dtMISS:          0
cpu0_ITLB PREFETCH  REQUESTED:          0  ISSUED:          0  CROSSED:          0  USEFUL:     285269  USELESS:      57222
cpu0_ITLB AVERAGE iMISS LATENCY: 3.29263 cycles
cpu0_ITLB AVERAGE dMISS LATENCY: 0 cycles
cpu0_ITLB AVERAGE itMISS LATENCY: 0 cycles
cpu0_ITLB AVERAGE dtMISS LATENCY: 0 cycles
cpu0_ITLB PAGE CROSSINGS (TLB HIT):         0 
cpu0_ITLB PAGE CROSSINGS (TLB MISS):         0 
cpu0_ITLB AVERAGE MISS LATENCY: 3.29263 cycles
cpu0_DTLB TOTAL       ACCESS:   29652514  HIT:   25532179  MISS:    4120335  iACCESS:          0  iHIT:          0  iMISS:          0  dACCESS:   29652514  dHIT:   25532179  dMISS:    4120335  itACCESS:          0  itHIT:          0  itMISS:          0  dtACCESS:          0  dtHIT:          0  dtMISS:          0
cpu0_DTLB LOAD         ACCESS:   29652514  HIT:   25532179  MISS:    4120335  iACCESS:          0  iHIT:          0  iMISS:          0  dACCESS:   29652514  dHIT:   25532179  dMISS:    4120335  itACCESS:          0  itHIT:          0  itMISS:          0  dtACCESS:          0  dtHIT:          0  dtMISS:          0
cpu0_DTLB RFO          ACCESS:          0  HIT:          0  MISS:          0  iACCESS:          0  iHIT:          0  iMISS:          0  dACCESS:          0  dHIT:          0  dMISS:          0  itACCESS:          0  itHIT:          0  itMISS:          0  dtACCESS:          0  dtHIT:          0  dtMISS:          0
cpu0_DTLB PREFETCH     ACCESS:          0  HIT:          0  MISS:          0  iACCESS:          0  iHIT:          0  iMISS:          0  dACCESS:          0  dHIT:          0  dMISS:          0  itACCESS:          0  itHIT:          0  itMISS:          0  dtACCESS:          0  dtHIT:          0  dtMISS:          0
cpu0_DTLB WRITE        ACCESS:          0  HIT:          0  MISS:          0  iACCESS:          0  iHIT:          0  iMISS:          0  dACCESS:          0  dHIT:          0  dMISS:          0  itACCESS:          0  itHIT:          0  itMISS:          0  dtACCESS:          0  dtHIT:          0  dtMISS:          0
cpu0_DTLB TRANSLATION  ACCESS:          0  HIT:          0  MISS:          0  iACCESS:          0  iHIT:          0  iMISS:          0  dACCESS:          0  dHIT:          0  dMISS:          0  itACCESS:          0  itHIT:          0  itMISS:          0  dtACCESS:          0  dtHIT:          0  dtMISS:          0
cpu0_DTLB PREFETCH  REQUESTED:          0  ISSUED:          0  CROSSED:          0  USEFUL:          0  USELESS:          0
cpu0_DTLB AVERAGE iMISS LATENCY: 0 cycles
cpu0_DTLB AVERAGE dMISS LATENCY: 6.89271 cycles
cpu0_DTLB AVERAGE itMISS LATENCY: 0 cycles
cpu0_DTLB AVERAGE dtMISS LATENCY: 0 cycles
cpu0_DTLB PAGE CROSSINGS (TLB HIT):         0 
cpu0_DTLB PAGE CROSSINGS (TLB MISS):         0 
cpu0_DTLB AVERAGE MISS LATENCY: 6.89271 cycles
cpu0_STLB TOTAL       ACCESS:    2525414  HIT:    2364321  MISS:     161093  iACCESS:     342524  iHIT:     285921  iMISS:      56603  dACCESS:    2182890  dHIT:    2078400  dMISS:     104490  itACCESS:          0  itHIT:          0  itMISS:          0  dtACCESS:          0  dtHIT:          0  dtMISS:          0
cpu0_STLB LOAD         ACCESS:    2525414  HIT:    2364321  MISS:     161093  iACCESS:     342524  iHIT:     285921  iMISS:      56603  dACCESS:    2182890  dHIT:    2078400  dMISS:     104490  itACCESS:          0  itHIT:          0  itMISS:          0  dtACCESS:          0  dtHIT:          0  dtMISS:          0
cpu0_STLB RFO          ACCESS:          0  HIT:          0  MISS:          0  iACCESS:          0  iHIT:          0  iMISS:          0  dACCESS:          0  dHIT:          0  dMISS:          0  itACCESS:          0  itHIT:          0  itMISS:          0  dtACCESS:          0  dtHIT:          0  dtMISS:          0
cpu0_STLB PREFETCH     ACCESS:          0  HIT:          0  MISS:          0  iACCESS:          0  iHIT:          0  iMISS:          0  dACCESS:          0  dHIT:          0  dMISS:          0  itACCESS:          0  itHIT:          0  itMISS:          0  dtACCESS:          0  dtHIT:          0  dtMISS:          0
cpu0_STLB WRITE        ACCESS:          0  HIT:          0  MISS:          0  iACCESS:          0  iHIT:          0  iMISS:          0  dACCESS:          0  dHIT:          0  dMISS:          0  itACCESS:          0  itHIT:          0  itMISS:          0  dtACCESS:          0  dtHIT:          0  dtMISS:          0
cpu0_STLB TRANSLATION  ACCESS:          0  HIT:          0  MISS:          0  iACCESS:          0  iHIT:          0  iMISS:          0  dACCESS:          0  dHIT:          0  dMISS:          0  itACCESS:          0  itHIT:          0  itMISS:          0  dtACCESS:          0  dtHIT:          0  dtMISS:          0
cpu0_STLB PREFETCH  REQUESTED:          0  ISSUED:          0  CROSSED:          0  USEFUL:          0  USELESS:          0
cpu0_STLB AVERAGE iMISS LATENCY: 18.3978 cycles
cpu0_STLB AVERAGE dMISS LATENCY: 66.9027 cycles
cpu0_STLB AVERAGE itMISS LATENCY: 0 cycles
cpu0_STLB AVERAGE dtMISS LATENCY: 0 cycles
cpu0_STLB PAGE CROSSINGS (TLB HIT):         0 
cpu0_STLB PAGE CROSSINGS (TLB MISS):         0 
cpu0_STLB AVERAGE MISS LATENCY: 85.3004 cycles
cpu0_L1D TOTAL       ACCESS:   44989701  HIT:   38777937  MISS:    6211764  iACCESS:          0  iHIT:          0  iMISS:          0  dACCESS:   44770865  dHIT:   38758680  dMISS:    6012185  itACCESS:      61189  itHIT:       8899  itMISS:      52290  dtACCESS:     157647  dtHIT:      10358  dtMISS:     147289
cpu0_L1D LOAD         ACCESS:   21759817  HIT:   18243011  MISS:    3516806  iACCESS:          0  iHIT:          0  iMISS:          0  dACCESS:   21759817  dHIT:   18243011  dMISS:    3516806  itACCESS:          0  itHIT:          0  itMISS:          0  dtACCESS:          0  dtHIT:          0  dtMISS:          0
cpu0_L1D RFO          ACCESS:          0  HIT:          0  MISS:          0  iACCESS:          0  iHIT:          0  iMISS:          0  dACCESS:          0  dHIT:          0  dMISS:          0  itACCESS:          0  itHIT:          0  itMISS:          0  dtACCESS:          0  dtHIT:          0  dtMISS:          0
cpu0_L1D PREFETCH     ACCESS:   13179420  HIT:   11085391  MISS:    2094029  iACCESS:          0  iHIT:          0  iMISS:          0  dACCESS:   13179420  dHIT:   11085391  dMISS:    2094029  itACCESS:          0  itHIT:          0  itMISS:          0  dtACCESS:          0  dtHIT:          0  dtMISS:          0
cpu0_L1D WRITE        ACCESS:    9831628  HIT:    9430278  MISS:     401350  iACCESS:          0  iHIT:          0  iMISS:          0  dACCESS:    9831628  dHIT:    9430278  dMISS:     401350  itACCESS:          0  itHIT:          0  itMISS:          0  dtACCESS:          0  dtHIT:          0  dtMISS:          0
cpu0_L1D TRANSLATION  ACCESS:     218836  HIT:      19257  MISS:     199579  iACCESS:          0  iHIT:          0  iMISS:          0  dACCESS:          0  dHIT:          0  dMISS:          0  itACCESS:      61189  itHIT:       8899  itMISS:      52290  dtACCESS:     157647  dtHIT:      10358  dtMISS:     147289
cpu0_L1D PREFETCH  REQUESTED:   21759817  ISSUED:   17290562  CROSSED:          0  USEFUL:     276533  USELESS:     773179
cpu0_L1D AVERAGE iMISS LATENCY: 0 cycles
cpu0_L1D AVERAGE dMISS LATENCY: 22.5065 cycles
cpu0_L1D AVERAGE itMISS LATENCY: 0.398518 cycles
cpu0_L1D AVERAGE dtMISS LATENCY: 1.3576 cycles
cpu0_L1D PAGE CROSSINGS (TLB HIT):         0 
cpu0_L1D PAGE CROSSINGS (TLB MISS):         0 
cpu0_L1D AVERAGE MISS LATENCY: 24.2626 cycles
cpu0_L2C TOTAL       ACCESS:    7984153  HIT:    2380635  MISS:    5603518  iACCESS:    2966536  iHIT:     766686  iMISS:    2199850  dACCESS:    4828501  dHIT:    1503058  dMISS:    3325443  itACCESS:      52290  itHIT:      37640  itMISS:      14650  dtACCESS:     136826  dtHIT:      73251  dtMISS:      63575
cpu0_L2C LOAD         ACCESS:    3012774  HIT:    1041928  MISS:    1970846  iACCESS:     693653  iHIT:     125170  iMISS:     568483  dACCESS:    2319121  dHIT:     916758  dMISS:    1402363  itACCESS:          0  itHIT:          0  itMISS:          0  dtACCESS:          0  dtHIT:          0  dtMISS:          0
cpu0_L2C RFO          ACCESS:     162823  HIT:      55664  MISS:     107159  iACCESS:          0  iHIT:          0  iMISS:          0  dACCESS:     162823  dHIT:      55664  dMISS:     107159  itACCESS:          0  itHIT:          0  itMISS:          0  dtACCESS:          0  dtHIT:          0  dtMISS:          0
cpu0_L2C PREFETCH     ACCESS:    4366784  HIT:    1051312  MISS:    3315472  iACCESS:    2272883  iHIT:     641516  iMISS:    1631367  dACCESS:    2093901  dHIT:     409796  dMISS:    1684105  itACCESS:          0  itHIT:          0  itMISS:          0  dtACCESS:          0  dtHIT:          0  dtMISS:          0
cpu0_L2C WRITE        ACCESS:     252656  HIT:     120840  MISS:     131816  iACCESS:          0  iHIT:          0  iMISS:          0  dACCESS:     252656  dHIT:     120840  dMISS:     131816  itACCESS:          0  itHIT:          0  itMISS:          0  dtACCESS:          0  dtHIT:          0  dtMISS:          0
cpu0_L2C TRANSLATION  ACCESS:     189116  HIT:     110891  MISS:      78225  iACCESS:          0  iHIT:          0  iMISS:          0  dACCESS:          0  dHIT:          0  dMISS:          0  itACCESS:      52290  itHIT:      37640  itMISS:      14650  dtACCESS:     136826  dtHIT:      73251  dtMISS:      63575
cpu0_L2C PREFETCH  REQUESTED:    1279596  ISSUED:    1279596  CROSSED:          0  USEFUL:     375029  USELESS:     343292
cpu0_L2C AVERAGE iMISS LATENCY: 13.4787 cycles
cpu0_L2C AVERAGE dMISS LATENCY: 25.1779 cycles
cpu0_L2C AVERAGE itMISS LATENCY: 0.354949 cycles
cpu0_L2C AVERAGE dtMISS LATENCY: 1.27247 cycles
cpu0_L2C PAGE CROSSINGS (TLB HIT):         0 
cpu0_L2C PAGE CROSSINGS (TLB MISS):         0 
cpu0_L2C AVERAGE MISS LATENCY: 40.2839 cycles
LLC TOTAL       ACCESS:    5486288  HIT:    4711101  MISS:     775187  iACCESS:    2153353  iHIT:    1921995  iMISS:     231358  dACCESS:    3254710  dHIT:    2753628  dMISS:     501082  itACCESS:      14650  itHIT:       4708  itMISS:       9942  dtACCESS:      63575  dtHIT:      30770  dtMISS:      32805
LLC LOAD         ACCESS:    1968672  HIT:    1792242  MISS:     176430  iACCESS:     567422  iHIT:     516202  iMISS:      51220  dACCESS:    1401250  dHIT:    1276040  dMISS:     125210  itACCESS:          0  itHIT:          0  itMISS:          0  dtACCESS:          0  dtHIT:          0  dtMISS:          0
LLC RFO          ACCESS:     107154  HIT:      78232  MISS:      28922  iACCESS:          0  iHIT:          0  iMISS:          0  dACCESS:     107154  dHIT:      78232  dMISS:      28922  itACCESS:          0  itHIT:          0  itMISS:          0  dtACCESS:          0  dtHIT:          0  dtMISS:          0
LLC PREFETCH     ACCESS:    3206776  HIT:    2687971  MISS:     518805  iACCESS:    1585931  iHIT:    1405793  iMISS:     180138  dACCESS:    1620845  dHIT:    1282178  dMISS:     338667  itACCESS:          0  itHIT:          0  itMISS:          0  dtACCESS:          0  dtHIT:          0  dtMISS:          0
LLC WRITE        ACCESS:     125461  HIT:     117178  MISS:       8283  iACCESS:          0  iHIT:          0  iMISS:          0  dACCESS:     125461  dHIT:     117178  dMISS:       8283  itACCESS:          0  itHIT:          0  itMISS:          0  dtACCESS:          0  dtHIT:          0  dtMISS:          0
LLC TRANSLATION  ACCESS:      78225  HIT:      35478  MISS:      42747  iACCESS:          0  iHIT:          0  iMISS:          0  dACCESS:          0  dHIT:          0  dMISS:          0  itACCESS:      14650  itHIT:       4708  itMISS:       9942  dtACCESS:      63575  dtHIT:      30770  dtMISS:      32805
LLC PREFETCH  REQUESTED:          0  ISSUED:          0  CROSSED:          0  USEFUL:          0  USELESS:          0
LLC AVERAGE iMISS LATENCY: 43.8341 cycles
LLC AVERAGE dMISS LATENCY: 103.931 cycles
LLC AVERAGE itMISS LATENCY: 2.19461 cycles
LLC AVERAGE dtMISS LATENCY: 7.59949 cycles
LLC PAGE CROSSINGS (TLB HIT):         0 
LLC PAGE CROSSINGS (TLB MISS):         0 
LLC AVERAGE MISS LATENCY: 157.559 cycles

PageTableWalker TOTAL       ACCESS:      72915  
PageTableWalker AVERAGE LATENCY: 4.61542 cycles
PageTableWalker TOTAL LATENCY: 336533 cycles

DRAM Statistics
Channel 0
 RQ ROW_BUFFER_HIT:     214462
  ROW_BUFFER_MISS:     551752
 AVG DBUS CONGESTED CYCLE:    3.63403
 WQ ROW_BUFFER_HIT:      14116
  ROW_BUFFER_MISS:      18381  FULL:          0

