last_page:0x200000000000000
VMEM_RES_CAP:0x100000
PAGE_SIZE:4096
LOG2_PAGE_SIZE:12
LOG2_PAGE_TABLE_SIZE:9
page_table_levels:5
WARNING: physical memory size is smaller than virtual memory size
FDiP enabled with aggresivity 16

*** ChampSim Multicore Out-of-Order Simulator ***

Warmup Instructions: 50000000
Simulation Instructions: 100000000
Number of CPUs: 1
Small page size: 4096
Large page size: 2097152

CPU 0 Bimodal branch predictor
Basic BTB sets: 1024 ways: 8 indirect buffer size: 4096 RAS size: 64
Instruction page size distrubution: 0
Loading instruction page size distribution from /home/bsc/bsc018186/scratch/itp_asplos25_AE/dump/srv225_ap.pdst
Data page size distrubution: 0
Loading data page size distribution from /home/bsc/bsc018186/scratch/itp_asplos25_AE/dump/srv225_ap.pdst
cpu0_L2C IP-based stride prefetcher
cpu0_L1D next line prefetcher
CHiRPing...
cpu0_L1I next line prefetcher
Off-chip DRAM Size: 4 GiB Channels: 1 Width: 64-bit Data Rate: 3200 MT/s
Heartbeat CPU 0 instructions: 10000003 cycles: 2500317 heartbeat IPC: 3.9995 cumulative IPC: 3.9995 (Simulation time: 0 hr 0 min 38 sec) 
Heartbeat CPU 0 instructions: 20000002 cycles: 5000319 heartbeat IPC: 4 cumulative IPC: 3.99975 (Simulation time: 0 hr 1 min 18 sec) 
Heartbeat CPU 0 instructions: 30000001 cycles: 7500337 heartbeat IPC: 3.99998 cumulative IPC: 3.99983 (Simulation time: 0 hr 1 min 59 sec) 
Heartbeat CPU 0 instructions: 40000000 cycles: 10000380 heartbeat IPC: 3.99994 cumulative IPC: 3.99985 (Simulation time: 0 hr 2 min 41 sec) 
Heartbeat CPU 0 instructions: 50000003 cycles: 12500401 heartbeat IPC: 3.99997 cumulative IPC: 3.99988 (Simulation time: 0 hr 3 min 23 sec) 
Warmup finished CPU 0 instructions: 50000003 cycles: 12500402 cumulative IPC: 3.99988 (Simulation time: 0 hr 3 min 23 sec) 

Warmup complete CPU 0 instructions: 50000003 cycles: 12500402 (Simulation time: 0 hr 3 min 23 sec) 

Heartbeat CPU 0 instructions: 60000001 cycles: 30215041 heartbeat IPC: 0.564505 cumulative IPC: 0.564505 (Simulation time: 0 hr 4 min 34 sec) 
Heartbeat CPU 0 instructions: 70000002 cycles: 48483447 heartbeat IPC: 0.547394 cumulative IPC: 0.555818 (Simulation time: 0 hr 5 min 46 sec) 
Heartbeat CPU 0 instructions: 80000000 cycles: 65719502 heartbeat IPC: 0.58018 cumulative IPC: 0.563708 (Simulation time: 0 hr 6 min 57 sec) 
Heartbeat CPU 0 instructions: 90000004 cycles: 84125033 heartbeat IPC: 0.543316 cumulative IPC: 0.558468 (Simulation time: 0 hr 8 min 9 sec) 
Heartbeat CPU 0 instructions: 100000000 cycles: 101315385 heartbeat IPC: 0.581722 cumulative IPC: 0.562969 (Simulation time: 0 hr 9 min 19 sec) 
*** Reached end of trace: /gpfs/projects/bsc18/MN4/bsc18/romol/ChampSim/traces/qualcomm_srv/srv225_ap.champsimtrace.xz
Heartbeat CPU 0 instructions: 110000000 cycles: 118887171 heartbeat IPC: 0.569095 cumulative IPC: 0.56398 (Simulation time: 0 hr 10 min 30 sec) 
Heartbeat CPU 0 instructions: 120000001 cycles: 136511793 heartbeat IPC: 0.567389 cumulative IPC: 0.564465 (Simulation time: 0 hr 11 min 42 sec) 
Heartbeat CPU 0 instructions: 130000002 cycles: 154222172 heartbeat IPC: 0.564641 cumulative IPC: 0.564487 (Simulation time: 0 hr 12 min 52 sec) 
Heartbeat CPU 0 instructions: 140000002 cycles: 172530331 heartbeat IPC: 0.546205 cumulative IPC: 0.562395 (Simulation time: 0 hr 14 min 4 sec) 
Heartbeat CPU 0 instructions: 150000000 cycles: 190543796 heartbeat IPC: 0.555141 cumulative IPC: 0.561661 (Simulation time: 0 hr 15 min 14 sec) 
Simulation finished CPU 0 instructions: 100000002 cycles: 178043396 cumulative IPC: 0.561661 (Simulation time: 0 hr 15 min 14 sec) 

Simulation complete CPU 0 instructions: 100000002 cycles: 178043396 (Simulation time: 0 hr 15 min 14 sec) 


ChampSim completed all CPUs

Saving instructions large page distribution to /home/bsc/bsc018186/scratch/itp_asplos25_AE/dump/srv225_ap.pdst...
Saving data large page distribution to /home/bsc/bsc018186/scratch/itp_asplos25_AE/dump/srv225_ap.pdst...
=== Simulation ===
CPU 0 runs /gpfs/projects/bsc18/MN4/bsc18/romol/ChampSim/traces/qualcomm_srv/srv225_ap.champsimtrace.xz

Region of Interest Statistics

CPU 0 cumulative IPC: 0.561661 instructions: 100000002 cycles: 178043396
CPU 0 Branch Prediction Accuracy: 80.4534% MPKI: 35.261 Average ROB Occupancy at Mispredict: 10.3848
Branch type MPKI
BRANCH_DIRECT_JUMP: 1.29674
BRANCH_INDIRECT: 17.633
BRANCH_CONDITIONAL: 11.494
BRANCH_DIRECT_CALL: 2.43952
BRANCH_INDIRECT_CALL: 0.68899
BRANCH_RETURN: 1.7087

Instructions large pages: 0
Instructions small pages: 5615
Large page distribution for instructions: 0%

Data large pages: 0
Data small pages: 4573
Large page distribution for data: 0%

cpu0_L1I TOTAL       ACCESS:   35650779  HIT:   27348155  MISS:    8302624  iACCESS:   35650779  iHIT:   27348155  iMISS:    8302624  dACCESS:          0  dHIT:          0  dMISS:          0  itACCESS:          0  itHIT:          0  itMISS:          0  dtACCESS:          0  dtHIT:          0  dtMISS:          0
cpu0_L1I LOAD         ACCESS:   10256011  HIT:    7981955  MISS:    2274056  iACCESS:   10256011  iHIT:    7981955  iMISS:    2274056  dACCESS:          0  dHIT:          0  dMISS:          0  itACCESS:          0  itHIT:          0  itMISS:          0  dtACCESS:          0  dtHIT:          0  dtMISS:          0
cpu0_L1I RFO          ACCESS:          0  HIT:          0  MISS:          0  iACCESS:          0  iHIT:          0  iMISS:          0  dACCESS:          0  dHIT:          0  dMISS:          0  itACCESS:          0  itHIT:          0  itMISS:          0  dtACCESS:          0  dtHIT:          0  dtMISS:          0
cpu0_L1I PREFETCH     ACCESS:   25394768  HIT:   19366200  MISS:    6028568  iACCESS:   25394768  iHIT:   19366200  iMISS:    6028568  dACCESS:          0  dHIT:          0  dMISS:          0  itACCESS:          0  itHIT:          0  itMISS:          0  dtACCESS:          0  dtHIT:          0  dtMISS:          0
cpu0_L1I WRITE        ACCESS:          0  HIT:          0  MISS:          0  iACCESS:          0  iHIT:          0  iMISS:          0  dACCESS:          0  dHIT:          0  dMISS:          0  itACCESS:          0  itHIT:          0  itMISS:          0  dtACCESS:          0  dtHIT:          0  dtMISS:          0
cpu0_L1I TRANSLATION  ACCESS:          0  HIT:          0  MISS:          0  iACCESS:          0  iHIT:          0  iMISS:          0  dACCESS:          0  dHIT:          0  dMISS:          0  itACCESS:          0  itHIT:          0  itMISS:          0  dtACCESS:          0  dtHIT:          0  dtMISS:          0
cpu0_L1I PREFETCH  REQUESTED:   27575485  ISSUED:   27572672  CROSSED:          0  USEFUL:    1968247  USELESS:     650091
cpu0_L1I AVERAGE iMISS LATENCY: 18.2243 cycles
cpu0_L1I AVERAGE dMISS LATENCY: 0 cycles
cpu0_L1I AVERAGE itMISS LATENCY: 0 cycles
cpu0_L1I AVERAGE dtMISS LATENCY: 0 cycles
cpu0_L1I PAGE CROSSINGS (TLB HIT):         0 
cpu0_L1I PAGE CROSSINGS (TLB MISS):         0 
cpu0_L1I AVERAGE MISS LATENCY: 18.2243 cycles
cpu0_ITLB TOTAL       ACCESS:   29829630  HIT:   27904546  MISS:    1925084  iACCESS:   29829630  iHIT:   27904546  iMISS:    1925084  dACCESS:          0  dHIT:          0  dMISS:          0  itACCESS:          0  itHIT:          0  itMISS:          0  dtACCESS:          0  dtHIT:          0  dtMISS:          0
cpu0_ITLB LOAD         ACCESS:   29829630  HIT:   27904546  MISS:    1925084  iACCESS:   29829630  iHIT:   27904546  iMISS:    1925084  dACCESS:          0  dHIT:          0  dMISS:          0  itACCESS:          0  itHIT:          0  itMISS:          0  dtACCESS:          0  dtHIT:          0  dtMISS:          0
cpu0_ITLB RFO          ACCESS:          0  HIT:          0  MISS:          0  iACCESS:          0  iHIT:          0  iMISS:          0  dACCESS:          0  dHIT:          0  dMISS:          0  itACCESS:          0  itHIT:          0  itMISS:          0  dtACCESS:          0  dtHIT:          0  dtMISS:          0
cpu0_ITLB PREFETCH     ACCESS:          0  HIT:          0  MISS:          0  iACCESS:          0  iHIT:          0  iMISS:          0  dACCESS:          0  dHIT:          0  dMISS:          0  itACCESS:          0  itHIT:          0  itMISS:          0  dtACCESS:          0  dtHIT:          0  dtMISS:          0
cpu0_ITLB WRITE        ACCESS:          0  HIT:          0  MISS:          0  iACCESS:          0  iHIT:          0  iMISS:          0  dACCESS:          0  dHIT:          0  dMISS:          0  itACCESS:          0  itHIT:          0  itMISS:          0  dtACCESS:          0  dtHIT:          0  dtMISS:          0
cpu0_ITLB TRANSLATION  ACCESS:          0  HIT:          0  MISS:          0  iACCESS:          0  iHIT:          0  iMISS:          0  dACCESS:          0  dHIT:          0  dMISS:          0  itACCESS:          0  itHIT:          0  itMISS:          0  dtACCESS:          0  dtHIT:          0  dtMISS:          0
cpu0_ITLB PREFETCH  REQUESTED:          0  ISSUED:          0  CROSSED:          0  USEFUL:     329086  USELESS:      60891
cpu0_ITLB AVERAGE iMISS LATENCY: 3.87433 cycles
cpu0_ITLB AVERAGE dMISS LATENCY: 0 cycles
cpu0_ITLB AVERAGE itMISS LATENCY: 0 cycles
cpu0_ITLB AVERAGE dtMISS LATENCY: 0 cycles
cpu0_ITLB PAGE CROSSINGS (TLB HIT):         0 
cpu0_ITLB PAGE CROSSINGS (TLB MISS):         0 
cpu0_ITLB AVERAGE MISS LATENCY: 3.87433 cycles
cpu0_DTLB TOTAL       ACCESS:   28025802  HIT:   26052612  MISS:    1973190  iACCESS:          0  iHIT:          0  iMISS:          0  dACCESS:   28025802  dHIT:   26052612  dMISS:    1973190  itACCESS:          0  itHIT:          0  itMISS:          0  dtACCESS:          0  dtHIT:          0  dtMISS:          0
cpu0_DTLB LOAD         ACCESS:   28025802  HIT:   26052612  MISS:    1973190  iACCESS:          0  iHIT:          0  iMISS:          0  dACCESS:   28025802  dHIT:   26052612  dMISS:    1973190  itACCESS:          0  itHIT:          0  itMISS:          0  dtACCESS:          0  dtHIT:          0  dtMISS:          0
cpu0_DTLB RFO          ACCESS:          0  HIT:          0  MISS:          0  iACCESS:          0  iHIT:          0  iMISS:          0  dACCESS:          0  dHIT:          0  dMISS:          0  itACCESS:          0  itHIT:          0  itMISS:          0  dtACCESS:          0  dtHIT:          0  dtMISS:          0
cpu0_DTLB PREFETCH     ACCESS:          0  HIT:          0  MISS:          0  iACCESS:          0  iHIT:          0  iMISS:          0  dACCESS:          0  dHIT:          0  dMISS:          0  itACCESS:          0  itHIT:          0  itMISS:          0  dtACCESS:          0  dtHIT:          0  dtMISS:          0
cpu0_DTLB WRITE        ACCESS:          0  HIT:          0  MISS:          0  iACCESS:          0  iHIT:          0  iMISS:          0  dACCESS:          0  dHIT:          0  dMISS:          0  itACCESS:          0  itHIT:          0  itMISS:          0  dtACCESS:          0  dtHIT:          0  dtMISS:          0
cpu0_DTLB TRANSLATION  ACCESS:          0  HIT:          0  MISS:          0  iACCESS:          0  iHIT:          0  iMISS:          0  dACCESS:          0  dHIT:          0  dMISS:          0  itACCESS:          0  itHIT:          0  itMISS:          0  dtACCESS:          0  dtHIT:          0  dtMISS:          0
cpu0_DTLB PREFETCH  REQUESTED:          0  ISSUED:          0  CROSSED:          0  USEFUL:          0  USELESS:          0
cpu0_DTLB AVERAGE iMISS LATENCY: 0 cycles
cpu0_DTLB AVERAGE dMISS LATENCY: 11.3098 cycles
cpu0_DTLB AVERAGE itMISS LATENCY: 0 cycles
cpu0_DTLB AVERAGE dtMISS LATENCY: 0 cycles
cpu0_DTLB PAGE CROSSINGS (TLB HIT):         0 
cpu0_DTLB PAGE CROSSINGS (TLB MISS):         0 
cpu0_DTLB AVERAGE MISS LATENCY: 11.3098 cycles
cpu0_STLB TOTAL       ACCESS:    1592064  HIT:    1361378  MISS:     230686  iACCESS:     389984  iHIT:     302904  iMISS:      87080  dACCESS:    1202080  dHIT:    1058474  dMISS:     143606  itACCESS:          0  itHIT:          0  itMISS:          0  dtACCESS:          0  dtHIT:          0  dtMISS:          0
cpu0_STLB LOAD         ACCESS:    1592064  HIT:    1361378  MISS:     230686  iACCESS:     389984  iHIT:     302904  iMISS:      87080  dACCESS:    1202080  dHIT:    1058474  dMISS:     143606  itACCESS:          0  itHIT:          0  itMISS:          0  dtACCESS:          0  dtHIT:          0  dtMISS:          0
cpu0_STLB RFO          ACCESS:          0  HIT:          0  MISS:          0  iACCESS:          0  iHIT:          0  iMISS:          0  dACCESS:          0  dHIT:          0  dMISS:          0  itACCESS:          0  itHIT:          0  itMISS:          0  dtACCESS:          0  dtHIT:          0  dtMISS:          0
cpu0_STLB PREFETCH     ACCESS:          0  HIT:          0  MISS:          0  iACCESS:          0  iHIT:          0  iMISS:          0  dACCESS:          0  dHIT:          0  dMISS:          0  itACCESS:          0  itHIT:          0  itMISS:          0  dtACCESS:          0  dtHIT:          0  dtMISS:          0
cpu0_STLB WRITE        ACCESS:          0  HIT:          0  MISS:          0  iACCESS:          0  iHIT:          0  iMISS:          0  dACCESS:          0  dHIT:          0  dMISS:          0  itACCESS:          0  itHIT:          0  itMISS:          0  dtACCESS:          0  dtHIT:          0  dtMISS:          0
cpu0_STLB TRANSLATION  ACCESS:          0  HIT:          0  MISS:          0  iACCESS:          0  iHIT:          0  iMISS:          0  dACCESS:          0  dHIT:          0  dMISS:          0  itACCESS:          0  itHIT:          0  itMISS:          0  dtACCESS:          0  dtHIT:          0  dtMISS:          0
cpu0_STLB PREFETCH  REQUESTED:          0  ISSUED:          0  CROSSED:          0  USEFUL:          0  USELESS:          0
cpu0_STLB AVERAGE iMISS LATENCY: 18.8422 cycles
cpu0_STLB AVERAGE dMISS LATENCY: 55.0996 cycles
cpu0_STLB AVERAGE itMISS LATENCY: 0 cycles
cpu0_STLB AVERAGE dtMISS LATENCY: 0 cycles
cpu0_STLB PAGE CROSSINGS (TLB HIT):         0 
cpu0_STLB PAGE CROSSINGS (TLB MISS):         0 
cpu0_STLB AVERAGE MISS LATENCY: 73.9418 cycles
cpu0_L1D TOTAL       ACCESS:   42555536  HIT:   38539814  MISS:    4015722  iACCESS:          0  iHIT:          0  iMISS:          0  dACCESS:   42268859  dHIT:   38512638  dMISS:    3756221  itACCESS:      93398  itHIT:      14934  itMISS:      78464  dtACCESS:     193279  dtHIT:      12242  dtMISS:     181037
cpu0_L1D LOAD         ACCESS:   19366202  HIT:   17649159  MISS:    1717043  iACCESS:          0  iHIT:          0  iMISS:          0  dACCESS:   19366202  dHIT:   17649159  dMISS:    1717043  itACCESS:          0  itHIT:          0  itMISS:          0  dtACCESS:          0  dtHIT:          0  dtMISS:          0
cpu0_L1D RFO          ACCESS:          0  HIT:          0  MISS:          0  iACCESS:          0  iHIT:          0  iMISS:          0  dACCESS:          0  dHIT:          0  dMISS:          0  itACCESS:          0  itHIT:          0  itMISS:          0  dtACCESS:          0  dtHIT:          0  dtMISS:          0
cpu0_L1D PREFETCH     ACCESS:   12748589  HIT:   11159978  MISS:    1588611  iACCESS:          0  iHIT:          0  iMISS:          0  dACCESS:   12748589  dHIT:   11159978  dMISS:    1588611  itACCESS:          0  itHIT:          0  itMISS:          0  dtACCESS:          0  dtHIT:          0  dtMISS:          0
cpu0_L1D WRITE        ACCESS:   10154068  HIT:    9703501  MISS:     450567  iACCESS:          0  iHIT:          0  iMISS:          0  dACCESS:   10154068  dHIT:    9703501  dMISS:     450567  itACCESS:          0  itHIT:          0  itMISS:          0  dtACCESS:          0  dtHIT:          0  dtMISS:          0
cpu0_L1D TRANSLATION  ACCESS:     286677  HIT:      27176  MISS:     259501  iACCESS:          0  iHIT:          0  iMISS:          0  dACCESS:          0  dHIT:          0  dMISS:          0  itACCESS:      93398  itHIT:      14934  itMISS:      78464  dtACCESS:     193279  dtHIT:      12242  dtMISS:     181037
cpu0_L1D PREFETCH  REQUESTED:   19366202  ISSUED:   17369844  CROSSED:          0  USEFUL:     312411  USELESS:     702365
cpu0_L1D AVERAGE iMISS LATENCY: 0 cycles
cpu0_L1D AVERAGE dMISS LATENCY: 38.4444 cycles
cpu0_L1D AVERAGE itMISS LATENCY: 0.896256 cycles
cpu0_L1D AVERAGE dtMISS LATENCY: 2.69308 cycles
cpu0_L1D PAGE CROSSINGS (TLB HIT):         0 
cpu0_L1D PAGE CROSSINGS (TLB MISS):         0 
cpu0_L1D AVERAGE MISS LATENCY: 42.0337 cycles
cpu0_L2C TOTAL       ACCESS:    7225197  HIT:    1636328  MISS:    5588869  iACCESS:    3338214  iHIT:     818260  iMISS:    2519954  dACCESS:    3628993  dHIT:     657628  dMISS:    2971365  itACCESS:      78464  itHIT:      56708  itMISS:      21756  dtACCESS:     179526  dtHIT:     103732  dtMISS:      75794
cpu0_L2C LOAD         ACCESS:    1701334  HIT:     259198  MISS:    1442136  iACCESS:     756617  iHIT:     129681  iMISS:     626936  dACCESS:     944717  dHIT:     129517  dMISS:     815200  itACCESS:          0  itHIT:          0  itMISS:          0  dtACCESS:          0  dtHIT:          0  dtMISS:          0
cpu0_L2C RFO          ACCESS:     165008  HIT:      45139  MISS:     119869  iACCESS:          0  iHIT:          0  iMISS:          0  dACCESS:     165008  dHIT:      45139  dMISS:     119869  itACCESS:          0  itHIT:          0  itMISS:          0  dtACCESS:          0  dtHIT:          0  dtMISS:          0
cpu0_L2C PREFETCH     ACCESS:    4826218  HIT:    1047904  MISS:    3778314  iACCESS:    2581597  iHIT:     688579  iMISS:    1893018  dACCESS:    2244621  dHIT:     359325  dMISS:    1885296  itACCESS:          0  itHIT:          0  itMISS:          0  dtACCESS:          0  dtHIT:          0  dtMISS:          0
cpu0_L2C WRITE        ACCESS:     274647  HIT:     123647  MISS:     151000  iACCESS:          0  iHIT:          0  iMISS:          0  dACCESS:     274647  dHIT:     123647  dMISS:     151000  itACCESS:          0  itHIT:          0  itMISS:          0  dtACCESS:          0  dtHIT:          0  dtMISS:          0
cpu0_L2C TRANSLATION  ACCESS:     257990  HIT:     160440  MISS:      97550  iACCESS:          0  iHIT:          0  iMISS:          0  dACCESS:          0  dHIT:          0  dMISS:          0  itACCESS:      78464  itHIT:      56708  itMISS:      21756  dtACCESS:     179526  dtHIT:     103732  dtMISS:      75794
cpu0_L2C PREFETCH  REQUESTED:    1488098  ISSUED:    1488087  CROSSED:          0  USEFUL:     409251  USELESS:     432231
cpu0_L2C AVERAGE iMISS LATENCY: 21.6771 cycles
cpu0_L2C AVERAGE dMISS LATENCY: 34.8652 cycles
cpu0_L2C AVERAGE itMISS LATENCY: 0.513307 cycles
cpu0_L2C AVERAGE dtMISS LATENCY: 1.63116 cycles
cpu0_L2C PAGE CROSSINGS (TLB HIT):         0 
cpu0_L2C PAGE CROSSINGS (TLB MISS):         0 
cpu0_L2C AVERAGE MISS LATENCY: 58.6868 cycles
LLC TOTAL       ACCESS:    5409160  HIT:    3949260  MISS:    1459900  iACCESS:    2444412  iHIT:    1932799  iMISS:     511613  dACCESS:    2867198  dHIT:    1974599  dMISS:     892599  itACCESS:      21756  itHIT:       7656  itMISS:      14100  dtACCESS:      75794  dtHIT:      34206  dtMISS:      41588
LLC LOAD         ACCESS:    1435350  HIT:    1113467  MISS:     321883  iACCESS:     625365  iHIT:     519251  iMISS:     106114  dACCESS:     809985  dHIT:     594216  dMISS:     215769  itACCESS:          0  itHIT:          0  itMISS:          0  dtACCESS:          0  dtHIT:          0  dtMISS:          0
LLC RFO          ACCESS:     119858  HIT:      68370  MISS:      51488  iACCESS:          0  iHIT:          0  iMISS:          0  dACCESS:     119858  dHIT:      68370  dMISS:      51488  itACCESS:          0  itHIT:          0  itMISS:          0  dtACCESS:          0  dtHIT:          0  dtMISS:          0
LLC PREFETCH     ACCESS:    3607925  HIT:    2586665  MISS:    1021260  iACCESS:    1819047  iHIT:    1413548  iMISS:     405499  dACCESS:    1788878  dHIT:    1173117  dMISS:     615761  itACCESS:          0  itHIT:          0  itMISS:          0  dtACCESS:          0  dtHIT:          0  dtMISS:          0
LLC WRITE        ACCESS:     148477  HIT:     138896  MISS:       9581  iACCESS:          0  iHIT:          0  iMISS:          0  dACCESS:     148477  dHIT:     138896  dMISS:       9581  itACCESS:          0  itHIT:          0  itMISS:          0  dtACCESS:          0  dtHIT:          0  dtMISS:          0
LLC TRANSLATION  ACCESS:      97550  HIT:      41862  MISS:      55688  iACCESS:          0  iHIT:          0  iMISS:          0  dACCESS:          0  dHIT:          0  dMISS:          0  itACCESS:      21756  itHIT:       7656  itMISS:      14100  dtACCESS:      75794  dtHIT:      34206  dtMISS:      41588
LLC PREFETCH  REQUESTED:          0  ISSUED:          0  CROSSED:          0  USEFUL:          0  USELESS:          0
LLC AVERAGE iMISS LATENCY: 50.5891 cycles
LLC AVERAGE dMISS LATENCY: 98.0967 cycles
LLC AVERAGE itMISS LATENCY: 1.6729 cycles
LLC AVERAGE dtMISS LATENCY: 5.23088 cycles
LLC PAGE CROSSINGS (TLB HIT):         0 
LLC PAGE CROSSINGS (TLB MISS):         0 
LLC AVERAGE MISS LATENCY: 155.59 cycles

PageTableWalker TOTAL       ACCESS:     118567  
PageTableWalker AVERAGE LATENCY: 4.12977 cycles
PageTableWalker TOTAL LATENCY: 489654 cycles

DRAM Statistics
Channel 0
 RQ ROW_BUFFER_HIT:     436396
  ROW_BUFFER_MISS:    1002968
 AVG DBUS CONGESTED CYCLE:    3.63645
 WQ ROW_BUFFER_HIT:      29450
  ROW_BUFFER_MISS:      23272  FULL:          0

