last_page:0x200000000000000
VMEM_RES_CAP:0x100000
PAGE_SIZE:4096
LOG2_PAGE_SIZE:12
LOG2_PAGE_TABLE_SIZE:9
page_table_levels:5
WARNING: physical memory size is smaller than virtual memory size
FDiP enabled with aggresivity 16

*** ChampSim Multicore Out-of-Order Simulator ***

Warmup Instructions: 50000000
Simulation Instructions: 100000000
Number of CPUs: 1
Small page size: 4096
Large page size: 2097152

CPU 0 Bimodal branch predictor
Basic BTB sets: 1024 ways: 8 indirect buffer size: 4096 RAS size: 64
Instruction page size distrubution: 0
Loading instruction page size distribution from /home/bsc/bsc018186/scratch/itp_asplos25_AE/dump/srv225_ap.pdst
Data page size distrubution: 0
Loading data page size distribution from /home/bsc/bsc018186/scratch/itp_asplos25_AE/dump/srv225_ap.pdst
cpu0_L2C IP-based stride prefetcher
cpu0_L2C is using PTP replacement policy:
	TLB_STRESS_THRESHOLD:0
	PTE_EVICTION_RATIO:0
cpu0_L1D next line prefetcher
CHiRPing...
cpu0_L1I next line prefetcher
Off-chip DRAM Size: 4 GiB Channels: 1 Width: 64-bit Data Rate: 3200 MT/s
Heartbeat CPU 0 instructions: 10000000 cycles: 2500322 heartbeat IPC: 3.99949 cumulative IPC: 3.99949 (Simulation time: 0 hr 0 min 39 sec) 
Heartbeat CPU 0 instructions: 20000001 cycles: 5000369 heartbeat IPC: 3.99993 cumulative IPC: 3.99971 (Simulation time: 0 hr 1 min 19 sec) 
Heartbeat CPU 0 instructions: 30000001 cycles: 7500390 heartbeat IPC: 3.99997 cumulative IPC: 3.9998 (Simulation time: 0 hr 2 min 1 sec) 
Heartbeat CPU 0 instructions: 40000002 cycles: 10000476 heartbeat IPC: 3.99987 cumulative IPC: 3.99981 (Simulation time: 0 hr 2 min 43 sec) 
Heartbeat CPU 0 instructions: 50000002 cycles: 12500504 heartbeat IPC: 3.99996 cumulative IPC: 3.99984 (Simulation time: 0 hr 3 min 26 sec) 
Warmup finished CPU 0 instructions: 50000002 cycles: 12500505 cumulative IPC: 3.99984 (Simulation time: 0 hr 3 min 26 sec) 

Warmup complete CPU 0 instructions: 50000002 cycles: 12500505 (Simulation time: 0 hr 3 min 26 sec) 

Heartbeat CPU 0 instructions: 60000001 cycles: 30394981 heartbeat IPC: 0.558832 cumulative IPC: 0.558832 (Simulation time: 0 hr 4 min 37 sec) 
Heartbeat CPU 0 instructions: 70000001 cycles: 48896577 heartbeat IPC: 0.540494 cumulative IPC: 0.54951 (Simulation time: 0 hr 5 min 48 sec) 
Heartbeat CPU 0 instructions: 80000000 cycles: 66401002 heartbeat IPC: 0.571285 cumulative IPC: 0.556582 (Simulation time: 0 hr 6 min 59 sec) 
Heartbeat CPU 0 instructions: 90000004 cycles: 84996273 heartbeat IPC: 0.537772 cumulative IPC: 0.551757 (Simulation time: 0 hr 8 min 10 sec) 
Heartbeat CPU 0 instructions: 100000000 cycles: 102350513 heartbeat IPC: 0.576228 cumulative IPC: 0.556483 (Simulation time: 0 hr 9 min 20 sec) 
*** Reached end of trace: /gpfs/projects/bsc18/MN4/bsc18/romol/ChampSim/traces/qualcomm_srv/srv225_ap.champsimtrace.xz
Heartbeat CPU 0 instructions: 110000000 cycles: 119986911 heartbeat IPC: 0.56701 cumulative IPC: 0.558211 (Simulation time: 0 hr 10 min 31 sec) 
Heartbeat CPU 0 instructions: 120000001 cycles: 137772353 heartbeat IPC: 0.562258 cumulative IPC: 0.558785 (Simulation time: 0 hr 11 min 41 sec) 
Heartbeat CPU 0 instructions: 130000002 cycles: 155678553 heartbeat IPC: 0.558466 cumulative IPC: 0.558745 (Simulation time: 0 hr 12 min 51 sec) 
Heartbeat CPU 0 instructions: 140000002 cycles: 174255321 heartbeat IPC: 0.538307 cumulative IPC: 0.556398 (Simulation time: 0 hr 14 min 1 sec) 
Heartbeat CPU 0 instructions: 150000001 cycles: 192528459 heartbeat IPC: 0.547252 cumulative IPC: 0.55547 (Simulation time: 0 hr 15 min 11 sec) 
Simulation finished CPU 0 instructions: 100000004 cycles: 180027956 cumulative IPC: 0.55547 (Simulation time: 0 hr 15 min 11 sec) 

Simulation complete CPU 0 instructions: 100000004 cycles: 180027956 (Simulation time: 0 hr 15 min 11 sec) 


ChampSim completed all CPUs

Saving instructions large page distribution to /home/bsc/bsc018186/scratch/itp_asplos25_AE/dump/srv225_ap.pdst...
Saving data large page distribution to /home/bsc/bsc018186/scratch/itp_asplos25_AE/dump/srv225_ap.pdst...
=== Simulation ===
CPU 0 runs /gpfs/projects/bsc18/MN4/bsc18/romol/ChampSim/traces/qualcomm_srv/srv225_ap.champsimtrace.xz

Region of Interest Statistics

CPU 0 cumulative IPC: 0.55547 instructions: 100000004 cycles: 180027956
CPU 0 Branch Prediction Accuracy: 80.4534% MPKI: 35.261 Average ROB Occupancy at Mispredict: 10.3931
Branch type MPKI
BRANCH_DIRECT_JUMP: 1.29674
BRANCH_INDIRECT: 17.633
BRANCH_CONDITIONAL: 11.494
BRANCH_DIRECT_CALL: 2.43952
BRANCH_INDIRECT_CALL: 0.68899
BRANCH_RETURN: 1.7087

Instructions large pages: 0
Instructions small pages: 5615
Large page distribution for instructions: 0%

Data large pages: 0
Data small pages: 4573
Large page distribution for data: 0%

cpu0_L1I TOTAL       ACCESS:   35711422  HIT:   27337580  MISS:    8373842  iACCESS:   35711422  iHIT:   27337580  iMISS:    8373842  dACCESS:          0  dHIT:          0  dMISS:          0  itACCESS:          0  itHIT:          0  itMISS:          0  dtACCESS:          0  dtHIT:          0  dtMISS:          0
cpu0_L1I LOAD         ACCESS:   10275113  HIT:    7980841  MISS:    2294272  iACCESS:   10275113  iHIT:    7980841  iMISS:    2294272  dACCESS:          0  dHIT:          0  dMISS:          0  itACCESS:          0  itHIT:          0  itMISS:          0  dtACCESS:          0  dtHIT:          0  dtMISS:          0
cpu0_L1I RFO          ACCESS:          0  HIT:          0  MISS:          0  iACCESS:          0  iHIT:          0  iMISS:          0  dACCESS:          0  dHIT:          0  dMISS:          0  itACCESS:          0  itHIT:          0  itMISS:          0  dtACCESS:          0  dtHIT:          0  dtMISS:          0
cpu0_L1I PREFETCH     ACCESS:   25436309  HIT:   19356739  MISS:    6079570  iACCESS:   25436309  iHIT:   19356739  iMISS:    6079570  dACCESS:          0  dHIT:          0  dMISS:          0  itACCESS:          0  itHIT:          0  itMISS:          0  dtACCESS:          0  dtHIT:          0  dtMISS:          0
cpu0_L1I WRITE        ACCESS:          0  HIT:          0  MISS:          0  iACCESS:          0  iHIT:          0  iMISS:          0  dACCESS:          0  dHIT:          0  dMISS:          0  itACCESS:          0  itHIT:          0  itMISS:          0  dtACCESS:          0  dtHIT:          0  dtMISS:          0
cpu0_L1I TRANSLATION  ACCESS:          0  HIT:          0  MISS:          0  iACCESS:          0  iHIT:          0  iMISS:          0  dACCESS:          0  dHIT:          0  dMISS:          0  itACCESS:          0  itHIT:          0  itMISS:          0  dtACCESS:          0  dtHIT:          0  dtMISS:          0
cpu0_L1I PREFETCH  REQUESTED:   27592781  ISSUED:   27590253  CROSSED:          0  USEFUL:    1967263  USELESS:     649989
cpu0_L1I AVERAGE iMISS LATENCY: 18.9393 cycles
cpu0_L1I AVERAGE dMISS LATENCY: 0 cycles
cpu0_L1I AVERAGE itMISS LATENCY: 0 cycles
cpu0_L1I AVERAGE dtMISS LATENCY: 0 cycles
cpu0_L1I PAGE CROSSINGS (TLB HIT):         0 
cpu0_L1I PAGE CROSSINGS (TLB MISS):         0 
cpu0_L1I AVERAGE MISS LATENCY: 18.9393 cycles
cpu0_ITLB TOTAL       ACCESS:   29843616  HIT:   27916946  MISS:    1926670  iACCESS:   29843616  iHIT:   27916946  iMISS:    1926670  dACCESS:          0  dHIT:          0  dMISS:          0  itACCESS:          0  itHIT:          0  itMISS:          0  dtACCESS:          0  dtHIT:          0  dtMISS:          0
cpu0_ITLB LOAD         ACCESS:   29843616  HIT:   27916946  MISS:    1926670  iACCESS:   29843616  iHIT:   27916946  iMISS:    1926670  dACCESS:          0  dHIT:          0  dMISS:          0  itACCESS:          0  itHIT:          0  itMISS:          0  dtACCESS:          0  dtHIT:          0  dtMISS:          0
cpu0_ITLB RFO          ACCESS:          0  HIT:          0  MISS:          0  iACCESS:          0  iHIT:          0  iMISS:          0  dACCESS:          0  dHIT:          0  dMISS:          0  itACCESS:          0  itHIT:          0  itMISS:          0  dtACCESS:          0  dtHIT:          0  dtMISS:          0
cpu0_ITLB PREFETCH     ACCESS:          0  HIT:          0  MISS:          0  iACCESS:          0  iHIT:          0  iMISS:          0  dACCESS:          0  dHIT:          0  dMISS:          0  itACCESS:          0  itHIT:          0  itMISS:          0  dtACCESS:          0  dtHIT:          0  dtMISS:          0
cpu0_ITLB WRITE        ACCESS:          0  HIT:          0  MISS:          0  iACCESS:          0  iHIT:          0  iMISS:          0  dACCESS:          0  dHIT:          0  dMISS:          0  itACCESS:          0  itHIT:          0  itMISS:          0  dtACCESS:          0  dtHIT:          0  dtMISS:          0
cpu0_ITLB TRANSLATION  ACCESS:          0  HIT:          0  MISS:          0  iACCESS:          0  iHIT:          0  iMISS:          0  dACCESS:          0  dHIT:          0  dMISS:          0  itACCESS:          0  itHIT:          0  itMISS:          0  dtACCESS:          0  dtHIT:          0  dtMISS:          0
cpu0_ITLB PREFETCH  REQUESTED:          0  ISSUED:          0  CROSSED:          0  USEFUL:     329035  USELESS:      60935
cpu0_ITLB AVERAGE iMISS LATENCY: 3.51696 cycles
cpu0_ITLB AVERAGE dMISS LATENCY: 0 cycles
cpu0_ITLB AVERAGE itMISS LATENCY: 0 cycles
cpu0_ITLB AVERAGE dtMISS LATENCY: 0 cycles
cpu0_ITLB PAGE CROSSINGS (TLB HIT):         0 
cpu0_ITLB PAGE CROSSINGS (TLB MISS):         0 
cpu0_ITLB AVERAGE MISS LATENCY: 3.51696 cycles
cpu0_DTLB TOTAL       ACCESS:   28016984  HIT:   26048614  MISS:    1968370  iACCESS:          0  iHIT:          0  iMISS:          0  dACCESS:   28016984  dHIT:   26048614  dMISS:    1968370  itACCESS:          0  itHIT:          0  itMISS:          0  dtACCESS:          0  dtHIT:          0  dtMISS:          0
cpu0_DTLB LOAD         ACCESS:   28016984  HIT:   26048614  MISS:    1968370  iACCESS:          0  iHIT:          0  iMISS:          0  dACCESS:   28016984  dHIT:   26048614  dMISS:    1968370  itACCESS:          0  itHIT:          0  itMISS:          0  dtACCESS:          0  dtHIT:          0  dtMISS:          0
cpu0_DTLB RFO          ACCESS:          0  HIT:          0  MISS:          0  iACCESS:          0  iHIT:          0  iMISS:          0  dACCESS:          0  dHIT:          0  dMISS:          0  itACCESS:          0  itHIT:          0  itMISS:          0  dtACCESS:          0  dtHIT:          0  dtMISS:          0
cpu0_DTLB PREFETCH     ACCESS:          0  HIT:          0  MISS:          0  iACCESS:          0  iHIT:          0  iMISS:          0  dACCESS:          0  dHIT:          0  dMISS:          0  itACCESS:          0  itHIT:          0  itMISS:          0  dtACCESS:          0  dtHIT:          0  dtMISS:          0
cpu0_DTLB WRITE        ACCESS:          0  HIT:          0  MISS:          0  iACCESS:          0  iHIT:          0  iMISS:          0  dACCESS:          0  dHIT:          0  dMISS:          0  itACCESS:          0  itHIT:          0  itMISS:          0  dtACCESS:          0  dtHIT:          0  dtMISS:          0
cpu0_DTLB TRANSLATION  ACCESS:          0  HIT:          0  MISS:          0  iACCESS:          0  iHIT:          0  iMISS:          0  dACCESS:          0  dHIT:          0  dMISS:          0  itACCESS:          0  itHIT:          0  itMISS:          0  dtACCESS:          0  dtHIT:          0  dtMISS:          0
cpu0_DTLB PREFETCH  REQUESTED:          0  ISSUED:          0  CROSSED:          0  USEFUL:          0  USELESS:          0
cpu0_DTLB AVERAGE iMISS LATENCY: 0 cycles
cpu0_DTLB AVERAGE dMISS LATENCY: 9.6125 cycles
cpu0_DTLB AVERAGE itMISS LATENCY: 0 cycles
cpu0_DTLB AVERAGE dtMISS LATENCY: 0 cycles
cpu0_DTLB PAGE CROSSINGS (TLB HIT):         0 
cpu0_DTLB PAGE CROSSINGS (TLB MISS):         0 
cpu0_DTLB AVERAGE MISS LATENCY: 9.6125 cycles
cpu0_STLB TOTAL       ACCESS:    1592015  HIT:    1361327  MISS:     230688  iACCESS:     389979  iHIT:     302899  iMISS:      87080  dACCESS:    1202036  dHIT:    1058428  dMISS:     143608  itACCESS:          0  itHIT:          0  itMISS:          0  dtACCESS:          0  dtHIT:          0  dtMISS:          0
cpu0_STLB LOAD         ACCESS:    1592015  HIT:    1361327  MISS:     230688  iACCESS:     389979  iHIT:     302899  iMISS:      87080  dACCESS:    1202036  dHIT:    1058428  dMISS:     143608  itACCESS:          0  itHIT:          0  itMISS:          0  dtACCESS:          0  dtHIT:          0  dtMISS:          0
cpu0_STLB RFO          ACCESS:          0  HIT:          0  MISS:          0  iACCESS:          0  iHIT:          0  iMISS:          0  dACCESS:          0  dHIT:          0  dMISS:          0  itACCESS:          0  itHIT:          0  itMISS:          0  dtACCESS:          0  dtHIT:          0  dtMISS:          0
cpu0_STLB PREFETCH     ACCESS:          0  HIT:          0  MISS:          0  iACCESS:          0  iHIT:          0  iMISS:          0  dACCESS:          0  dHIT:          0  dMISS:          0  itACCESS:          0  itHIT:          0  itMISS:          0  dtACCESS:          0  dtHIT:          0  dtMISS:          0
cpu0_STLB WRITE        ACCESS:          0  HIT:          0  MISS:          0  iACCESS:          0  iHIT:          0  iMISS:          0  dACCESS:          0  dHIT:          0  dMISS:          0  itACCESS:          0  itHIT:          0  itMISS:          0  dtACCESS:          0  dtHIT:          0  dtMISS:          0
cpu0_STLB TRANSLATION  ACCESS:          0  HIT:          0  MISS:          0  iACCESS:          0  iHIT:          0  iMISS:          0  dACCESS:          0  dHIT:          0  dMISS:          0  itACCESS:          0  itHIT:          0  itMISS:          0  dtACCESS:          0  dtHIT:          0  dtMISS:          0
cpu0_STLB PREFETCH  REQUESTED:          0  ISSUED:          0  CROSSED:          0  USEFUL:          0  USELESS:          0
cpu0_STLB AVERAGE iMISS LATENCY: 15.8913 cycles
cpu0_STLB AVERAGE dMISS LATENCY: 40.3817 cycles
cpu0_STLB AVERAGE itMISS LATENCY: 0 cycles
cpu0_STLB AVERAGE dtMISS LATENCY: 0 cycles
cpu0_STLB PAGE CROSSINGS (TLB HIT):         0 
cpu0_STLB PAGE CROSSINGS (TLB MISS):         0 
cpu0_STLB AVERAGE MISS LATENCY: 56.2729 cycles
cpu0_L1D TOTAL       ACCESS:   42814775  HIT:   38487695  MISS:    4327080  iACCESS:          0  iHIT:          0  iMISS:          0  dACCESS:   42526753  dHIT:   38460556  dMISS:    4066197  itACCESS:      93399  itHIT:      14921  itMISS:      78478  dtACCESS:     194623  dtHIT:      12218  dtMISS:     182405
cpu0_L1D LOAD         ACCESS:   19470159  HIT:   17627338  MISS:    1842821  iACCESS:          0  iHIT:          0  iMISS:          0  dACCESS:   19470159  dHIT:   17627338  dMISS:    1842821  itACCESS:          0  itHIT:          0  itMISS:          0  dtACCESS:          0  dtHIT:          0  dtMISS:          0
cpu0_L1D RFO          ACCESS:          0  HIT:          0  MISS:          0  iACCESS:          0  iHIT:          0  iMISS:          0  dACCESS:          0  dHIT:          0  dMISS:          0  itACCESS:          0  itHIT:          0  itMISS:          0  dtACCESS:          0  dtHIT:          0  dtMISS:          0
cpu0_L1D PREFETCH     ACCESS:   12886423  HIT:   11153419  MISS:    1733004  iACCESS:          0  iHIT:          0  iMISS:          0  dACCESS:   12886423  dHIT:   11153419  dMISS:    1733004  itACCESS:          0  itHIT:          0  itMISS:          0  dtACCESS:          0  dtHIT:          0  dtMISS:          0
cpu0_L1D WRITE        ACCESS:   10170171  HIT:    9679799  MISS:     490372  iACCESS:          0  iHIT:          0  iMISS:          0  dACCESS:   10170171  dHIT:    9679799  dMISS:     490372  itACCESS:          0  itHIT:          0  itMISS:          0  dtACCESS:          0  dtHIT:          0  dtMISS:          0
cpu0_L1D TRANSLATION  ACCESS:     288022  HIT:      27139  MISS:     260883  iACCESS:          0  iHIT:          0  iMISS:          0  dACCESS:          0  dHIT:          0  dMISS:          0  itACCESS:      93399  itHIT:      14921  itMISS:      78478  dtACCESS:     194623  dtHIT:      12218  dtMISS:     182405
cpu0_L1D PREFETCH  REQUESTED:   19470159  ISSUED:   17412021  CROSSED:          0  USEFUL:     313398  USELESS:     702687
cpu0_L1D AVERAGE iMISS LATENCY: 0 cycles
cpu0_L1D AVERAGE dMISS LATENCY: 40.0112 cycles
cpu0_L1D AVERAGE itMISS LATENCY: 0.675634 cycles
cpu0_L1D AVERAGE dtMISS LATENCY: 1.72088 cycles
cpu0_L1D PAGE CROSSINGS (TLB HIT):         0 
cpu0_L1D PAGE CROSSINGS (TLB MISS):         0 
cpu0_L1D AVERAGE MISS LATENCY: 42.4077 cycles
cpu0_L2C TOTAL       ACCESS:    7228979  HIT:    1272718  MISS:    5956261  iACCESS:    3338458  iHIT:     687874  iMISS:    2650584  dACCESS:    3632563  dHIT:     387950  dMISS:    3244613  itACCESS:      78478  itHIT:      60630  itMISS:      17848  dtACCESS:     179480  dtHIT:     136264  dtMISS:      43216
cpu0_L2C LOAD         ACCESS:    1702013  HIT:     132338  MISS:    1569675  iACCESS:     757819  iHIT:      93892  iMISS:     663927  dACCESS:     944194  dHIT:      38446  dMISS:     905748  itACCESS:          0  itHIT:          0  itMISS:          0  dtACCESS:          0  dtHIT:          0  dtMISS:          0
cpu0_L2C RFO          ACCESS:     164633  HIT:       8128  MISS:     156505  iACCESS:          0  iHIT:          0  iMISS:          0  dACCESS:     164633  dHIT:       8128  dMISS:     156505  itACCESS:          0  itHIT:          0  itMISS:          0  dtACCESS:          0  dtHIT:          0  dtMISS:          0
cpu0_L2C PREFETCH     ACCESS:    4829245  HIT:     878669  MISS:    3950576  iACCESS:    2580639  iHIT:     593982  iMISS:    1986657  dACCESS:    2248606  dHIT:     284687  dMISS:    1963919  itACCESS:          0  itHIT:          0  itMISS:          0  dtACCESS:          0  dtHIT:          0  dtMISS:          0
cpu0_L2C WRITE        ACCESS:     275130  HIT:      56689  MISS:     218441  iACCESS:          0  iHIT:          0  iMISS:          0  dACCESS:     275130  dHIT:      56689  dMISS:     218441  itACCESS:          0  itHIT:          0  itMISS:          0  dtACCESS:          0  dtHIT:          0  dtMISS:          0
cpu0_L2C TRANSLATION  ACCESS:     257958  HIT:     196894  MISS:      61064  iACCESS:          0  iHIT:          0  iMISS:          0  dACCESS:          0  dHIT:          0  dMISS:          0  itACCESS:      78478  itHIT:      60630  itMISS:      17848  dtACCESS:     179480  dtHIT:     136264  dtMISS:      43216
cpu0_L2C PREFETCH  REQUESTED:    1489509  ISSUED:    1489509  CROSSED:          0  USEFUL:     421367  USELESS:     443886
cpu0_L2C AVERAGE iMISS LATENCY: 21.5308 cycles
cpu0_L2C AVERAGE dMISS LATENCY: 36.4904 cycles
cpu0_L2C AVERAGE itMISS LATENCY: 0.368901 cycles
cpu0_L2C AVERAGE dtMISS LATENCY: 0.970809 cycles
cpu0_L2C PAGE CROSSINGS (TLB HIT):         0 
cpu0_L2C PAGE CROSSINGS (TLB MISS):         0 
cpu0_L2C AVERAGE MISS LATENCY: 59.3608 cycles
LLC TOTAL       ACCESS:    5806348  HIT:    4269542  MISS:    1536806  iACCESS:    2572143  iHIT:    2036346  iMISS:     535797  dACCESS:    3173141  dHIT:    2208939  dMISS:     964202  itACCESS:      17848  itHIT:       7172  itMISS:      10676  dtACCESS:      43216  dtHIT:      17085  dtMISS:      26131
LLC LOAD         ACCESS:    1563442  HIT:    1209725  MISS:     353717  iACCESS:     662174  iHIT:     553116  iMISS:     109058  dACCESS:     901268  dHIT:     656609  dMISS:     244659  itACCESS:          0  itHIT:          0  itMISS:          0  dtACCESS:          0  dtHIT:          0  dtMISS:          0
LLC RFO          ACCESS:     156490  HIT:      91490  MISS:      65000  iACCESS:          0  iHIT:          0  iMISS:          0  dACCESS:     156490  dHIT:      91490  dMISS:      65000  itACCESS:          0  itHIT:          0  itMISS:          0  dtACCESS:          0  dtHIT:          0  dtMISS:          0
LLC PREFETCH     ACCESS:    3775370  HIT:    2694098  MISS:    1081272  iACCESS:    1909969  iHIT:    1483230  iMISS:     426739  dACCESS:    1865401  dHIT:    1210868  dMISS:     654533  itACCESS:          0  itHIT:          0  itMISS:          0  dtACCESS:          0  dtHIT:          0  dtMISS:          0
LLC WRITE        ACCESS:     249982  HIT:     249972  MISS:         10  iACCESS:          0  iHIT:          0  iMISS:          0  dACCESS:     249982  dHIT:     249972  dMISS:         10  itACCESS:          0  itHIT:          0  itMISS:          0  dtACCESS:          0  dtHIT:          0  dtMISS:          0
LLC TRANSLATION  ACCESS:      61064  HIT:      24257  MISS:      36807  iACCESS:          0  iHIT:          0  iMISS:          0  dACCESS:          0  dHIT:          0  dMISS:          0  itACCESS:      17848  itHIT:       7172  itMISS:      10676  dtACCESS:      43216  dtHIT:      17085  dtMISS:      26131
LLC PREFETCH  REQUESTED:          0  ISSUED:          0  CROSSED:          0  USEFUL:          0  USELESS:          0
LLC AVERAGE iMISS LATENCY: 51.0497 cycles
LLC AVERAGE dMISS LATENCY: 105.614 cycles
LLC AVERAGE itMISS LATENCY: 1.20266 cycles
LLC AVERAGE dtMISS LATENCY: 3.21255 cycles
LLC PAGE CROSSINGS (TLB HIT):         0 
LLC PAGE CROSSINGS (TLB MISS):         0 
LLC AVERAGE MISS LATENCY: 161.079 cycles

PageTableWalker TOTAL       ACCESS:     118563  
PageTableWalker AVERAGE LATENCY: 3.74727 cycles
PageTableWalker TOTAL LATENCY: 444287 cycles

DRAM Statistics
Channel 0
 RQ ROW_BUFFER_HIT:     447386
  ROW_BUFFER_MISS:    1076623
 AVG DBUS CONGESTED CYCLE:    3.64296
 WQ ROW_BUFFER_HIT:      41225
  ROW_BUFFER_MISS:      40476  FULL:          0

