last_page:0x200000000000000
VMEM_RES_CAP:0x100000
PAGE_SIZE:4096
LOG2_PAGE_SIZE:12
LOG2_PAGE_TABLE_SIZE:9
page_table_levels:5
WARNING: physical memory size is smaller than virtual memory size
FDiP enabled with aggresivity 16

*** ChampSim Multicore Out-of-Order Simulator ***

Warmup Instructions: 50000000
Simulation Instructions: 100000000
Number of CPUs: 1
Small page size: 4096
Large page size: 2097152

CPU 0 Bimodal branch predictor
Basic BTB sets: 1024 ways: 8 indirect buffer size: 4096 RAS size: 64
Instruction page size distrubution: 0
Loading instruction page size distribution from /home/bsc/bsc018186/scratch/itp_asplos25_AE/dump/srv222_ap.pdst
Data page size distrubution: 0
Loading data page size distribution from /home/bsc/bsc018186/scratch/itp_asplos25_AE/dump/srv222_ap.pdst
cpu0_L2C IP-based stride prefetcher
cpu0_L1D next line prefetcher
CHiRPing...
cpu0_L1I next line prefetcher
Off-chip DRAM Size: 4 GiB Channels: 1 Width: 64-bit Data Rate: 3200 MT/s
Heartbeat CPU 0 instructions: 10000003 cycles: 2500298 heartbeat IPC: 3.99953 cumulative IPC: 3.99953 (Simulation time: 0 hr 0 min 38 sec) 
Heartbeat CPU 0 instructions: 20000003 cycles: 5000312 heartbeat IPC: 3.99998 cumulative IPC: 3.99976 (Simulation time: 0 hr 1 min 18 sec) 
Heartbeat CPU 0 instructions: 30000000 cycles: 7500507 heartbeat IPC: 3.99969 cumulative IPC: 3.99973 (Simulation time: 0 hr 1 min 58 sec) 
Heartbeat CPU 0 instructions: 40000001 cycles: 10000543 heartbeat IPC: 3.99995 cumulative IPC: 3.99979 (Simulation time: 0 hr 2 min 39 sec) 
Heartbeat CPU 0 instructions: 50000001 cycles: 12500560 heartbeat IPC: 3.99998 cumulative IPC: 3.99983 (Simulation time: 0 hr 3 min 20 sec) 
Warmup finished CPU 0 instructions: 50000001 cycles: 12500561 cumulative IPC: 3.99983 (Simulation time: 0 hr 3 min 20 sec) 

Warmup complete CPU 0 instructions: 50000001 cycles: 12500561 (Simulation time: 0 hr 3 min 20 sec) 

Heartbeat CPU 0 instructions: 60000000 cycles: 33438185 heartbeat IPC: 0.47761 cumulative IPC: 0.47761 (Simulation time: 0 hr 4 min 34 sec) 
Heartbeat CPU 0 instructions: 70000004 cycles: 54439096 heartbeat IPC: 0.476171 cumulative IPC: 0.476889 (Simulation time: 0 hr 5 min 47 sec) 
Heartbeat CPU 0 instructions: 80000000 cycles: 74353713 heartbeat IPC: 0.502144 cumulative IPC: 0.48502 (Simulation time: 0 hr 7 min 1 sec) 
Heartbeat CPU 0 instructions: 90000000 cycles: 95808620 heartbeat IPC: 0.466094 cumulative IPC: 0.480146 (Simulation time: 0 hr 8 min 17 sec) 
Heartbeat CPU 0 instructions: 100000000 cycles: 116481104 heartbeat IPC: 0.483735 cumulative IPC: 0.48086 (Simulation time: 0 hr 9 min 30 sec) 
*** Reached end of trace: /gpfs/projects/bsc18/MN4/bsc18/romol/ChampSim/traces/qualcomm_srv/srv222_ap.champsimtrace.xz
Heartbeat CPU 0 instructions: 110000000 cycles: 136559796 heartbeat IPC: 0.498041 cumulative IPC: 0.48364 (Simulation time: 0 hr 10 min 43 sec) 
Heartbeat CPU 0 instructions: 120000002 cycles: 157299505 heartbeat IPC: 0.482167 cumulative IPC: 0.483429 (Simulation time: 0 hr 11 min 57 sec) 
Heartbeat CPU 0 instructions: 130000001 cycles: 178174775 heartbeat IPC: 0.479036 cumulative IPC: 0.482876 (Simulation time: 0 hr 13 min 11 sec) 
Heartbeat CPU 0 instructions: 140000001 cycles: 198153574 heartbeat IPC: 0.500531 cumulative IPC: 0.484776 (Simulation time: 0 hr 14 min 24 sec) 
Heartbeat CPU 0 instructions: 150000000 cycles: 218669683 heartbeat IPC: 0.487422 cumulative IPC: 0.485039 (Simulation time: 0 hr 15 min 38 sec) 
Simulation finished CPU 0 instructions: 100000003 cycles: 206169124 cumulative IPC: 0.485039 (Simulation time: 0 hr 15 min 38 sec) 

Simulation complete CPU 0 instructions: 100000003 cycles: 206169124 (Simulation time: 0 hr 15 min 38 sec) 


ChampSim completed all CPUs

Saving instructions large page distribution to /home/bsc/bsc018186/scratch/itp_asplos25_AE/dump/srv222_ap.pdst...
Saving data large page distribution to /home/bsc/bsc018186/scratch/itp_asplos25_AE/dump/srv222_ap.pdst...
=== Simulation ===
CPU 0 runs /gpfs/projects/bsc18/MN4/bsc18/romol/ChampSim/traces/qualcomm_srv/srv222_ap.champsimtrace.xz

Region of Interest Statistics

CPU 0 cumulative IPC: 0.485039 instructions: 100000003 cycles: 206169124
CPU 0 Branch Prediction Accuracy: 80.1337% MPKI: 35.8772 Average ROB Occupancy at Mispredict: 10.5548
Branch type MPKI
BRANCH_DIRECT_JUMP: 1.34829
BRANCH_INDIRECT: 17.9544
BRANCH_CONDITIONAL: 11.6356
BRANCH_DIRECT_CALL: 2.54634
BRANCH_INDIRECT_CALL: 0.66241
BRANCH_RETURN: 1.73014

Instructions large pages: 0
Instructions small pages: 1201
Large page distribution for instructions: 0%

Data large pages: 0
Data small pages: 5008
Large page distribution for data: 0%

cpu0_L1I TOTAL       ACCESS:   36055254  HIT:   28097294  MISS:    7957960  iACCESS:   36055254  iHIT:   28097294  iMISS:    7957960  dACCESS:          0  dHIT:          0  dMISS:          0  itACCESS:          0  itHIT:          0  itMISS:          0  dtACCESS:          0  dtHIT:          0  dtMISS:          0
cpu0_L1I LOAD         ACCESS:   10551968  HIT:    8366585  MISS:    2185383  iACCESS:   10551968  iHIT:    8366585  iMISS:    2185383  dACCESS:          0  dHIT:          0  dMISS:          0  itACCESS:          0  itHIT:          0  itMISS:          0  dtACCESS:          0  dtHIT:          0  dtMISS:          0
cpu0_L1I RFO          ACCESS:          0  HIT:          0  MISS:          0  iACCESS:          0  iHIT:          0  iMISS:          0  dACCESS:          0  dHIT:          0  dMISS:          0  itACCESS:          0  itHIT:          0  itMISS:          0  dtACCESS:          0  dtHIT:          0  dtMISS:          0
cpu0_L1I PREFETCH     ACCESS:   25503286  HIT:   19730709  MISS:    5772577  iACCESS:   25503286  iHIT:   19730709  iMISS:    5772577  dACCESS:          0  dHIT:          0  dMISS:          0  itACCESS:          0  itHIT:          0  itMISS:          0  dtACCESS:          0  dtHIT:          0  dtMISS:          0
cpu0_L1I WRITE        ACCESS:          0  HIT:          0  MISS:          0  iACCESS:          0  iHIT:          0  iMISS:          0  dACCESS:          0  dHIT:          0  dMISS:          0  itACCESS:          0  itHIT:          0  itMISS:          0  dtACCESS:          0  dtHIT:          0  dtMISS:          0
cpu0_L1I TRANSLATION  ACCESS:          0  HIT:          0  MISS:          0  iACCESS:          0  iHIT:          0  iMISS:          0  dACCESS:          0  dHIT:          0  dMISS:          0  itACCESS:          0  itHIT:          0  itMISS:          0  dtACCESS:          0  dtHIT:          0  dtMISS:          0
cpu0_L1I PREFETCH  REQUESTED:   28066414  ISSUED:   28066414  CROSSED:          0  USEFUL:    2008043  USELESS:     652258
cpu0_L1I AVERAGE iMISS LATENCY: 19.2517 cycles
cpu0_L1I AVERAGE dMISS LATENCY: 0 cycles
cpu0_L1I AVERAGE itMISS LATENCY: 0 cycles
cpu0_L1I AVERAGE dtMISS LATENCY: 0 cycles
cpu0_L1I PAGE CROSSINGS (TLB HIT):         0 
cpu0_L1I PAGE CROSSINGS (TLB MISS):         0 
cpu0_L1I AVERAGE MISS LATENCY: 19.2517 cycles
cpu0_ITLB TOTAL       ACCESS:   30274095  HIT:   28327977  MISS:    1946118  iACCESS:   30274095  iHIT:   28327977  iMISS:    1946118  dACCESS:          0  dHIT:          0  dMISS:          0  itACCESS:          0  itHIT:          0  itMISS:          0  dtACCESS:          0  dtHIT:          0  dtMISS:          0
cpu0_ITLB LOAD         ACCESS:   30274095  HIT:   28327977  MISS:    1946118  iACCESS:   30274095  iHIT:   28327977  iMISS:    1946118  dACCESS:          0  dHIT:          0  dMISS:          0  itACCESS:          0  itHIT:          0  itMISS:          0  dtACCESS:          0  dtHIT:          0  dtMISS:          0
cpu0_ITLB RFO          ACCESS:          0  HIT:          0  MISS:          0  iACCESS:          0  iHIT:          0  iMISS:          0  dACCESS:          0  dHIT:          0  dMISS:          0  itACCESS:          0  itHIT:          0  itMISS:          0  dtACCESS:          0  dtHIT:          0  dtMISS:          0
cpu0_ITLB PREFETCH     ACCESS:          0  HIT:          0  MISS:          0  iACCESS:          0  iHIT:          0  iMISS:          0  dACCESS:          0  dHIT:          0  dMISS:          0  itACCESS:          0  itHIT:          0  itMISS:          0  dtACCESS:          0  dtHIT:          0  dtMISS:          0
cpu0_ITLB WRITE        ACCESS:          0  HIT:          0  MISS:          0  iACCESS:          0  iHIT:          0  iMISS:          0  dACCESS:          0  dHIT:          0  dMISS:          0  itACCESS:          0  itHIT:          0  itMISS:          0  dtACCESS:          0  dtHIT:          0  dtMISS:          0
cpu0_ITLB TRANSLATION  ACCESS:          0  HIT:          0  MISS:          0  iACCESS:          0  iHIT:          0  iMISS:          0  dACCESS:          0  dHIT:          0  dMISS:          0  itACCESS:          0  itHIT:          0  itMISS:          0  dtACCESS:          0  dtHIT:          0  dtMISS:          0
cpu0_ITLB PREFETCH  REQUESTED:          0  ISSUED:          0  CROSSED:          0  USEFUL:     327496  USELESS:      66222
cpu0_ITLB AVERAGE iMISS LATENCY: 7.82804 cycles
cpu0_ITLB AVERAGE dMISS LATENCY: 0 cycles
cpu0_ITLB AVERAGE itMISS LATENCY: 0 cycles
cpu0_ITLB AVERAGE dtMISS LATENCY: 0 cycles
cpu0_ITLB PAGE CROSSINGS (TLB HIT):         0 
cpu0_ITLB PAGE CROSSINGS (TLB MISS):         0 
cpu0_ITLB AVERAGE MISS LATENCY: 7.82804 cycles
cpu0_DTLB TOTAL       ACCESS:   27912613  HIT:   25895193  MISS:    2017420  iACCESS:          0  iHIT:          0  iMISS:          0  dACCESS:   27912613  dHIT:   25895193  dMISS:    2017420  itACCESS:          0  itHIT:          0  itMISS:          0  dtACCESS:          0  dtHIT:          0  dtMISS:          0
cpu0_DTLB LOAD         ACCESS:   27912613  HIT:   25895193  MISS:    2017420  iACCESS:          0  iHIT:          0  iMISS:          0  dACCESS:   27912613  dHIT:   25895193  dMISS:    2017420  itACCESS:          0  itHIT:          0  itMISS:          0  dtACCESS:          0  dtHIT:          0  dtMISS:          0
cpu0_DTLB RFO          ACCESS:          0  HIT:          0  MISS:          0  iACCESS:          0  iHIT:          0  iMISS:          0  dACCESS:          0  dHIT:          0  dMISS:          0  itACCESS:          0  itHIT:          0  itMISS:          0  dtACCESS:          0  dtHIT:          0  dtMISS:          0
cpu0_DTLB PREFETCH     ACCESS:          0  HIT:          0  MISS:          0  iACCESS:          0  iHIT:          0  iMISS:          0  dACCESS:          0  dHIT:          0  dMISS:          0  itACCESS:          0  itHIT:          0  itMISS:          0  dtACCESS:          0  dtHIT:          0  dtMISS:          0
cpu0_DTLB WRITE        ACCESS:          0  HIT:          0  MISS:          0  iACCESS:          0  iHIT:          0  iMISS:          0  dACCESS:          0  dHIT:          0  dMISS:          0  itACCESS:          0  itHIT:          0  itMISS:          0  dtACCESS:          0  dtHIT:          0  dtMISS:          0
cpu0_DTLB TRANSLATION  ACCESS:          0  HIT:          0  MISS:          0  iACCESS:          0  iHIT:          0  iMISS:          0  dACCESS:          0  dHIT:          0  dMISS:          0  itACCESS:          0  itHIT:          0  itMISS:          0  dtACCESS:          0  dtHIT:          0  dtMISS:          0
cpu0_DTLB PREFETCH  REQUESTED:          0  ISSUED:          0  CROSSED:          0  USEFUL:          0  USELESS:          0
cpu0_DTLB AVERAGE iMISS LATENCY: 0 cycles
cpu0_DTLB AVERAGE dMISS LATENCY: 19.3954 cycles
cpu0_DTLB AVERAGE itMISS LATENCY: 0 cycles
cpu0_DTLB AVERAGE dtMISS LATENCY: 0 cycles
cpu0_DTLB PAGE CROSSINGS (TLB HIT):         0 
cpu0_DTLB PAGE CROSSINGS (TLB MISS):         0 
cpu0_DTLB AVERAGE MISS LATENCY: 19.3954 cycles
cpu0_STLB TOTAL       ACCESS:    1610481  HIT:    1383054  MISS:     227427  iACCESS:     393718  iHIT:     306371  iMISS:      87347  dACCESS:    1216763  dHIT:    1076683  dMISS:     140080  itACCESS:          0  itHIT:          0  itMISS:          0  dtACCESS:          0  dtHIT:          0  dtMISS:          0
cpu0_STLB LOAD         ACCESS:    1610481  HIT:    1383054  MISS:     227427  iACCESS:     393718  iHIT:     306371  iMISS:      87347  dACCESS:    1216763  dHIT:    1076683  dMISS:     140080  itACCESS:          0  itHIT:          0  itMISS:          0  dtACCESS:          0  dtHIT:          0  dtMISS:          0
cpu0_STLB RFO          ACCESS:          0  HIT:          0  MISS:          0  iACCESS:          0  iHIT:          0  iMISS:          0  dACCESS:          0  dHIT:          0  dMISS:          0  itACCESS:          0  itHIT:          0  itMISS:          0  dtACCESS:          0  dtHIT:          0  dtMISS:          0
cpu0_STLB PREFETCH     ACCESS:          0  HIT:          0  MISS:          0  iACCESS:          0  iHIT:          0  iMISS:          0  dACCESS:          0  dHIT:          0  dMISS:          0  itACCESS:          0  itHIT:          0  itMISS:          0  dtACCESS:          0  dtHIT:          0  dtMISS:          0
cpu0_STLB WRITE        ACCESS:          0  HIT:          0  MISS:          0  iACCESS:          0  iHIT:          0  iMISS:          0  dACCESS:          0  dHIT:          0  dMISS:          0  itACCESS:          0  itHIT:          0  itMISS:          0  dtACCESS:          0  dtHIT:          0  dtMISS:          0
cpu0_STLB TRANSLATION  ACCESS:          0  HIT:          0  MISS:          0  iACCESS:          0  iHIT:          0  iMISS:          0  dACCESS:          0  dHIT:          0  dMISS:          0  itACCESS:          0  itHIT:          0  itMISS:          0  dtACCESS:          0  dtHIT:          0  dtMISS:          0
cpu0_STLB PREFETCH  REQUESTED:          0  ISSUED:          0  CROSSED:          0  USEFUL:          0  USELESS:          0
cpu0_STLB AVERAGE iMISS LATENCY: 53.1805 cycles
cpu0_STLB AVERAGE dMISS LATENCY: 129.268 cycles
cpu0_STLB AVERAGE itMISS LATENCY: 0 cycles
cpu0_STLB AVERAGE dtMISS LATENCY: 0 cycles
cpu0_STLB PAGE CROSSINGS (TLB HIT):         0 
cpu0_STLB PAGE CROSSINGS (TLB MISS):         0 
cpu0_STLB AVERAGE MISS LATENCY: 182.448 cycles
cpu0_L1D TOTAL       ACCESS:   42664292  HIT:   38507821  MISS:    4156471  iACCESS:          0  iHIT:          0  iMISS:          0  dACCESS:   42375188  dHIT:   38484122  dMISS:    3891066  itACCESS:      93189  itHIT:      12846  itMISS:      80343  dtACCESS:     195915  dtHIT:      10853  dtMISS:     185062
cpu0_L1D LOAD         ACCESS:   19378672  HIT:   17604327  MISS:    1774345  iACCESS:          0  iHIT:          0  iMISS:          0  dACCESS:   19378672  dHIT:   17604327  dMISS:    1774345  itACCESS:          0  itHIT:          0  itMISS:          0  dtACCESS:          0  dtHIT:          0  dtMISS:          0
cpu0_L1D RFO          ACCESS:          0  HIT:          0  MISS:          0  iACCESS:          0  iHIT:          0  iMISS:          0  dACCESS:          0  dHIT:          0  dMISS:          0  itACCESS:          0  itHIT:          0  itMISS:          0  dtACCESS:          0  dtHIT:          0  dtMISS:          0
cpu0_L1D PREFETCH     ACCESS:   12880424  HIT:   11203848  MISS:    1676576  iACCESS:          0  iHIT:          0  iMISS:          0  dACCESS:   12880424  dHIT:   11203848  dMISS:    1676576  itACCESS:          0  itHIT:          0  itMISS:          0  dtACCESS:          0  dtHIT:          0  dtMISS:          0
cpu0_L1D WRITE        ACCESS:   10116092  HIT:    9675947  MISS:     440145  iACCESS:          0  iHIT:          0  iMISS:          0  dACCESS:   10116092  dHIT:    9675947  dMISS:     440145  itACCESS:          0  itHIT:          0  itMISS:          0  dtACCESS:          0  dtHIT:          0  dtMISS:          0
cpu0_L1D TRANSLATION  ACCESS:     289104  HIT:      23699  MISS:     265405  iACCESS:          0  iHIT:          0  iMISS:          0  dACCESS:          0  dHIT:          0  dMISS:          0  itACCESS:      93189  itHIT:      12846  itMISS:      80343  dtACCESS:     195915  dtHIT:      10853  dtMISS:     185062
cpu0_L1D PREFETCH  REQUESTED:   19378672  ISSUED:   17321436  CROSSED:          0  USEFUL:     310039  USELESS:     702520
cpu0_L1D AVERAGE iMISS LATENCY: 0 cycles
cpu0_L1D AVERAGE dMISS LATENCY: 40.1024 cycles
cpu0_L1D AVERAGE itMISS LATENCY: 2.72814 cycles
cpu0_L1D AVERAGE dtMISS LATENCY: 6.59146 cycles
cpu0_L1D PAGE CROSSINGS (TLB HIT):         0 
cpu0_L1D PAGE CROSSINGS (TLB MISS):         0 
cpu0_L1D AVERAGE MISS LATENCY: 49.422 cycles
cpu0_L2C TOTAL       ACCESS:    7307922  HIT:    3702814  MISS:    3605108  iACCESS:    3397832  iHIT:    2048063  iMISS:    1349769  dACCESS:    3653407  dHIT:    1616959  dMISS:    2036448  itACCESS:      80343  itHIT:      15471  itMISS:      64872  dtACCESS:     176340  dtHIT:      22321  dtMISS:     154019
cpu0_L2C LOAD         ACCESS:    1723436  HIT:     911017  MISS:     812419  iACCESS:     776230  iHIT:     496966  iMISS:     279264  dACCESS:     947206  dHIT:     414051  dMISS:     533155  itACCESS:          0  itHIT:          0  itMISS:          0  dtACCESS:          0  dtHIT:          0  dtMISS:          0
cpu0_L2C RFO          ACCESS:     159755  HIT:      62242  MISS:      97513  iACCESS:          0  iHIT:          0  iMISS:          0  dACCESS:     159755  dHIT:      62242  dMISS:      97513  itACCESS:          0  itHIT:          0  itMISS:          0  dtACCESS:          0  dtHIT:          0  dtMISS:          0
cpu0_L2C PREFETCH     ACCESS:    4895543  HIT:    2421095  MISS:    2474448  iACCESS:    2621602  iHIT:    1551097  iMISS:    1070505  dACCESS:    2273941  dHIT:     869998  dMISS:    1403943  itACCESS:          0  itHIT:          0  itMISS:          0  dtACCESS:          0  dtHIT:          0  dtMISS:          0
cpu0_L2C WRITE        ACCESS:     272505  HIT:     270668  MISS:       1837  iACCESS:          0  iHIT:          0  iMISS:          0  dACCESS:     272505  dHIT:     270668  dMISS:       1837  itACCESS:          0  itHIT:          0  itMISS:          0  dtACCESS:          0  dtHIT:          0  dtMISS:          0
cpu0_L2C TRANSLATION  ACCESS:     256683  HIT:      37792  MISS:     218891  iACCESS:          0  iHIT:          0  iMISS:          0  dACCESS:          0  dHIT:          0  dMISS:          0  itACCESS:      80343  itHIT:      15471  itMISS:      64872  dtACCESS:     176340  dtHIT:      22321  dtMISS:     154019
cpu0_L2C PREFETCH  REQUESTED:    1532936  ISSUED:    1532912  CROSSED:          0  USEFUL:     380726  USELESS:     302896
cpu0_L2C AVERAGE iMISS LATENCY: 34.1965 cycles
cpu0_L2C AVERAGE dMISS LATENCY: 59.9755 cycles
cpu0_L2C AVERAGE itMISS LATENCY: 2.92614 cycles
cpu0_L2C AVERAGE dtMISS LATENCY: 7.11372 cycles
cpu0_L2C PAGE CROSSINGS (TLB HIT):         0 
cpu0_L2C PAGE CROSSINGS (TLB MISS):         0 
cpu0_L2C AVERAGE MISS LATENCY: 104.212 cycles
LLC TOTAL       ACCESS:    3557925  HIT:    1619476  MISS:    1938449  iACCESS:    1266238  iHIT:     598860  iMISS:     667378  dACCESS:    2072796  dHIT:     975240  dMISS:    1097556  itACCESS:      64872  itHIT:      12294  itMISS:      52578  dtACCESS:     154019  dtHIT:      33082  dtMISS:     120937
LLC LOAD         ACCESS:     805870  HIT:     390673  MISS:     415197  iACCESS:     278046  iHIT:     137282  iMISS:     140764  dACCESS:     527824  dHIT:     253391  dMISS:     274433  itACCESS:          0  itHIT:          0  itMISS:          0  dtACCESS:          0  dtHIT:          0  dtMISS:          0
LLC RFO          ACCESS:      97505  HIT:      40605  MISS:      56900  iACCESS:          0  iHIT:          0  iMISS:          0  dACCESS:      97505  dHIT:      40605  dMISS:      56900  itACCESS:          0  itHIT:          0  itMISS:          0  dtACCESS:          0  dtHIT:          0  dtMISS:          0
LLC PREFETCH     ACCESS:    2288129  HIT:    1004115  MISS:    1284014  iACCESS:     988192  iHIT:     461578  iMISS:     526614  dACCESS:    1299937  dHIT:     542537  dMISS:     757400  itACCESS:          0  itHIT:          0  itMISS:          0  dtACCESS:          0  dtHIT:          0  dtMISS:          0
LLC WRITE        ACCESS:     147530  HIT:     138707  MISS:       8823  iACCESS:          0  iHIT:          0  iMISS:          0  dACCESS:     147530  dHIT:     138707  dMISS:       8823  itACCESS:          0  itHIT:          0  itMISS:          0  dtACCESS:          0  dtHIT:          0  dtMISS:          0
LLC TRANSLATION  ACCESS:     218891  HIT:      45376  MISS:     173515  iACCESS:          0  iHIT:          0  iMISS:          0  dACCESS:          0  dHIT:          0  dMISS:          0  itACCESS:      64872  itHIT:      12294  itMISS:      52578  dtACCESS:     154019  dtHIT:      33082  dtMISS:     120937
LLC PREFETCH  REQUESTED:          0  ISSUED:          0  CROSSED:          0  USEFUL:          0  USELESS:          0
LLC AVERAGE iMISS LATENCY: 50.8271 cycles
LLC AVERAGE dMISS LATENCY: 93.0981 cycles
LLC AVERAGE itMISS LATENCY: 4.78136 cycles
LLC AVERAGE dtMISS LATENCY: 11.6655 cycles
LLC PAGE CROSSINGS (TLB HIT):         0 
LLC PAGE CROSSINGS (TLB MISS):         0 
LLC AVERAGE MISS LATENCY: 160.372 cycles

PageTableWalker TOTAL       ACCESS:     113881  
PageTableWalker AVERAGE LATENCY: 5.03033 cycles
PageTableWalker TOTAL LATENCY: 572858 cycles

DRAM Statistics
Channel 0
 RQ ROW_BUFFER_HIT:     535013
  ROW_BUFFER_MISS:    1380103
 AVG DBUS CONGESTED CYCLE:    3.63747
 WQ ROW_BUFFER_HIT:      37415
  ROW_BUFFER_MISS:      25824  FULL:          0

