last_page:0x200000000000000
VMEM_RES_CAP:0x100000
PAGE_SIZE:4096
LOG2_PAGE_SIZE:12
LOG2_PAGE_TABLE_SIZE:9
page_table_levels:5
WARNING: physical memory size is smaller than virtual memory size
FDiP enabled with aggresivity 16

*** ChampSim Multicore Out-of-Order Simulator ***

Warmup Instructions: 50000000
Simulation Instructions: 100000000
Number of CPUs: 1
Small page size: 4096
Large page size: 2097152

CPU 0 Bimodal branch predictor
Basic BTB sets: 1024 ways: 8 indirect buffer size: 4096 RAS size: 64
Instruction page size distrubution: 0
Loading instruction page size distribution from /home/bsc/bsc018186/scratch/itp_asplos25_AE/dump/srv255_ap.pdst
Data page size distrubution: 0
Loading data page size distribution from /home/bsc/bsc018186/scratch/itp_asplos25_AE/dump/srv255_ap.pdst
cpu0_L2C IP-based stride prefetcher
cpu0_L2C is using PTP replacement policy:
	TLB_STRESS_THRESHOLD:0
	PTE_EVICTION_RATIO:0
cpu0_L1D next line prefetcher
cpu0_STLB using iTP with max lru@8
cpu0_STLB using iTP with instr@0 and data@2
Init sat counter with 3 bits (max:50).
cpu0_L1I next line prefetcher
Off-chip DRAM Size: 4 GiB Channels: 1 Width: 64-bit Data Rate: 3200 MT/s
Heartbeat CPU 0 instructions: 10000000 cycles: 2500150 heartbeat IPC: 3.99977 cumulative IPC: 3.99977 (Simulation time: 0 hr 0 min 38 sec) 
Heartbeat CPU 0 instructions: 20000002 cycles: 5000159 heartbeat IPC: 3.99999 cumulative IPC: 3.99988 (Simulation time: 0 hr 1 min 17 sec) 
Heartbeat CPU 0 instructions: 30000003 cycles: 7500185 heartbeat IPC: 3.99996 cumulative IPC: 3.99991 (Simulation time: 0 hr 1 min 57 sec) 
Heartbeat CPU 0 instructions: 40000000 cycles: 10000195 heartbeat IPC: 3.99999 cumulative IPC: 3.99993 (Simulation time: 0 hr 2 min 37 sec) 
Heartbeat CPU 0 instructions: 50000003 cycles: 12500257 heartbeat IPC: 3.99991 cumulative IPC: 3.99992 (Simulation time: 0 hr 3 min 19 sec) 
Warmup finished CPU 0 instructions: 50000003 cycles: 12500258 cumulative IPC: 3.99992 (Simulation time: 0 hr 3 min 19 sec) 

Warmup complete CPU 0 instructions: 50000003 cycles: 12500258 (Simulation time: 0 hr 3 min 19 sec) 

Heartbeat CPU 0 instructions: 60000000 cycles: 31112621 heartbeat IPC: 0.537278 cumulative IPC: 0.537278 (Simulation time: 0 hr 4 min 28 sec) 
Heartbeat CPU 0 instructions: 70000000 cycles: 49294172 heartbeat IPC: 0.550009 cumulative IPC: 0.543569 (Simulation time: 0 hr 5 min 38 sec) 
Heartbeat CPU 0 instructions: 80000001 cycles: 68266997 heartbeat IPC: 0.52707 cumulative IPC: 0.537956 (Simulation time: 0 hr 6 min 52 sec) 
Heartbeat CPU 0 instructions: 90000001 cycles: 87266782 heartbeat IPC: 0.526322 cumulative IPC: 0.534999 (Simulation time: 0 hr 8 min 8 sec) 
Heartbeat CPU 0 instructions: 100000001 cycles: 105784651 heartbeat IPC: 0.540019 cumulative IPC: 0.535996 (Simulation time: 0 hr 9 min 24 sec) 
*** Reached end of trace: /gpfs/projects/bsc18/MN4/bsc18/romol/ChampSim/traces/qualcomm_srv/srv255_ap.champsimtrace.xz
Heartbeat CPU 0 instructions: 110000003 cycles: 125211518 heartbeat IPC: 0.514752 cumulative IPC: 0.532334 (Simulation time: 0 hr 10 min 36 sec) 
Heartbeat CPU 0 instructions: 120000002 cycles: 144215447 heartbeat IPC: 0.526207 cumulative IPC: 0.53145 (Simulation time: 0 hr 11 min 53 sec) 
Heartbeat CPU 0 instructions: 130000003 cycles: 163091085 heartbeat IPC: 0.529784 cumulative IPC: 0.531241 (Simulation time: 0 hr 13 min 10 sec) 
Heartbeat CPU 0 instructions: 140000002 cycles: 182297743 heartbeat IPC: 0.520653 cumulative IPC: 0.530044 (Simulation time: 0 hr 14 min 25 sec) 
Heartbeat CPU 0 instructions: 150000000 cycles: 201150944 heartbeat IPC: 0.530414 cumulative IPC: 0.530081 (Simulation time: 0 hr 15 min 40 sec) 
Simulation finished CPU 0 instructions: 100000000 cycles: 188650884 cumulative IPC: 0.53008 (Simulation time: 0 hr 15 min 40 sec) 

Simulation complete CPU 0 instructions: 100000000 cycles: 188650884 (Simulation time: 0 hr 15 min 40 sec) 


ChampSim completed all CPUs

Saving instructions large page distribution to /home/bsc/bsc018186/scratch/itp_asplos25_AE/dump/srv255_ap.pdst...
Saving data large page distribution to /home/bsc/bsc018186/scratch/itp_asplos25_AE/dump/srv255_ap.pdst...
=== Simulation ===
CPU 0 runs /gpfs/projects/bsc18/MN4/bsc18/romol/ChampSim/traces/qualcomm_srv/srv255_ap.champsimtrace.xz

Region of Interest Statistics

CPU 0 cumulative IPC: 0.53008 instructions: 100000000 cycles: 188650884
CPU 0 Branch Prediction Accuracy: 80.5354% MPKI: 35.1582 Average ROB Occupancy at Mispredict: 10.617
Branch type MPKI
BRANCH_DIRECT_JUMP: 1.2894
BRANCH_INDIRECT: 17.6229
BRANCH_CONDITIONAL: 11.4115
BRANCH_DIRECT_CALL: 2.42672
BRANCH_INDIRECT_CALL: 0.697521
BRANCH_RETURN: 1.71029

Instructions large pages: 0
Instructions small pages: 5597
Large page distribution for instructions: 0%

Data large pages: 0
Data small pages: 4546
Large page distribution for data: 0%

cpu0_L1I TOTAL       ACCESS:   35539552  HIT:   27369928  MISS:    8169624  iACCESS:   35539552  iHIT:   27369928  iMISS:    8169624  dACCESS:          0  dHIT:          0  dMISS:          0  itACCESS:          0  itHIT:          0  itMISS:          0  dtACCESS:          0  dtHIT:          0  dtMISS:          0
cpu0_L1I LOAD         ACCESS:   10236121  HIT:    7989887  MISS:    2246234  iACCESS:   10236121  iHIT:    7989887  iMISS:    2246234  dACCESS:          0  dHIT:          0  dMISS:          0  itACCESS:          0  itHIT:          0  itMISS:          0  dtACCESS:          0  dtHIT:          0  dtMISS:          0
cpu0_L1I RFO          ACCESS:          0  HIT:          0  MISS:          0  iACCESS:          0  iHIT:          0  iMISS:          0  dACCESS:          0  dHIT:          0  dMISS:          0  itACCESS:          0  itHIT:          0  itMISS:          0  dtACCESS:          0  dtHIT:          0  dtMISS:          0
cpu0_L1I PREFETCH     ACCESS:   25303431  HIT:   19380041  MISS:    5923390  iACCESS:   25303431  iHIT:   19380041  iMISS:    5923390  dACCESS:          0  dHIT:          0  dMISS:          0  itACCESS:          0  itHIT:          0  itMISS:          0  dtACCESS:          0  dtHIT:          0  dtMISS:          0
cpu0_L1I WRITE        ACCESS:          0  HIT:          0  MISS:          0  iACCESS:          0  iHIT:          0  iMISS:          0  dACCESS:          0  dHIT:          0  dMISS:          0  itACCESS:          0  itHIT:          0  itMISS:          0  dtACCESS:          0  dtHIT:          0  dtMISS:          0
cpu0_L1I TRANSLATION  ACCESS:          0  HIT:          0  MISS:          0  iACCESS:          0  iHIT:          0  iMISS:          0  dACCESS:          0  dHIT:          0  dMISS:          0  itACCESS:          0  itHIT:          0  itMISS:          0  dtACCESS:          0  dtHIT:          0  dtMISS:          0
cpu0_L1I PREFETCH  REQUESTED:   27584162  ISSUED:   27583683  CROSSED:          0  USEFUL:    1970932  USELESS:     658077
cpu0_L1I AVERAGE iMISS LATENCY: 18.8276 cycles
cpu0_L1I AVERAGE dMISS LATENCY: 0 cycles
cpu0_L1I AVERAGE itMISS LATENCY: 0 cycles
cpu0_L1I AVERAGE dtMISS LATENCY: 0 cycles
cpu0_L1I PAGE CROSSINGS (TLB HIT):         0 
cpu0_L1I PAGE CROSSINGS (TLB MISS):         0 
cpu0_L1I AVERAGE MISS LATENCY: 18.8276 cycles
cpu0_ITLB TOTAL       ACCESS:   29859200  HIT:   27905185  MISS:    1954015  iACCESS:   29859200  iHIT:   27905185  iMISS:    1954015  dACCESS:          0  dHIT:          0  dMISS:          0  itACCESS:          0  itHIT:          0  itMISS:          0  dtACCESS:          0  dtHIT:          0  dtMISS:          0
cpu0_ITLB LOAD         ACCESS:   29859200  HIT:   27905185  MISS:    1954015  iACCESS:   29859200  iHIT:   27905185  iMISS:    1954015  dACCESS:          0  dHIT:          0  dMISS:          0  itACCESS:          0  itHIT:          0  itMISS:          0  dtACCESS:          0  dtHIT:          0  dtMISS:          0
cpu0_ITLB RFO          ACCESS:          0  HIT:          0  MISS:          0  iACCESS:          0  iHIT:          0  iMISS:          0  dACCESS:          0  dHIT:          0  dMISS:          0  itACCESS:          0  itHIT:          0  itMISS:          0  dtACCESS:          0  dtHIT:          0  dtMISS:          0
cpu0_ITLB PREFETCH     ACCESS:          0  HIT:          0  MISS:          0  iACCESS:          0  iHIT:          0  iMISS:          0  dACCESS:          0  dHIT:          0  dMISS:          0  itACCESS:          0  itHIT:          0  itMISS:          0  dtACCESS:          0  dtHIT:          0  dtMISS:          0
cpu0_ITLB WRITE        ACCESS:          0  HIT:          0  MISS:          0  iACCESS:          0  iHIT:          0  iMISS:          0  dACCESS:          0  dHIT:          0  dMISS:          0  itACCESS:          0  itHIT:          0  itMISS:          0  dtACCESS:          0  dtHIT:          0  dtMISS:          0
cpu0_ITLB TRANSLATION  ACCESS:          0  HIT:          0  MISS:          0  iACCESS:          0  iHIT:          0  iMISS:          0  dACCESS:          0  dHIT:          0  dMISS:          0  itACCESS:          0  itHIT:          0  itMISS:          0  dtACCESS:          0  dtHIT:          0  dtMISS:          0
cpu0_ITLB PREFETCH  REQUESTED:          0  ISSUED:          0  CROSSED:          0  USEFUL:     330048  USELESS:      62697
cpu0_ITLB AVERAGE iMISS LATENCY: 3.03537 cycles
cpu0_ITLB AVERAGE dMISS LATENCY: 0 cycles
cpu0_ITLB AVERAGE itMISS LATENCY: 0 cycles
cpu0_ITLB AVERAGE dtMISS LATENCY: 0 cycles
cpu0_ITLB PAGE CROSSINGS (TLB HIT):         0 
cpu0_ITLB PAGE CROSSINGS (TLB MISS):         0 
cpu0_ITLB AVERAGE MISS LATENCY: 3.03537 cycles
cpu0_DTLB TOTAL       ACCESS:   28012664  HIT:   26075837  MISS:    1936827  iACCESS:          0  iHIT:          0  iMISS:          0  dACCESS:   28012664  dHIT:   26075837  dMISS:    1936827  itACCESS:          0  itHIT:          0  itMISS:          0  dtACCESS:          0  dtHIT:          0  dtMISS:          0
cpu0_DTLB LOAD         ACCESS:   28012664  HIT:   26075837  MISS:    1936827  iACCESS:          0  iHIT:          0  iMISS:          0  dACCESS:   28012664  dHIT:   26075837  dMISS:    1936827  itACCESS:          0  itHIT:          0  itMISS:          0  dtACCESS:          0  dtHIT:          0  dtMISS:          0
cpu0_DTLB RFO          ACCESS:          0  HIT:          0  MISS:          0  iACCESS:          0  iHIT:          0  iMISS:          0  dACCESS:          0  dHIT:          0  dMISS:          0  itACCESS:          0  itHIT:          0  itMISS:          0  dtACCESS:          0  dtHIT:          0  dtMISS:          0
cpu0_DTLB PREFETCH     ACCESS:          0  HIT:          0  MISS:          0  iACCESS:          0  iHIT:          0  iMISS:          0  dACCESS:          0  dHIT:          0  dMISS:          0  itACCESS:          0  itHIT:          0  itMISS:          0  dtACCESS:          0  dtHIT:          0  dtMISS:          0
cpu0_DTLB WRITE        ACCESS:          0  HIT:          0  MISS:          0  iACCESS:          0  iHIT:          0  iMISS:          0  dACCESS:          0  dHIT:          0  dMISS:          0  itACCESS:          0  itHIT:          0  itMISS:          0  dtACCESS:          0  dtHIT:          0  dtMISS:          0
cpu0_DTLB TRANSLATION  ACCESS:          0  HIT:          0  MISS:          0  iACCESS:          0  iHIT:          0  iMISS:          0  dACCESS:          0  dHIT:          0  dMISS:          0  itACCESS:          0  itHIT:          0  itMISS:          0  dtACCESS:          0  dtHIT:          0  dtMISS:          0
cpu0_DTLB PREFETCH  REQUESTED:          0  ISSUED:          0  CROSSED:          0  USEFUL:          0  USELESS:          0
cpu0_DTLB AVERAGE iMISS LATENCY: 0 cycles
cpu0_DTLB AVERAGE dMISS LATENCY: 17.0411 cycles
cpu0_DTLB AVERAGE itMISS LATENCY: 0 cycles
cpu0_DTLB AVERAGE dtMISS LATENCY: 0 cycles
cpu0_DTLB PAGE CROSSINGS (TLB HIT):         0 
cpu0_DTLB PAGE CROSSINGS (TLB MISS):         0 
cpu0_DTLB AVERAGE MISS LATENCY: 17.0411 cycles
cpu0_STLB TOTAL       ACCESS:    1603824  HIT:    1399066  MISS:     204758  iACCESS:     392745  iHIT:     371642  iMISS:      21103  dACCESS:    1211079  dHIT:    1027424  dMISS:     183655  itACCESS:          0  itHIT:          0  itMISS:          0  dtACCESS:          0  dtHIT:          0  dtMISS:          0
cpu0_STLB LOAD         ACCESS:    1603824  HIT:    1399066  MISS:     204758  iACCESS:     392745  iHIT:     371642  iMISS:      21103  dACCESS:    1211079  dHIT:    1027424  dMISS:     183655  itACCESS:          0  itHIT:          0  itMISS:          0  dtACCESS:          0  dtHIT:          0  dtMISS:          0
cpu0_STLB RFO          ACCESS:          0  HIT:          0  MISS:          0  iACCESS:          0  iHIT:          0  iMISS:          0  dACCESS:          0  dHIT:          0  dMISS:          0  itACCESS:          0  itHIT:          0  itMISS:          0  dtACCESS:          0  dtHIT:          0  dtMISS:          0
cpu0_STLB PREFETCH     ACCESS:          0  HIT:          0  MISS:          0  iACCESS:          0  iHIT:          0  iMISS:          0  dACCESS:          0  dHIT:          0  dMISS:          0  itACCESS:          0  itHIT:          0  itMISS:          0  dtACCESS:          0  dtHIT:          0  dtMISS:          0
cpu0_STLB WRITE        ACCESS:          0  HIT:          0  MISS:          0  iACCESS:          0  iHIT:          0  iMISS:          0  dACCESS:          0  dHIT:          0  dMISS:          0  itACCESS:          0  itHIT:          0  itMISS:          0  dtACCESS:          0  dtHIT:          0  dtMISS:          0
cpu0_STLB TRANSLATION  ACCESS:          0  HIT:          0  MISS:          0  iACCESS:          0  iHIT:          0  iMISS:          0  dACCESS:          0  dHIT:          0  dMISS:          0  itACCESS:          0  itHIT:          0  itMISS:          0  dtACCESS:          0  dtHIT:          0  dtMISS:          0
cpu0_STLB PREFETCH  REQUESTED:          0  ISSUED:          0  CROSSED:          0  USEFUL:          0  USELESS:          0
cpu0_STLB AVERAGE iMISS LATENCY: 14.0152 cycles
cpu0_STLB AVERAGE dMISS LATENCY: 113.719 cycles
cpu0_STLB AVERAGE itMISS LATENCY: 0 cycles
cpu0_STLB AVERAGE dtMISS LATENCY: 0 cycles
cpu0_STLB PAGE CROSSINGS (TLB HIT):         0 
cpu0_STLB PAGE CROSSINGS (TLB MISS):         0 
cpu0_STLB AVERAGE MISS LATENCY: 127.734 cycles
cpu0_L1D TOTAL       ACCESS:   42553523  HIT:   38471353  MISS:    4082170  iACCESS:          0  iHIT:          0  iMISS:          0  dACCESS:   42278144  dHIT:   38454020  dMISS:    3824124  itACCESS:      24059  itHIT:       2092  itMISS:      21967  dtACCESS:     251320  dtHIT:      15241  dtMISS:     236079
cpu0_L1D LOAD         ACCESS:   19351998  HIT:   17619088  MISS:    1732910  iACCESS:          0  iHIT:          0  iMISS:          0  dACCESS:   19351998  dHIT:   17619088  dMISS:    1732910  itACCESS:          0  itHIT:          0  itMISS:          0  dtACCESS:          0  dtHIT:          0  dtMISS:          0
cpu0_L1D RFO          ACCESS:          0  HIT:          0  MISS:          0  iACCESS:          0  iHIT:          0  iMISS:          0  dACCESS:          0  dHIT:          0  dMISS:          0  itACCESS:          0  itHIT:          0  itMISS:          0  dtACCESS:          0  dtHIT:          0  dtMISS:          0
cpu0_L1D PREFETCH     ACCESS:   12732017  HIT:   11126317  MISS:    1605700  iACCESS:          0  iHIT:          0  iMISS:          0  dACCESS:   12732017  dHIT:   11126317  dMISS:    1605700  itACCESS:          0  itHIT:          0  itMISS:          0  dtACCESS:          0  dtHIT:          0  dtMISS:          0
cpu0_L1D WRITE        ACCESS:   10194129  HIT:    9708615  MISS:     485514  iACCESS:          0  iHIT:          0  iMISS:          0  dACCESS:   10194129  dHIT:    9708615  dMISS:     485514  itACCESS:          0  itHIT:          0  itMISS:          0  dtACCESS:          0  dtHIT:          0  dtMISS:          0
cpu0_L1D TRANSLATION  ACCESS:     275379  HIT:      17333  MISS:     258046  iACCESS:          0  iHIT:          0  iMISS:          0  dACCESS:          0  dHIT:          0  dMISS:          0  itACCESS:      24059  itHIT:       2092  itMISS:      21967  dtACCESS:     251320  dtHIT:      15241  dtMISS:     236079
cpu0_L1D PREFETCH  REQUESTED:   19351998  ISSUED:   17269971  CROSSED:          0  USEFUL:     308146  USELESS:     698727
cpu0_L1D AVERAGE iMISS LATENCY: 0 cycles
cpu0_L1D AVERAGE dMISS LATENCY: 39.9372 cycles
cpu0_L1D AVERAGE itMISS LATENCY: 0.652367 cycles
cpu0_L1D AVERAGE dtMISS LATENCY: 5.13277 cycles
cpu0_L1D PAGE CROSSINGS (TLB HIT):         0 
cpu0_L1D PAGE CROSSINGS (TLB MISS):         0 
cpu0_L1D AVERAGE MISS LATENCY: 45.7224 cycles
cpu0_L2C TOTAL       ACCESS:    7232653  HIT:    2154816  MISS:    5077837  iACCESS:    3363743  iHIT:    1174887  iMISS:    2188856  dACCESS:    3615840  dHIT:     865211  dMISS:    2750629  itACCESS:      21967  itHIT:       6192  itMISS:      15775  dtACCESS:     231103  dtHIT:     108526  dtMISS:     122577
cpu0_L2C LOAD         ACCESS:    1713292  HIT:     427378  MISS:    1285914  iACCESS:     770857  iHIT:     240441  iMISS:     530416  dACCESS:     942435  dHIT:     186937  dMISS:     755498  itACCESS:          0  itHIT:          0  itMISS:          0  dtACCESS:          0  dtHIT:          0  dtMISS:          0
cpu0_L2C RFO          ACCESS:     164287  HIT:      29539  MISS:     134748  iACCESS:          0  iHIT:          0  iMISS:          0  dACCESS:     164287  dHIT:      29539  dMISS:     134748  itACCESS:          0  itHIT:          0  itMISS:          0  dtACCESS:          0  dtHIT:          0  dtMISS:          0
cpu0_L2C PREFETCH     ACCESS:    4829739  HIT:    1442654  MISS:    3387085  iACCESS:    2592886  iHIT:     934446  iMISS:    1658440  dACCESS:    2236853  dHIT:     508208  dMISS:    1728645  itACCESS:          0  itHIT:          0  itMISS:          0  dtACCESS:          0  dtHIT:          0  dtMISS:          0
cpu0_L2C WRITE        ACCESS:     272265  HIT:     140527  MISS:     131738  iACCESS:          0  iHIT:          0  iMISS:          0  dACCESS:     272265  dHIT:     140527  dMISS:     131738  itACCESS:          0  itHIT:          0  itMISS:          0  dtACCESS:          0  dtHIT:          0  dtMISS:          0
cpu0_L2C TRANSLATION  ACCESS:     253070  HIT:     114718  MISS:     138352  iACCESS:          0  iHIT:          0  iMISS:          0  dACCESS:          0  dHIT:          0  dMISS:          0  itACCESS:      21967  itHIT:       6192  itMISS:      15775  dtACCESS:     231103  dtHIT:     108526  dtMISS:     122577
cpu0_L2C PREFETCH  REQUESTED:    1486488  ISSUED:    1486488  CROSSED:          0  USEFUL:     387654  USELESS:     393160
cpu0_L2C AVERAGE iMISS LATENCY: 24.3751 cycles
cpu0_L2C AVERAGE dMISS LATENCY: 40.7829 cycles
cpu0_L2C AVERAGE itMISS LATENCY: 0.482254 cycles
cpu0_L2C AVERAGE dtMISS LATENCY: 3.69063 cycles
cpu0_L2C PAGE CROSSINGS (TLB HIT):         0 
cpu0_L2C PAGE CROSSINGS (TLB MISS):         0 
cpu0_L2C AVERAGE MISS LATENCY: 69.3308 cycles
LLC TOTAL       ACCESS:    4964182  HIT:    3320837  MISS:    1643345  iACCESS:    2110971  iHIT:    1546473  iMISS:     564498  dACCESS:    2714859  dHIT:    1737457  dMISS:     977402  itACCESS:      15775  itHIT:       3647  itMISS:      12128  dtACCESS:     122577  dtHIT:      33260  dtMISS:      89317
LLC LOAD         ACCESS:    1279955  HIT:     916420  MISS:     363535  iACCESS:     528996  iHIT:     411740  iMISS:     117256  dACCESS:     750959  dHIT:     504680  dMISS:     246279  itACCESS:          0  itHIT:          0  itMISS:          0  dtACCESS:          0  dtHIT:          0  dtMISS:          0
LLC RFO          ACCESS:     134710  HIT:      72081  MISS:      62629  iACCESS:          0  iHIT:          0  iMISS:          0  dACCESS:     134710  dHIT:      72081  dMISS:      62629  itACCESS:          0  itHIT:          0  itMISS:          0  dtACCESS:          0  dtHIT:          0  dtMISS:          0
LLC PREFETCH     ACCESS:    3208955  HIT:    2096615  MISS:    1112340  iACCESS:    1581975  iHIT:    1134733  iMISS:     447242  dACCESS:    1626980  dHIT:     961882  dMISS:     665098  itACCESS:          0  itHIT:          0  itMISS:          0  dtACCESS:          0  dtHIT:          0  dtMISS:          0
LLC WRITE        ACCESS:     202210  HIT:     198814  MISS:       3396  iACCESS:          0  iHIT:          0  iMISS:          0  dACCESS:     202210  dHIT:     198814  dMISS:       3396  itACCESS:          0  itHIT:          0  itMISS:          0  dtACCESS:          0  dtHIT:          0  dtMISS:          0
LLC TRANSLATION  ACCESS:     138352  HIT:      36907  MISS:     101445  iACCESS:          0  iHIT:          0  iMISS:          0  dACCESS:          0  dHIT:          0  dMISS:          0  itACCESS:      15775  itHIT:       3647  itMISS:      12128  dtACCESS:     122577  dtHIT:      33260  dtMISS:      89317
LLC PREFETCH  REQUESTED:          0  ISSUED:          0  CROSSED:          0  USEFUL:          0  USELESS:          0
LLC AVERAGE iMISS LATENCY: 50.4151 cycles
LLC AVERAGE dMISS LATENCY: 97.1224 cycles
LLC AVERAGE itMISS LATENCY: 1.30107 cycles
LLC AVERAGE dtMISS LATENCY: 9.93753 cycles
LLC PAGE CROSSINGS (TLB HIT):         0 
LLC PAGE CROSSINGS (TLB MISS):         0 
LLC AVERAGE MISS LATENCY: 158.776 cycles

PageTableWalker TOTAL       ACCESS:      98430  
PageTableWalker AVERAGE LATENCY: 4.21892 cycles
PageTableWalker TOTAL LATENCY: 415268 cycles

DRAM Statistics
Channel 0
 RQ ROW_BUFFER_HIT:     474850
  ROW_BUFFER_MISS:    1152330
 AVG DBUS CONGESTED CYCLE:    3.63894
 WQ ROW_BUFFER_HIT:      36976
  ROW_BUFFER_MISS:      31877  FULL:          0

