last_page:0x200000000000000
VMEM_RES_CAP:0x100000
PAGE_SIZE:4096
LOG2_PAGE_SIZE:12
LOG2_PAGE_TABLE_SIZE:9
page_table_levels:5
WARNING: physical memory size is smaller than virtual memory size
FDiP enabled with aggresivity 16

*** ChampSim Multicore Out-of-Order Simulator ***

Warmup Instructions: 50000000
Simulation Instructions: 100000000
Number of CPUs: 1
Small page size: 4096
Large page size: 2097152

CPU 0 Bimodal branch predictor
Basic BTB sets: 1024 ways: 8 indirect buffer size: 4096 RAS size: 64
Instruction page size distrubution: 0
Loading instruction page size distribution from /home/bsc/bsc018186/scratch/itp_asplos25_AE/dump/srv255_ap.pdst
Data page size distrubution: 0
Loading data page size distribution from /home/bsc/bsc018186/scratch/itp_asplos25_AE/dump/srv255_ap.pdst
cpu0_L2C IP-based stride prefetcher
cpu0_L1D next line prefetcher
cpu0_STLB using iTP with max lru@8
cpu0_STLB using iTP with instr@0 and data@2
Init sat counter with 3 bits (max:50).
cpu0_L1I next line prefetcher
Off-chip DRAM Size: 4 GiB Channels: 1 Width: 64-bit Data Rate: 3200 MT/s
Heartbeat CPU 0 instructions: 10000003 cycles: 2500135 heartbeat IPC: 3.99979 cumulative IPC: 3.99979 (Simulation time: 0 hr 0 min 37 sec) 
Heartbeat CPU 0 instructions: 20000002 cycles: 5000165 heartbeat IPC: 3.99996 cumulative IPC: 3.99987 (Simulation time: 0 hr 1 min 16 sec) 
Heartbeat CPU 0 instructions: 30000002 cycles: 7500174 heartbeat IPC: 3.99999 cumulative IPC: 3.99991 (Simulation time: 0 hr 1 min 56 sec) 
Heartbeat CPU 0 instructions: 40000001 cycles: 10000184 heartbeat IPC: 3.99999 cumulative IPC: 3.99993 (Simulation time: 0 hr 2 min 36 sec) 
Heartbeat CPU 0 instructions: 50000001 cycles: 12500265 heartbeat IPC: 3.99988 cumulative IPC: 3.99992 (Simulation time: 0 hr 3 min 17 sec) 
Warmup finished CPU 0 instructions: 50000001 cycles: 12500266 cumulative IPC: 3.99992 (Simulation time: 0 hr 3 min 17 sec) 

Warmup complete CPU 0 instructions: 50000001 cycles: 12500266 (Simulation time: 0 hr 3 min 17 sec) 

Heartbeat CPU 0 instructions: 60000000 cycles: 30259271 heartbeat IPC: 0.563095 cumulative IPC: 0.563095 (Simulation time: 0 hr 4 min 27 sec) 
Heartbeat CPU 0 instructions: 70000000 cycles: 47682981 heartbeat IPC: 0.573931 cumulative IPC: 0.568461 (Simulation time: 0 hr 5 min 37 sec) 
Heartbeat CPU 0 instructions: 80000003 cycles: 65705137 heartbeat IPC: 0.554873 cumulative IPC: 0.563859 (Simulation time: 0 hr 6 min 48 sec) 
Heartbeat CPU 0 instructions: 90000002 cycles: 83816826 heartbeat IPC: 0.55213 cumulative IPC: 0.56088 (Simulation time: 0 hr 7 min 58 sec) 
Heartbeat CPU 0 instructions: 100000001 cycles: 101276919 heartbeat IPC: 0.572735 cumulative IPC: 0.563212 (Simulation time: 0 hr 9 min 7 sec) 
*** Reached end of trace: /gpfs/projects/bsc18/MN4/bsc18/romol/ChampSim/traces/qualcomm_srv/srv255_ap.champsimtrace.xz
Heartbeat CPU 0 instructions: 110000003 cycles: 119546138 heartbeat IPC: 0.547369 cumulative IPC: 0.560508 (Simulation time: 0 hr 10 min 16 sec) 
Heartbeat CPU 0 instructions: 120000002 cycles: 137218047 heartbeat IPC: 0.56587 cumulative IPC: 0.561268 (Simulation time: 0 hr 11 min 25 sec) 
Heartbeat CPU 0 instructions: 130000003 cycles: 154640420 heartbeat IPC: 0.573975 cumulative IPC: 0.562825 (Simulation time: 0 hr 12 min 33 sec) 
Heartbeat CPU 0 instructions: 140000002 cycles: 172406852 heartbeat IPC: 0.56286 cumulative IPC: 0.562829 (Simulation time: 0 hr 13 min 43 sec) 
Heartbeat CPU 0 instructions: 150000000 cycles: 189785271 heartbeat IPC: 0.575427 cumulative IPC: 0.564064 (Simulation time: 0 hr 14 min 53 sec) 
Simulation finished CPU 0 instructions: 100000000 cycles: 177285007 cumulative IPC: 0.564064 (Simulation time: 0 hr 14 min 53 sec) 

Simulation complete CPU 0 instructions: 100000000 cycles: 177285007 (Simulation time: 0 hr 14 min 53 sec) 


ChampSim completed all CPUs

Saving instructions large page distribution to /home/bsc/bsc018186/scratch/itp_asplos25_AE/dump/srv255_ap.pdst...
Saving data large page distribution to /home/bsc/bsc018186/scratch/itp_asplos25_AE/dump/srv255_ap.pdst...
=== Simulation ===
CPU 0 runs /gpfs/projects/bsc18/MN4/bsc18/romol/ChampSim/traces/qualcomm_srv/srv255_ap.champsimtrace.xz

Region of Interest Statistics

CPU 0 cumulative IPC: 0.564064 instructions: 100000000 cycles: 177285007
CPU 0 Branch Prediction Accuracy: 80.5354% MPKI: 35.1582 Average ROB Occupancy at Mispredict: 10.4649
Branch type MPKI
BRANCH_DIRECT_JUMP: 1.2894
BRANCH_INDIRECT: 17.6229
BRANCH_CONDITIONAL: 11.4115
BRANCH_DIRECT_CALL: 2.42672
BRANCH_INDIRECT_CALL: 0.697521
BRANCH_RETURN: 1.71029

Instructions large pages: 0
Instructions small pages: 5597
Large page distribution for instructions: 0%

Data large pages: 0
Data small pages: 4546
Large page distribution for data: 0%

cpu0_L1I TOTAL       ACCESS:   35708234  HIT:   27384429  MISS:    8323805  iACCESS:   35708234  iHIT:   27384429  iMISS:    8323805  dACCESS:          0  dHIT:          0  dMISS:          0  itACCESS:          0  itHIT:          0  itMISS:          0  dtACCESS:          0  dtHIT:          0  dtMISS:          0
cpu0_L1I LOAD         ACCESS:   10280047  HIT:    7998114  MISS:    2281933  iACCESS:   10280047  iHIT:    7998114  iMISS:    2281933  dACCESS:          0  dHIT:          0  dMISS:          0  itACCESS:          0  itHIT:          0  itMISS:          0  dtACCESS:          0  dtHIT:          0  dtMISS:          0
cpu0_L1I RFO          ACCESS:          0  HIT:          0  MISS:          0  iACCESS:          0  iHIT:          0  iMISS:          0  dACCESS:          0  dHIT:          0  dMISS:          0  itACCESS:          0  itHIT:          0  itMISS:          0  dtACCESS:          0  dtHIT:          0  dtMISS:          0
cpu0_L1I PREFETCH     ACCESS:   25428187  HIT:   19386315  MISS:    6041872  iACCESS:   25428187  iHIT:   19386315  iMISS:    6041872  dACCESS:          0  dHIT:          0  dMISS:          0  itACCESS:          0  itHIT:          0  itMISS:          0  dtACCESS:          0  dtHIT:          0  dtMISS:          0
cpu0_L1I WRITE        ACCESS:          0  HIT:          0  MISS:          0  iACCESS:          0  iHIT:          0  iMISS:          0  dACCESS:          0  dHIT:          0  dMISS:          0  itACCESS:          0  itHIT:          0  itMISS:          0  dtACCESS:          0  dtHIT:          0  dtMISS:          0
cpu0_L1I TRANSLATION  ACCESS:          0  HIT:          0  MISS:          0  iACCESS:          0  iHIT:          0  iMISS:          0  dACCESS:          0  dHIT:          0  dMISS:          0  itACCESS:          0  itHIT:          0  itMISS:          0  dtACCESS:          0  dtHIT:          0  dtMISS:          0
cpu0_L1I PREFETCH  REQUESTED:   27625961  ISSUED:   27624148  CROSSED:          0  USEFUL:    1971164  USELESS:     657797
cpu0_L1I AVERAGE iMISS LATENCY: 17.9435 cycles
cpu0_L1I AVERAGE dMISS LATENCY: 0 cycles
cpu0_L1I AVERAGE itMISS LATENCY: 0 cycles
cpu0_L1I AVERAGE dtMISS LATENCY: 0 cycles
cpu0_L1I PAGE CROSSINGS (TLB HIT):         0 
cpu0_L1I PAGE CROSSINGS (TLB MISS):         0 
cpu0_L1I AVERAGE MISS LATENCY: 17.9435 cycles
cpu0_ITLB TOTAL       ACCESS:   29891172  HIT:   27942647  MISS:    1948525  iACCESS:   29891172  iHIT:   27942647  iMISS:    1948525  dACCESS:          0  dHIT:          0  dMISS:          0  itACCESS:          0  itHIT:          0  itMISS:          0  dtACCESS:          0  dtHIT:          0  dtMISS:          0
cpu0_ITLB LOAD         ACCESS:   29891172  HIT:   27942647  MISS:    1948525  iACCESS:   29891172  iHIT:   27942647  iMISS:    1948525  dACCESS:          0  dHIT:          0  dMISS:          0  itACCESS:          0  itHIT:          0  itMISS:          0  dtACCESS:          0  dtHIT:          0  dtMISS:          0
cpu0_ITLB RFO          ACCESS:          0  HIT:          0  MISS:          0  iACCESS:          0  iHIT:          0  iMISS:          0  dACCESS:          0  dHIT:          0  dMISS:          0  itACCESS:          0  itHIT:          0  itMISS:          0  dtACCESS:          0  dtHIT:          0  dtMISS:          0
cpu0_ITLB PREFETCH     ACCESS:          0  HIT:          0  MISS:          0  iACCESS:          0  iHIT:          0  iMISS:          0  dACCESS:          0  dHIT:          0  dMISS:          0  itACCESS:          0  itHIT:          0  itMISS:          0  dtACCESS:          0  dtHIT:          0  dtMISS:          0
cpu0_ITLB WRITE        ACCESS:          0  HIT:          0  MISS:          0  iACCESS:          0  iHIT:          0  iMISS:          0  dACCESS:          0  dHIT:          0  dMISS:          0  itACCESS:          0  itHIT:          0  itMISS:          0  dtACCESS:          0  dtHIT:          0  dtMISS:          0
cpu0_ITLB TRANSLATION  ACCESS:          0  HIT:          0  MISS:          0  iACCESS:          0  iHIT:          0  iMISS:          0  dACCESS:          0  dHIT:          0  dMISS:          0  itACCESS:          0  itHIT:          0  itMISS:          0  dtACCESS:          0  dtHIT:          0  dtMISS:          0
cpu0_ITLB PREFETCH  REQUESTED:          0  ISSUED:          0  CROSSED:          0  USEFUL:     330746  USELESS:      62003
cpu0_ITLB AVERAGE iMISS LATENCY: 2.52209 cycles
cpu0_ITLB AVERAGE dMISS LATENCY: 0 cycles
cpu0_ITLB AVERAGE itMISS LATENCY: 0 cycles
cpu0_ITLB AVERAGE dtMISS LATENCY: 0 cycles
cpu0_ITLB PAGE CROSSINGS (TLB HIT):         0 
cpu0_ITLB PAGE CROSSINGS (TLB MISS):         0 
cpu0_ITLB AVERAGE MISS LATENCY: 2.52209 cycles
cpu0_DTLB TOTAL       ACCESS:   28008239  HIT:   26074684  MISS:    1933555  iACCESS:          0  iHIT:          0  iMISS:          0  dACCESS:   28008239  dHIT:   26074684  dMISS:    1933555  itACCESS:          0  itHIT:          0  itMISS:          0  dtACCESS:          0  dtHIT:          0  dtMISS:          0
cpu0_DTLB LOAD         ACCESS:   28008239  HIT:   26074684  MISS:    1933555  iACCESS:          0  iHIT:          0  iMISS:          0  dACCESS:   28008239  dHIT:   26074684  dMISS:    1933555  itACCESS:          0  itHIT:          0  itMISS:          0  dtACCESS:          0  dtHIT:          0  dtMISS:          0
cpu0_DTLB RFO          ACCESS:          0  HIT:          0  MISS:          0  iACCESS:          0  iHIT:          0  iMISS:          0  dACCESS:          0  dHIT:          0  dMISS:          0  itACCESS:          0  itHIT:          0  itMISS:          0  dtACCESS:          0  dtHIT:          0  dtMISS:          0
cpu0_DTLB PREFETCH     ACCESS:          0  HIT:          0  MISS:          0  iACCESS:          0  iHIT:          0  iMISS:          0  dACCESS:          0  dHIT:          0  dMISS:          0  itACCESS:          0  itHIT:          0  itMISS:          0  dtACCESS:          0  dtHIT:          0  dtMISS:          0
cpu0_DTLB WRITE        ACCESS:          0  HIT:          0  MISS:          0  iACCESS:          0  iHIT:          0  iMISS:          0  dACCESS:          0  dHIT:          0  dMISS:          0  itACCESS:          0  itHIT:          0  itMISS:          0  dtACCESS:          0  dtHIT:          0  dtMISS:          0
cpu0_DTLB TRANSLATION  ACCESS:          0  HIT:          0  MISS:          0  iACCESS:          0  iHIT:          0  iMISS:          0  dACCESS:          0  dHIT:          0  dMISS:          0  itACCESS:          0  itHIT:          0  itMISS:          0  dtACCESS:          0  dtHIT:          0  dtMISS:          0
cpu0_DTLB PREFETCH  REQUESTED:          0  ISSUED:          0  CROSSED:          0  USEFUL:          0  USELESS:          0
cpu0_DTLB AVERAGE iMISS LATENCY: 0 cycles
cpu0_DTLB AVERAGE dMISS LATENCY: 13.3941 cycles
cpu0_DTLB AVERAGE itMISS LATENCY: 0 cycles
cpu0_DTLB AVERAGE dtMISS LATENCY: 0 cycles
cpu0_DTLB PAGE CROSSINGS (TLB HIT):         0 
cpu0_DTLB PAGE CROSSINGS (TLB MISS):         0 
cpu0_DTLB AVERAGE MISS LATENCY: 13.3941 cycles
cpu0_STLB TOTAL       ACCESS:    1604046  HIT:    1399352  MISS:     204694  iACCESS:     392753  iHIT:     371688  iMISS:      21065  dACCESS:    1211293  dHIT:    1027664  dMISS:     183629  itACCESS:          0  itHIT:          0  itMISS:          0  dtACCESS:          0  dtHIT:          0  dtMISS:          0
cpu0_STLB LOAD         ACCESS:    1604046  HIT:    1399352  MISS:     204694  iACCESS:     392753  iHIT:     371688  iMISS:      21065  dACCESS:    1211293  dHIT:    1027664  dMISS:     183629  itACCESS:          0  itHIT:          0  itMISS:          0  dtACCESS:          0  dtHIT:          0  dtMISS:          0
cpu0_STLB RFO          ACCESS:          0  HIT:          0  MISS:          0  iACCESS:          0  iHIT:          0  iMISS:          0  dACCESS:          0  dHIT:          0  dMISS:          0  itACCESS:          0  itHIT:          0  itMISS:          0  dtACCESS:          0  dtHIT:          0  dtMISS:          0
cpu0_STLB PREFETCH     ACCESS:          0  HIT:          0  MISS:          0  iACCESS:          0  iHIT:          0  iMISS:          0  dACCESS:          0  dHIT:          0  dMISS:          0  itACCESS:          0  itHIT:          0  itMISS:          0  dtACCESS:          0  dtHIT:          0  dtMISS:          0
cpu0_STLB WRITE        ACCESS:          0  HIT:          0  MISS:          0  iACCESS:          0  iHIT:          0  iMISS:          0  dACCESS:          0  dHIT:          0  dMISS:          0  itACCESS:          0  itHIT:          0  itMISS:          0  dtACCESS:          0  dtHIT:          0  dtMISS:          0
cpu0_STLB TRANSLATION  ACCESS:          0  HIT:          0  MISS:          0  iACCESS:          0  iHIT:          0  iMISS:          0  dACCESS:          0  dHIT:          0  dMISS:          0  itACCESS:          0  itHIT:          0  itMISS:          0  dtACCESS:          0  dtHIT:          0  dtMISS:          0
cpu0_STLB PREFETCH  REQUESTED:          0  ISSUED:          0  CROSSED:          0  USEFUL:          0  USELESS:          0
cpu0_STLB AVERAGE iMISS LATENCY: 9.05821 cycles
cpu0_STLB AVERAGE dMISS LATENCY: 79.0521 cycles
cpu0_STLB AVERAGE itMISS LATENCY: 0 cycles
cpu0_STLB AVERAGE dtMISS LATENCY: 0 cycles
cpu0_STLB PAGE CROSSINGS (TLB HIT):         0 
cpu0_STLB PAGE CROSSINGS (TLB MISS):         0 
cpu0_STLB AVERAGE MISS LATENCY: 88.1103 cycles
cpu0_L1D TOTAL       ACCESS:   42530559  HIT:   38471890  MISS:    4058669  iACCESS:          0  iHIT:          0  iMISS:          0  dACCESS:   42254639  dHIT:   38454582  dMISS:    3800057  itACCESS:      24025  itHIT:       2041  itMISS:      21984  dtACCESS:     251895  dtHIT:      15267  dtMISS:     236628
cpu0_L1D LOAD         ACCESS:   19346005  HIT:   17614776  MISS:    1731229  iACCESS:          0  iHIT:          0  iMISS:          0  dACCESS:   19346005  dHIT:   17614776  dMISS:    1731229  itACCESS:          0  itHIT:          0  itMISS:          0  dtACCESS:          0  dtHIT:          0  dtMISS:          0
cpu0_L1D RFO          ACCESS:          0  HIT:          0  MISS:          0  iACCESS:          0  iHIT:          0  iMISS:          0  dACCESS:          0  dHIT:          0  dMISS:          0  itACCESS:          0  itHIT:          0  itMISS:          0  dtACCESS:          0  dtHIT:          0  dtMISS:          0
cpu0_L1D PREFETCH     ACCESS:   12729434  HIT:   11121710  MISS:    1607724  iACCESS:          0  iHIT:          0  iMISS:          0  dACCESS:   12729434  dHIT:   11121710  dMISS:    1607724  itACCESS:          0  itHIT:          0  itMISS:          0  dtACCESS:          0  dtHIT:          0  dtMISS:          0
cpu0_L1D WRITE        ACCESS:   10179200  HIT:    9718096  MISS:     461104  iACCESS:          0  iHIT:          0  iMISS:          0  dACCESS:   10179200  dHIT:    9718096  dMISS:     461104  itACCESS:          0  itHIT:          0  itMISS:          0  dtACCESS:          0  dtHIT:          0  dtMISS:          0
cpu0_L1D TRANSLATION  ACCESS:     275920  HIT:      17308  MISS:     258612  iACCESS:          0  iHIT:          0  iMISS:          0  dACCESS:          0  dHIT:          0  dMISS:          0  itACCESS:      24025  itHIT:       2041  itMISS:      21984  dtACCESS:     251895  dtHIT:      15267  dtMISS:     236628
cpu0_L1D PREFETCH  REQUESTED:   19346005  ISSUED:   17284901  CROSSED:          0  USEFUL:     308468  USELESS:     698798
cpu0_L1D AVERAGE iMISS LATENCY: 0 cycles
cpu0_L1D AVERAGE dMISS LATENCY: 38.246 cycles
cpu0_L1D AVERAGE itMISS LATENCY: 0.405878 cycles
cpu0_L1D AVERAGE dtMISS LATENCY: 3.41606 cycles
cpu0_L1D PAGE CROSSINGS (TLB HIT):         0 
cpu0_L1D PAGE CROSSINGS (TLB MISS):         0 
cpu0_L1D AVERAGE MISS LATENCY: 42.0679 cycles
cpu0_L2C TOTAL       ACCESS:    7223577  HIT:    1678835  MISS:    5544742  iACCESS:    3361921  iHIT:     868082  iMISS:    2493839  dACCESS:    3608444  dHIT:     669297  dMISS:    2939147  itACCESS:      21984  itHIT:      12012  itMISS:       9972  dtACCESS:     231228  dtHIT:     129444  dtMISS:     101784
cpu0_L2C LOAD         ACCESS:    1712192  HIT:     275894  MISS:    1436298  iACCESS:     770348  iHIT:     139939  iMISS:     630409  dACCESS:     941844  dHIT:     135955  dMISS:     805889  itACCESS:          0  itHIT:          0  itMISS:          0  dtACCESS:          0  dtHIT:          0  dtMISS:          0
cpu0_L2C RFO          ACCESS:     164530  HIT:      43892  MISS:     120638  iACCESS:          0  iHIT:          0  iMISS:          0  dACCESS:     164530  dHIT:      43892  dMISS:     120638  itACCESS:          0  itHIT:          0  itMISS:          0  dtACCESS:          0  dtHIT:          0  dtMISS:          0
cpu0_L2C PREFETCH     ACCESS:    4821346  HIT:    1091247  MISS:    3730099  iACCESS:    2591573  iHIT:     728143  iMISS:    1863430  dACCESS:    2229773  dHIT:     363104  dMISS:    1866669  itACCESS:          0  itHIT:          0  itMISS:          0  dtACCESS:          0  dtHIT:          0  dtMISS:          0
cpu0_L2C WRITE        ACCESS:     272297  HIT:     126346  MISS:     145951  iACCESS:          0  iHIT:          0  iMISS:          0  dACCESS:     272297  dHIT:     126346  dMISS:     145951  itACCESS:          0  itHIT:          0  itMISS:          0  dtACCESS:          0  dtHIT:          0  dtMISS:          0
cpu0_L2C TRANSLATION  ACCESS:     253212  HIT:     141456  MISS:     111756  iACCESS:          0  iHIT:          0  iMISS:          0  dACCESS:          0  dHIT:          0  dMISS:          0  itACCESS:      21984  itHIT:      12012  itMISS:       9972  dtACCESS:     231228  dtHIT:     129444  dtMISS:     101784
cpu0_L2C PREFETCH  REQUESTED:    1476420  ISSUED:    1476420  CROSSED:          0  USEFUL:     402830  USELESS:     427219
cpu0_L2C AVERAGE iMISS LATENCY: 21.4833 cycles
cpu0_L2C AVERAGE dMISS LATENCY: 35.137 cycles
cpu0_L2C AVERAGE itMISS LATENCY: 0.259488 cycles
cpu0_L2C AVERAGE dtMISS LATENCY: 2.10524 cycles
cpu0_L2C PAGE CROSSINGS (TLB HIT):         0 
cpu0_L2C PAGE CROSSINGS (TLB MISS):         0 
cpu0_L2C AVERAGE MISS LATENCY: 58.985 cycles
LLC TOTAL       ACCESS:    5372761  HIT:    3920336  MISS:    1452425  iACCESS:    2422049  iHIT:    1922538  iMISS:     499511  dACCESS:    2838956  dHIT:    1946572  dMISS:     892384  itACCESS:       9972  itHIT:       2859  itMISS:       7113  dtACCESS:     101784  dtHIT:      48367  dtMISS:      53417
LLC LOAD         ACCESS:    1430045  HIT:    1108647  MISS:     321398  iACCESS:     628641  iHIT:     524983  iMISS:     103658  dACCESS:     801404  dHIT:     583664  dMISS:     217740  itACCESS:          0  itHIT:          0  itMISS:          0  dtACCESS:          0  dtHIT:          0  dtMISS:          0
LLC RFO          ACCESS:     120630  HIT:      65964  MISS:      54666  iACCESS:          0  iHIT:          0  iMISS:          0  dACCESS:     120630  dHIT:      65964  dMISS:      54666  itACCESS:          0  itHIT:          0  itMISS:          0  dtACCESS:          0  dtHIT:          0  dtMISS:          0
LLC PREFETCH     ACCESS:    3566877  HIT:    2561692  MISS:    1005185  iACCESS:    1793408  iHIT:    1397555  iMISS:     395853  dACCESS:    1773469  dHIT:    1164137  dMISS:     609332  itACCESS:          0  itHIT:          0  itMISS:          0  dtACCESS:          0  dtHIT:          0  dtMISS:          0
LLC WRITE        ACCESS:     143453  HIT:     132807  MISS:      10646  iACCESS:          0  iHIT:          0  iMISS:          0  dACCESS:     143453  dHIT:     132807  dMISS:      10646  itACCESS:          0  itHIT:          0  itMISS:          0  dtACCESS:          0  dtHIT:          0  dtMISS:          0
LLC TRANSLATION  ACCESS:     111756  HIT:      51226  MISS:      60530  iACCESS:          0  iHIT:          0  iMISS:          0  dACCESS:          0  dHIT:          0  dMISS:          0  itACCESS:       9972  itHIT:       2859  itMISS:       7113  dtACCESS:     101784  dtHIT:      48367  dtMISS:      53417
LLC PREFETCH  REQUESTED:          0  ISSUED:          0  CROSSED:          0  USEFUL:          0  USELESS:          0
LLC AVERAGE iMISS LATENCY: 49.7334 cycles
LLC AVERAGE dMISS LATENCY: 99.0976 cycles
LLC AVERAGE itMISS LATENCY: 0.855676 cycles
LLC AVERAGE dtMISS LATENCY: 6.66986 cycles
LLC PAGE CROSSINGS (TLB HIT):         0 
LLC PAGE CROSSINGS (TLB MISS):         0 
LLC AVERAGE MISS LATENCY: 156.357 cycles

PageTableWalker TOTAL       ACCESS:      98503  
PageTableWalker AVERAGE LATENCY: 4.55885 cycles
PageTableWalker TOTAL LATENCY: 449060 cycles

DRAM Statistics
Channel 0
 RQ ROW_BUFFER_HIT:     440920
  ROW_BUFFER_MISS:     989828
 AVG DBUS CONGESTED CYCLE:    3.62999
 WQ ROW_BUFFER_HIT:      27494
  ROW_BUFFER_MISS:      23515  FULL:          0

