last_page:0x200000000000000
VMEM_RES_CAP:0x100000
PAGE_SIZE:4096
LOG2_PAGE_SIZE:12
LOG2_PAGE_TABLE_SIZE:9
page_table_levels:5
WARNING: physical memory size is smaller than virtual memory size
FDiP enabled with aggresivity 16

*** ChampSim Multicore Out-of-Order Simulator ***

Warmup Instructions: 50000000
Simulation Instructions: 100000000
Number of CPUs: 1
Small page size: 4096
Large page size: 2097152

CPU 0 Bimodal branch predictor
Basic BTB sets: 1024 ways: 8 indirect buffer size: 4096 RAS size: 64
Instruction page size distrubution: 0
Loading instruction page size distribution from /home/bsc/bsc018186/scratch/itp_asplos25_AE/dump/srv222_ap.pdst
Data page size distrubution: 0
Loading data page size distribution from /home/bsc/bsc018186/scratch/itp_asplos25_AE/dump/srv222_ap.pdst
cpu0_L2C IP-based stride prefetcher
cpu0_L2C is using PTP replacement policy:
	TLB_STRESS_THRESHOLD:0
	PTE_EVICTION_RATIO:0
cpu0_L1D next line prefetcher
cpu0_STLB using iTP with max lru@8
cpu0_STLB using iTP with instr@0 and data@2
Init sat counter with 3 bits (max:50).
cpu0_L1I next line prefetcher
Off-chip DRAM Size: 4 GiB Channels: 1 Width: 64-bit Data Rate: 3200 MT/s
Heartbeat CPU 0 instructions: 10000000 cycles: 2500258 heartbeat IPC: 3.99959 cumulative IPC: 3.99959 (Simulation time: 0 hr 0 min 36 sec) 
Heartbeat CPU 0 instructions: 20000002 cycles: 5000259 heartbeat IPC: 4 cumulative IPC: 3.9998 (Simulation time: 0 hr 1 min 15 sec) 
Heartbeat CPU 0 instructions: 30000002 cycles: 7500418 heartbeat IPC: 3.99975 cumulative IPC: 3.99978 (Simulation time: 0 hr 1 min 55 sec) 
Heartbeat CPU 0 instructions: 40000003 cycles: 10000480 heartbeat IPC: 3.99991 cumulative IPC: 3.99981 (Simulation time: 0 hr 2 min 35 sec) 
Heartbeat CPU 0 instructions: 50000000 cycles: 12500486 heartbeat IPC: 3.99999 cumulative IPC: 3.99985 (Simulation time: 0 hr 3 min 18 sec) 
Warmup finished CPU 0 instructions: 50000000 cycles: 12500487 cumulative IPC: 3.99985 (Simulation time: 0 hr 3 min 18 sec) 

Warmup complete CPU 0 instructions: 50000000 cycles: 12500487 (Simulation time: 0 hr 3 min 18 sec) 

Heartbeat CPU 0 instructions: 60000000 cycles: 31168301 heartbeat IPC: 0.535682 cumulative IPC: 0.535682 (Simulation time: 0 hr 4 min 33 sec) 
Heartbeat CPU 0 instructions: 70000004 cycles: 49978376 heartbeat IPC: 0.531631 cumulative IPC: 0.533649 (Simulation time: 0 hr 5 min 48 sec) 
Heartbeat CPU 0 instructions: 80000000 cycles: 68361352 heartbeat IPC: 0.543982 cumulative IPC: 0.537049 (Simulation time: 0 hr 7 min 2 sec) 
Heartbeat CPU 0 instructions: 90000000 cycles: 88163708 heartbeat IPC: 0.504991 cumulative IPC: 0.528659 (Simulation time: 0 hr 8 min 19 sec) 
Heartbeat CPU 0 instructions: 100000000 cycles: 107432324 heartbeat IPC: 0.518979 cumulative IPC: 0.526694 (Simulation time: 0 hr 9 min 34 sec) 
*** Reached end of trace: /gpfs/projects/bsc18/MN4/bsc18/romol/ChampSim/traces/qualcomm_srv/srv222_ap.champsimtrace.xz
Heartbeat CPU 0 instructions: 110000000 cycles: 126197733 heartbeat IPC: 0.532896 cumulative IPC: 0.527718 (Simulation time: 0 hr 10 min 43 sec) 
Heartbeat CPU 0 instructions: 120000003 cycles: 145993015 heartbeat IPC: 0.505172 cumulative IPC: 0.524374 (Simulation time: 0 hr 11 min 57 sec) 
Heartbeat CPU 0 instructions: 130000001 cycles: 166098522 heartbeat IPC: 0.497377 cumulative IPC: 0.520841 (Simulation time: 0 hr 13 min 12 sec) 
Heartbeat CPU 0 instructions: 140000001 cycles: 185352994 heartbeat IPC: 0.51936 cumulative IPC: 0.520676 (Simulation time: 0 hr 14 min 26 sec) 
Heartbeat CPU 0 instructions: 150000000 cycles: 205234243 heartbeat IPC: 0.502987 cumulative IPC: 0.518851 (Simulation time: 0 hr 15 min 41 sec) 
Simulation finished CPU 0 instructions: 100000000 cycles: 192733757 cumulative IPC: 0.518851 (Simulation time: 0 hr 15 min 41 sec) 

Simulation complete CPU 0 instructions: 100000000 cycles: 192733757 (Simulation time: 0 hr 15 min 41 sec) 


ChampSim completed all CPUs

Saving instructions large page distribution to /home/bsc/bsc018186/scratch/itp_asplos25_AE/dump/srv222_ap.pdst...
Saving data large page distribution to /home/bsc/bsc018186/scratch/itp_asplos25_AE/dump/srv222_ap.pdst...
=== Simulation ===
CPU 0 runs /gpfs/projects/bsc18/MN4/bsc18/romol/ChampSim/traces/qualcomm_srv/srv222_ap.champsimtrace.xz

Region of Interest Statistics

CPU 0 cumulative IPC: 0.518851 instructions: 100000000 cycles: 192733757
CPU 0 Branch Prediction Accuracy: 80.1337% MPKI: 35.8772 Average ROB Occupancy at Mispredict: 10.5011
Branch type MPKI
BRANCH_DIRECT_JUMP: 1.3483
BRANCH_INDIRECT: 17.9544
BRANCH_CONDITIONAL: 11.6357
BRANCH_DIRECT_CALL: 2.54635
BRANCH_INDIRECT_CALL: 0.662411
BRANCH_RETURN: 1.73015

Instructions large pages: 0
Instructions small pages: 1201
Large page distribution for instructions: 0%

Data large pages: 0
Data small pages: 5008
Large page distribution for data: 0%

cpu0_L1I TOTAL       ACCESS:   36332986  HIT:   28028352  MISS:    8304634  iACCESS:   36332986  iHIT:   28028352  iMISS:    8304634  dACCESS:          0  dHIT:          0  dMISS:          0  itACCESS:          0  itHIT:          0  itMISS:          0  dtACCESS:          0  dtHIT:          0  dtMISS:          0
cpu0_L1I LOAD         ACCESS:   10625813  HIT:    8351590  MISS:    2274223  iACCESS:   10625813  iHIT:    8351590  iMISS:    2274223  dACCESS:          0  dHIT:          0  dMISS:          0  itACCESS:          0  itHIT:          0  itMISS:          0  dtACCESS:          0  dtHIT:          0  dtMISS:          0
cpu0_L1I RFO          ACCESS:          0  HIT:          0  MISS:          0  iACCESS:          0  iHIT:          0  iMISS:          0  dACCESS:          0  dHIT:          0  dMISS:          0  itACCESS:          0  itHIT:          0  itMISS:          0  dtACCESS:          0  dtHIT:          0  dtMISS:          0
cpu0_L1I PREFETCH     ACCESS:   25707173  HIT:   19676762  MISS:    6030411  iACCESS:   25707173  iHIT:   19676762  iMISS:    6030411  dACCESS:          0  dHIT:          0  dMISS:          0  itACCESS:          0  itHIT:          0  itMISS:          0  dtACCESS:          0  dtHIT:          0  dtMISS:          0
cpu0_L1I WRITE        ACCESS:          0  HIT:          0  MISS:          0  iACCESS:          0  iHIT:          0  iMISS:          0  dACCESS:          0  dHIT:          0  dMISS:          0  itACCESS:          0  itHIT:          0  itMISS:          0  dtACCESS:          0  dtHIT:          0  dtMISS:          0
cpu0_L1I TRANSLATION  ACCESS:          0  HIT:          0  MISS:          0  iACCESS:          0  iHIT:          0  iMISS:          0  dACCESS:          0  dHIT:          0  dMISS:          0  itACCESS:          0  itHIT:          0  itMISS:          0  dtACCESS:          0  dtHIT:          0  dtMISS:          0
cpu0_L1I PREFETCH  REQUESTED:   28133710  ISSUED:   28133228  CROSSED:          0  USEFUL:    2016554  USELESS:     651844
cpu0_L1I AVERAGE iMISS LATENCY: 19.2377 cycles
cpu0_L1I AVERAGE dMISS LATENCY: 0 cycles
cpu0_L1I AVERAGE itMISS LATENCY: 0 cycles
cpu0_L1I AVERAGE dtMISS LATENCY: 0 cycles
cpu0_L1I PAGE CROSSINGS (TLB HIT):         0 
cpu0_L1I PAGE CROSSINGS (TLB MISS):         0 
cpu0_L1I AVERAGE MISS LATENCY: 19.2377 cycles
cpu0_ITLB TOTAL       ACCESS:   30348455  HIT:   28425096  MISS:    1923359  iACCESS:   30348455  iHIT:   28425096  iMISS:    1923359  dACCESS:          0  dHIT:          0  dMISS:          0  itACCESS:          0  itHIT:          0  itMISS:          0  dtACCESS:          0  dtHIT:          0  dtMISS:          0
cpu0_ITLB LOAD         ACCESS:   30348455  HIT:   28425096  MISS:    1923359  iACCESS:   30348455  iHIT:   28425096  iMISS:    1923359  dACCESS:          0  dHIT:          0  dMISS:          0  itACCESS:          0  itHIT:          0  itMISS:          0  dtACCESS:          0  dtHIT:          0  dtMISS:          0
cpu0_ITLB RFO          ACCESS:          0  HIT:          0  MISS:          0  iACCESS:          0  iHIT:          0  iMISS:          0  dACCESS:          0  dHIT:          0  dMISS:          0  itACCESS:          0  itHIT:          0  itMISS:          0  dtACCESS:          0  dtHIT:          0  dtMISS:          0
cpu0_ITLB PREFETCH     ACCESS:          0  HIT:          0  MISS:          0  iACCESS:          0  iHIT:          0  iMISS:          0  dACCESS:          0  dHIT:          0  dMISS:          0  itACCESS:          0  itHIT:          0  itMISS:          0  dtACCESS:          0  dtHIT:          0  dtMISS:          0
cpu0_ITLB WRITE        ACCESS:          0  HIT:          0  MISS:          0  iACCESS:          0  iHIT:          0  iMISS:          0  dACCESS:          0  dHIT:          0  dMISS:          0  itACCESS:          0  itHIT:          0  itMISS:          0  dtACCESS:          0  dtHIT:          0  dtMISS:          0
cpu0_ITLB TRANSLATION  ACCESS:          0  HIT:          0  MISS:          0  iACCESS:          0  iHIT:          0  iMISS:          0  dACCESS:          0  dHIT:          0  dMISS:          0  itACCESS:          0  itHIT:          0  itMISS:          0  dtACCESS:          0  dtHIT:          0  dtMISS:          0
cpu0_ITLB PREFETCH  REQUESTED:          0  ISSUED:          0  CROSSED:          0  USEFUL:     328876  USELESS:      64915
cpu0_ITLB AVERAGE iMISS LATENCY: 3.50637 cycles
cpu0_ITLB AVERAGE dMISS LATENCY: 0 cycles
cpu0_ITLB AVERAGE itMISS LATENCY: 0 cycles
cpu0_ITLB AVERAGE dtMISS LATENCY: 0 cycles
cpu0_ITLB PAGE CROSSINGS (TLB HIT):         0 
cpu0_ITLB PAGE CROSSINGS (TLB MISS):         0 
cpu0_ITLB AVERAGE MISS LATENCY: 3.50637 cycles
cpu0_DTLB TOTAL       ACCESS:   27938669  HIT:   25928842  MISS:    2009827  iACCESS:          0  iHIT:          0  iMISS:          0  dACCESS:   27938669  dHIT:   25928842  dMISS:    2009827  itACCESS:          0  itHIT:          0  itMISS:          0  dtACCESS:          0  dtHIT:          0  dtMISS:          0
cpu0_DTLB LOAD         ACCESS:   27938669  HIT:   25928842  MISS:    2009827  iACCESS:          0  iHIT:          0  iMISS:          0  dACCESS:   27938669  dHIT:   25928842  dMISS:    2009827  itACCESS:          0  itHIT:          0  itMISS:          0  dtACCESS:          0  dtHIT:          0  dtMISS:          0
cpu0_DTLB RFO          ACCESS:          0  HIT:          0  MISS:          0  iACCESS:          0  iHIT:          0  iMISS:          0  dACCESS:          0  dHIT:          0  dMISS:          0  itACCESS:          0  itHIT:          0  itMISS:          0  dtACCESS:          0  dtHIT:          0  dtMISS:          0
cpu0_DTLB PREFETCH     ACCESS:          0  HIT:          0  MISS:          0  iACCESS:          0  iHIT:          0  iMISS:          0  dACCESS:          0  dHIT:          0  dMISS:          0  itACCESS:          0  itHIT:          0  itMISS:          0  dtACCESS:          0  dtHIT:          0  dtMISS:          0
cpu0_DTLB WRITE        ACCESS:          0  HIT:          0  MISS:          0  iACCESS:          0  iHIT:          0  iMISS:          0  dACCESS:          0  dHIT:          0  dMISS:          0  itACCESS:          0  itHIT:          0  itMISS:          0  dtACCESS:          0  dtHIT:          0  dtMISS:          0
cpu0_DTLB TRANSLATION  ACCESS:          0  HIT:          0  MISS:          0  iACCESS:          0  iHIT:          0  iMISS:          0  dACCESS:          0  dHIT:          0  dMISS:          0  itACCESS:          0  itHIT:          0  itMISS:          0  dtACCESS:          0  dtHIT:          0  dtMISS:          0
cpu0_DTLB PREFETCH  REQUESTED:          0  ISSUED:          0  CROSSED:          0  USEFUL:          0  USELESS:          0
cpu0_DTLB AVERAGE iMISS LATENCY: 0 cycles
cpu0_DTLB AVERAGE dMISS LATENCY: 16.1304 cycles
cpu0_DTLB AVERAGE itMISS LATENCY: 0 cycles
cpu0_DTLB AVERAGE dtMISS LATENCY: 0 cycles
cpu0_DTLB PAGE CROSSINGS (TLB HIT):         0 
cpu0_DTLB PAGE CROSSINGS (TLB MISS):         0 
cpu0_DTLB AVERAGE MISS LATENCY: 16.1304 cycles
cpu0_STLB TOTAL       ACCESS:    1610554  HIT:    1400632  MISS:     209922  iACCESS:     393804  iHIT:     365692  iMISS:      28112  dACCESS:    1216750  dHIT:    1034940  dMISS:     181810  itACCESS:          0  itHIT:          0  itMISS:          0  dtACCESS:          0  dtHIT:          0  dtMISS:          0
cpu0_STLB LOAD         ACCESS:    1610554  HIT:    1400632  MISS:     209922  iACCESS:     393804  iHIT:     365692  iMISS:      28112  dACCESS:    1216750  dHIT:    1034940  dMISS:     181810  itACCESS:          0  itHIT:          0  itMISS:          0  dtACCESS:          0  dtHIT:          0  dtMISS:          0
cpu0_STLB RFO          ACCESS:          0  HIT:          0  MISS:          0  iACCESS:          0  iHIT:          0  iMISS:          0  dACCESS:          0  dHIT:          0  dMISS:          0  itACCESS:          0  itHIT:          0  itMISS:          0  dtACCESS:          0  dtHIT:          0  dtMISS:          0
cpu0_STLB PREFETCH     ACCESS:          0  HIT:          0  MISS:          0  iACCESS:          0  iHIT:          0  iMISS:          0  dACCESS:          0  dHIT:          0  dMISS:          0  itACCESS:          0  itHIT:          0  itMISS:          0  dtACCESS:          0  dtHIT:          0  dtMISS:          0
cpu0_STLB WRITE        ACCESS:          0  HIT:          0  MISS:          0  iACCESS:          0  iHIT:          0  iMISS:          0  dACCESS:          0  dHIT:          0  dMISS:          0  itACCESS:          0  itHIT:          0  itMISS:          0  dtACCESS:          0  dtHIT:          0  dtMISS:          0
cpu0_STLB TRANSLATION  ACCESS:          0  HIT:          0  MISS:          0  iACCESS:          0  iHIT:          0  iMISS:          0  dACCESS:          0  dHIT:          0  dMISS:          0  itACCESS:          0  itHIT:          0  itMISS:          0  dtACCESS:          0  dtHIT:          0  dtMISS:          0
cpu0_STLB PREFETCH  REQUESTED:          0  ISSUED:          0  CROSSED:          0  USEFUL:          0  USELESS:          0
cpu0_STLB AVERAGE iMISS LATENCY: 17.4913 cycles
cpu0_STLB AVERAGE dMISS LATENCY: 107.935 cycles
cpu0_STLB AVERAGE itMISS LATENCY: 0 cycles
cpu0_STLB AVERAGE dtMISS LATENCY: 0 cycles
cpu0_STLB PAGE CROSSINGS (TLB HIT):         0 
cpu0_STLB PAGE CROSSINGS (TLB MISS):         0 
cpu0_STLB AVERAGE MISS LATENCY: 125.427 cycles
cpu0_L1D TOTAL       ACCESS:   42703989  HIT:   38533242  MISS:    4170747  iACCESS:          0  iHIT:          0  iMISS:          0  dACCESS:   42419411  dHIT:   38516135  dMISS:    3903276  itACCESS:      31818  itHIT:       2748  itMISS:      29070  dtACCESS:     252760  dtHIT:      14359  dtMISS:     238401
cpu0_L1D LOAD         ACCESS:   19401708  HIT:   17622704  MISS:    1779004  iACCESS:          0  iHIT:          0  iMISS:          0  dACCESS:   19401708  dHIT:   17622704  dMISS:    1779004  itACCESS:          0  itHIT:          0  itMISS:          0  dtACCESS:          0  dtHIT:          0  dtMISS:          0
cpu0_L1D RFO          ACCESS:          0  HIT:          0  MISS:          0  iACCESS:          0  iHIT:          0  iMISS:          0  dACCESS:          0  dHIT:          0  dMISS:          0  itACCESS:          0  itHIT:          0  itMISS:          0  dtACCESS:          0  dtHIT:          0  dtMISS:          0
cpu0_L1D PREFETCH     ACCESS:   12901373  HIT:   11219618  MISS:    1681755  iACCESS:          0  iHIT:          0  iMISS:          0  dACCESS:   12901373  dHIT:   11219618  dMISS:    1681755  itACCESS:          0  itHIT:          0  itMISS:          0  dtACCESS:          0  dtHIT:          0  dtMISS:          0
cpu0_L1D WRITE        ACCESS:   10116330  HIT:    9673813  MISS:     442517  iACCESS:          0  iHIT:          0  iMISS:          0  dACCESS:   10116330  dHIT:    9673813  dMISS:     442517  itACCESS:          0  itHIT:          0  itMISS:          0  dtACCESS:          0  dtHIT:          0  dtMISS:          0
cpu0_L1D TRANSLATION  ACCESS:     284578  HIT:      17107  MISS:     267471  iACCESS:          0  iHIT:          0  iMISS:          0  dACCESS:          0  dHIT:          0  dMISS:          0  itACCESS:      31818  itHIT:       2748  itMISS:      29070  dtACCESS:     252760  dtHIT:      14359  dtMISS:     238401
cpu0_L1D PREFETCH  REQUESTED:   19401708  ISSUED:   17359969  CROSSED:          0  USEFUL:     310592  USELESS:     702566
cpu0_L1D AVERAGE iMISS LATENCY: 0 cycles
cpu0_L1D AVERAGE dMISS LATENCY: 40.6241 cycles
cpu0_L1D AVERAGE itMISS LATENCY: 0.813092 cycles
cpu0_L1D AVERAGE dtMISS LATENCY: 4.85826 cycles
cpu0_L1D PAGE CROSSINGS (TLB HIT):         0 
cpu0_L1D PAGE CROSSINGS (TLB MISS):         0 
cpu0_L1D AVERAGE MISS LATENCY: 46.2954 cycles
cpu0_L2C TOTAL       ACCESS:    7317458  HIT:    1989816  MISS:    5327642  iACCESS:    3397598  iHIT:    1082590  iMISS:    2315008  dACCESS:    3659757  dHIT:     780738  dMISS:    2879019  itACCESS:      29070  itHIT:       8766  itMISS:      20304  dtACCESS:     231033  dtHIT:     117722  dtMISS:     113311
cpu0_L2C LOAD         ACCESS:    1713533  HIT:     363013  MISS:    1350520  iACCESS:     766680  iHIT:     203408  iMISS:     563272  dACCESS:     946853  dHIT:     159605  dMISS:     787248  itACCESS:          0  itHIT:          0  itMISS:          0  dtACCESS:          0  dtHIT:          0  dtMISS:          0
cpu0_L2C RFO          ACCESS:     159808  HIT:      24867  MISS:     134941  iACCESS:          0  iHIT:          0  iMISS:          0  dACCESS:     159808  dHIT:      24867  dMISS:     134941  itACCESS:          0  itHIT:          0  itMISS:          0  dtACCESS:          0  dtHIT:          0  dtMISS:          0
cpu0_L2C PREFETCH     ACCESS:    4912638  HIT:    1351813  MISS:    3560825  iACCESS:    2630918  iHIT:     879182  iMISS:    1751736  dACCESS:    2281720  dHIT:     472631  dMISS:    1809089  itACCESS:          0  itHIT:          0  itMISS:          0  dtACCESS:          0  dtHIT:          0  dtMISS:          0
cpu0_L2C WRITE        ACCESS:     271376  HIT:     123635  MISS:     147741  iACCESS:          0  iHIT:          0  iMISS:          0  dACCESS:     271376  dHIT:     123635  dMISS:     147741  itACCESS:          0  itHIT:          0  itMISS:          0  dtACCESS:          0  dtHIT:          0  dtMISS:          0
cpu0_L2C TRANSLATION  ACCESS:     260103  HIT:     126488  MISS:     133615  iACCESS:          0  iHIT:          0  iMISS:          0  dACCESS:          0  dHIT:          0  dMISS:          0  itACCESS:      29070  itHIT:       8766  itMISS:      20304  dtACCESS:     231033  dtHIT:     117722  dtMISS:     113311
cpu0_L2C PREFETCH  REQUESTED:    1539216  ISSUED:    1539216  CROSSED:          0  USEFUL:     430300  USELESS:     402675
cpu0_L2C AVERAGE iMISS LATENCY: 24.2828 cycles
cpu0_L2C AVERAGE dMISS LATENCY: 40.5312 cycles
cpu0_L2C AVERAGE itMISS LATENCY: 0.583441 cycles
cpu0_L2C AVERAGE dtMISS LATENCY: 3.38992 cycles
cpu0_L2C PAGE CROSSINGS (TLB HIT):         0 
cpu0_L2C PAGE CROSSINGS (TLB MISS):         0 
cpu0_L2C AVERAGE MISS LATENCY: 68.7873 cycles
LLC TOTAL       ACCESS:    5204536  HIT:    3510062  MISS:    1694474  iACCESS:    2233999  iHIT:    1653134  iMISS:     580865  dACCESS:    2836922  dHIT:    1824512  dMISS:    1012410  itACCESS:      20304  itHIT:       4845  itMISS:      15459  dtACCESS:     113311  dtHIT:      27571  dtMISS:      85740
LLC LOAD         ACCESS:    1343994  HIT:     966409  MISS:     377585  iACCESS:     561965  iHIT:     439374  iMISS:     122591  dACCESS:     782029  dHIT:     527035  dMISS:     254994  itACCESS:          0  itHIT:          0  itMISS:          0  dtACCESS:          0  dtHIT:          0  dtMISS:          0
LLC RFO          ACCESS:     134915  HIT:      76620  MISS:      58295  iACCESS:          0  iHIT:          0  iMISS:          0  dACCESS:     134915  dHIT:      76620  dMISS:      58295  itACCESS:          0  itHIT:          0  itMISS:          0  dtACCESS:          0  dtHIT:          0  dtMISS:          0
LLC PREFETCH     ACCESS:    3377097  HIT:    2222725  MISS:    1154372  iACCESS:    1672034  iHIT:    1213760  iMISS:     458274  dACCESS:    1705063  dHIT:    1008965  dMISS:     696098  itACCESS:          0  itHIT:          0  itMISS:          0  dtACCESS:          0  dtHIT:          0  dtMISS:          0
LLC WRITE        ACCESS:     214915  HIT:     211892  MISS:       3023  iACCESS:          0  iHIT:          0  iMISS:          0  dACCESS:     214915  dHIT:     211892  dMISS:       3023  itACCESS:          0  itHIT:          0  itMISS:          0  dtACCESS:          0  dtHIT:          0  dtMISS:          0
LLC TRANSLATION  ACCESS:     133615  HIT:      32416  MISS:     101199  iACCESS:          0  iHIT:          0  iMISS:          0  dACCESS:          0  dHIT:          0  dMISS:          0  itACCESS:      20304  itHIT:       4845  itMISS:      15459  dtACCESS:     113311  dtHIT:      27571  dtMISS:      85740
LLC PREFETCH  REQUESTED:          0  ISSUED:          0  CROSSED:          0  USEFUL:          0  USELESS:          0
LLC AVERAGE iMISS LATENCY: 50.7947 cycles
LLC AVERAGE dMISS LATENCY: 98.38 cycles
LLC AVERAGE itMISS LATENCY: 1.59843 cycles
LLC AVERAGE dtMISS LATENCY: 9.34191 cycles
LLC PAGE CROSSINGS (TLB HIT):         0 
LLC PAGE CROSSINGS (TLB MISS):         0 
LLC AVERAGE MISS LATENCY: 160.116 cycles

PageTableWalker TOTAL       ACCESS:      98149  
PageTableWalker AVERAGE LATENCY: 4.10244 cycles
PageTableWalker TOTAL LATENCY: 402650 cycles

DRAM Statistics
Channel 0
 RQ ROW_BUFFER_HIT:     484843
  ROW_BUFFER_MISS:    1190774
 AVG DBUS CONGESTED CYCLE:    3.64242
 WQ ROW_BUFFER_HIT:      39064
  ROW_BUFFER_MISS:      34259  FULL:          0

