last_page:0x200000000000000
VMEM_RES_CAP:0x100000
PAGE_SIZE:4096
LOG2_PAGE_SIZE:12
LOG2_PAGE_TABLE_SIZE:9
page_table_levels:5
WARNING: physical memory size is smaller than virtual memory size
FDiP enabled with aggresivity 16

*** ChampSim Multicore Out-of-Order Simulator ***

Warmup Instructions: 50000000
Simulation Instructions: 100000000
Number of CPUs: 1
Small page size: 4096
Large page size: 2097152

CPU 0 Bimodal branch predictor
Basic BTB sets: 1024 ways: 8 indirect buffer size: 4096 RAS size: 64
Instruction page size distrubution: 0
Loading instruction page size distribution from /home/bsc/bsc018186/scratch/itp_asplos25_AE/dump/srv225_ap.pdst
Data page size distrubution: 0
Loading data page size distribution from /home/bsc/bsc018186/scratch/itp_asplos25_AE/dump/srv225_ap.pdst
cpu0_L2C IP-based stride prefetcher
cpu0_L1D next line prefetcher
cpu0_STLB using iTP with max lru@8
cpu0_STLB using iTP with instr@0 and data@2
Init sat counter with 3 bits (max:50).
cpu0_L1I next line prefetcher
Off-chip DRAM Size: 4 GiB Channels: 1 Width: 64-bit Data Rate: 3200 MT/s
Heartbeat CPU 0 instructions: 10000003 cycles: 2500310 heartbeat IPC: 3.99951 cumulative IPC: 3.99951 (Simulation time: 0 hr 0 min 37 sec) 
Heartbeat CPU 0 instructions: 20000000 cycles: 5000360 heartbeat IPC: 3.99992 cumulative IPC: 3.99972 (Simulation time: 0 hr 1 min 16 sec) 
Heartbeat CPU 0 instructions: 30000000 cycles: 7500361 heartbeat IPC: 4 cumulative IPC: 3.99981 (Simulation time: 0 hr 1 min 56 sec) 
Heartbeat CPU 0 instructions: 40000002 cycles: 10000377 heartbeat IPC: 3.99998 cumulative IPC: 3.99985 (Simulation time: 0 hr 2 min 36 sec) 
Heartbeat CPU 0 instructions: 50000002 cycles: 12500385 heartbeat IPC: 3.99999 cumulative IPC: 3.99988 (Simulation time: 0 hr 3 min 17 sec) 
Warmup finished CPU 0 instructions: 50000002 cycles: 12500386 cumulative IPC: 3.99988 (Simulation time: 0 hr 3 min 17 sec) 

Warmup complete CPU 0 instructions: 50000002 cycles: 12500386 (Simulation time: 0 hr 3 min 17 sec) 

Heartbeat CPU 0 instructions: 60000001 cycles: 30361981 heartbeat IPC: 0.559861 cumulative IPC: 0.559861 (Simulation time: 0 hr 4 min 27 sec) 
Heartbeat CPU 0 instructions: 70000004 cycles: 48765245 heartbeat IPC: 0.543383 cumulative IPC: 0.551499 (Simulation time: 0 hr 5 min 38 sec) 
Heartbeat CPU 0 instructions: 80000000 cycles: 66137712 heartbeat IPC: 0.575624 cumulative IPC: 0.559312 (Simulation time: 0 hr 6 min 48 sec) 
Heartbeat CPU 0 instructions: 90000004 cycles: 84670115 heartbeat IPC: 0.539596 cumulative IPC: 0.55425 (Simulation time: 0 hr 8 min 0 sec) 
Heartbeat CPU 0 instructions: 100000000 cycles: 102132163 heartbeat IPC: 0.572671 cumulative IPC: 0.557838 (Simulation time: 0 hr 9 min 10 sec) 
*** Reached end of trace: /gpfs/projects/bsc18/MN4/bsc18/romol/ChampSim/traces/qualcomm_srv/srv225_ap.champsimtrace.xz
Heartbeat CPU 0 instructions: 110000000 cycles: 119950291 heartbeat IPC: 0.561227 cumulative IPC: 0.5584 (Simulation time: 0 hr 10 min 21 sec) 
Heartbeat CPU 0 instructions: 120000001 cycles: 137795713 heartbeat IPC: 0.560368 cumulative IPC: 0.558681 (Simulation time: 0 hr 11 min 31 sec) 
Heartbeat CPU 0 instructions: 130000002 cycles: 155753733 heartbeat IPC: 0.556855 cumulative IPC: 0.558452 (Simulation time: 0 hr 12 min 42 sec) 
Heartbeat CPU 0 instructions: 140000002 cycles: 174213110 heartbeat IPC: 0.541731 cumulative IPC: 0.556543 (Simulation time: 0 hr 13 min 53 sec) 
Heartbeat CPU 0 instructions: 150000001 cycles: 192446659 heartbeat IPC: 0.54844 cumulative IPC: 0.555722 (Simulation time: 0 hr 15 min 4 sec) 
Simulation finished CPU 0 instructions: 100000004 cycles: 179946275 cumulative IPC: 0.555722 (Simulation time: 0 hr 15 min 4 sec) 

Simulation complete CPU 0 instructions: 100000004 cycles: 179946275 (Simulation time: 0 hr 15 min 4 sec) 


ChampSim completed all CPUs

Saving instructions large page distribution to /home/bsc/bsc018186/scratch/itp_asplos25_AE/dump/srv225_ap.pdst...
Saving data large page distribution to /home/bsc/bsc018186/scratch/itp_asplos25_AE/dump/srv225_ap.pdst...
=== Simulation ===
CPU 0 runs /gpfs/projects/bsc18/MN4/bsc18/romol/ChampSim/traces/qualcomm_srv/srv225_ap.champsimtrace.xz

Region of Interest Statistics

CPU 0 cumulative IPC: 0.555722 instructions: 100000004 cycles: 179946275
CPU 0 Branch Prediction Accuracy: 80.4534% MPKI: 35.261 Average ROB Occupancy at Mispredict: 10.4613
Branch type MPKI
BRANCH_DIRECT_JUMP: 1.29674
BRANCH_INDIRECT: 17.633
BRANCH_CONDITIONAL: 11.494
BRANCH_DIRECT_CALL: 2.43952
BRANCH_INDIRECT_CALL: 0.68899
BRANCH_RETURN: 1.7087

Instructions large pages: 0
Instructions small pages: 5615
Large page distribution for instructions: 0%

Data large pages: 0
Data small pages: 4573
Large page distribution for data: 0%

cpu0_L1I TOTAL       ACCESS:   35632048  HIT:   27357592  MISS:    8274456  iACCESS:   35632048  iHIT:   27357592  iMISS:    8274456  dACCESS:          0  dHIT:          0  dMISS:          0  itACCESS:          0  itHIT:          0  itMISS:          0  dtACCESS:          0  dtHIT:          0  dtMISS:          0
cpu0_L1I LOAD         ACCESS:   10251715  HIT:    7988417  MISS:    2263298  iACCESS:   10251715  iHIT:    7988417  iMISS:    2263298  dACCESS:          0  dHIT:          0  dMISS:          0  itACCESS:          0  itHIT:          0  itMISS:          0  dtACCESS:          0  dtHIT:          0  dtMISS:          0
cpu0_L1I RFO          ACCESS:          0  HIT:          0  MISS:          0  iACCESS:          0  iHIT:          0  iMISS:          0  dACCESS:          0  dHIT:          0  dMISS:          0  itACCESS:          0  itHIT:          0  itMISS:          0  dtACCESS:          0  dtHIT:          0  dtMISS:          0
cpu0_L1I PREFETCH     ACCESS:   25380333  HIT:   19369175  MISS:    6011158  iACCESS:   25380333  iHIT:   19369175  iMISS:    6011158  dACCESS:          0  dHIT:          0  dMISS:          0  itACCESS:          0  itHIT:          0  itMISS:          0  dtACCESS:          0  dtHIT:          0  dtMISS:          0
cpu0_L1I WRITE        ACCESS:          0  HIT:          0  MISS:          0  iACCESS:          0  iHIT:          0  iMISS:          0  dACCESS:          0  dHIT:          0  dMISS:          0  itACCESS:          0  itHIT:          0  itMISS:          0  dtACCESS:          0  dtHIT:          0  dtMISS:          0
cpu0_L1I TRANSLATION  ACCESS:          0  HIT:          0  MISS:          0  iACCESS:          0  iHIT:          0  iMISS:          0  dACCESS:          0  dHIT:          0  dMISS:          0  itACCESS:          0  itHIT:          0  itMISS:          0  dtACCESS:          0  dtHIT:          0  dtMISS:          0
cpu0_L1I PREFETCH  REQUESTED:   27569543  ISSUED:   27567395  CROSSED:          0  USEFUL:    1969907  USELESS:     650069
cpu0_L1I AVERAGE iMISS LATENCY: 18.5398 cycles
cpu0_L1I AVERAGE dMISS LATENCY: 0 cycles
cpu0_L1I AVERAGE itMISS LATENCY: 0 cycles
cpu0_L1I AVERAGE dtMISS LATENCY: 0 cycles
cpu0_L1I PAGE CROSSINGS (TLB HIT):         0 
cpu0_L1I PAGE CROSSINGS (TLB MISS):         0 
cpu0_L1I AVERAGE MISS LATENCY: 18.5398 cycles
cpu0_ITLB TOTAL       ACCESS:   29822657  HIT:   27903823  MISS:    1918834  iACCESS:   29822657  iHIT:   27903823  iMISS:    1918834  dACCESS:          0  dHIT:          0  dMISS:          0  itACCESS:          0  itHIT:          0  itMISS:          0  dtACCESS:          0  dtHIT:          0  dtMISS:          0
cpu0_ITLB LOAD         ACCESS:   29822657  HIT:   27903823  MISS:    1918834  iACCESS:   29822657  iHIT:   27903823  iMISS:    1918834  dACCESS:          0  dHIT:          0  dMISS:          0  itACCESS:          0  itHIT:          0  itMISS:          0  dtACCESS:          0  dtHIT:          0  dtMISS:          0
cpu0_ITLB RFO          ACCESS:          0  HIT:          0  MISS:          0  iACCESS:          0  iHIT:          0  iMISS:          0  dACCESS:          0  dHIT:          0  dMISS:          0  itACCESS:          0  itHIT:          0  itMISS:          0  dtACCESS:          0  dtHIT:          0  dtMISS:          0
cpu0_ITLB PREFETCH     ACCESS:          0  HIT:          0  MISS:          0  iACCESS:          0  iHIT:          0  iMISS:          0  dACCESS:          0  dHIT:          0  dMISS:          0  itACCESS:          0  itHIT:          0  itMISS:          0  dtACCESS:          0  dtHIT:          0  dtMISS:          0
cpu0_ITLB WRITE        ACCESS:          0  HIT:          0  MISS:          0  iACCESS:          0  iHIT:          0  iMISS:          0  dACCESS:          0  dHIT:          0  dMISS:          0  itACCESS:          0  itHIT:          0  itMISS:          0  dtACCESS:          0  dtHIT:          0  dtMISS:          0
cpu0_ITLB TRANSLATION  ACCESS:          0  HIT:          0  MISS:          0  iACCESS:          0  iHIT:          0  iMISS:          0  dACCESS:          0  dHIT:          0  dMISS:          0  itACCESS:          0  itHIT:          0  itMISS:          0  dtACCESS:          0  dtHIT:          0  dtMISS:          0
cpu0_ITLB PREFETCH  REQUESTED:          0  ISSUED:          0  CROSSED:          0  USEFUL:     329391  USELESS:      60598
cpu0_ITLB AVERAGE iMISS LATENCY: 2.65514 cycles
cpu0_ITLB AVERAGE dMISS LATENCY: 0 cycles
cpu0_ITLB AVERAGE itMISS LATENCY: 0 cycles
cpu0_ITLB AVERAGE dtMISS LATENCY: 0 cycles
cpu0_ITLB PAGE CROSSINGS (TLB HIT):         0 
cpu0_ITLB PAGE CROSSINGS (TLB MISS):         0 
cpu0_ITLB AVERAGE MISS LATENCY: 2.65514 cycles
cpu0_DTLB TOTAL       ACCESS:   28016947  HIT:   26037002  MISS:    1979945  iACCESS:          0  iHIT:          0  iMISS:          0  dACCESS:   28016947  dHIT:   26037002  dMISS:    1979945  itACCESS:          0  itHIT:          0  itMISS:          0  dtACCESS:          0  dtHIT:          0  dtMISS:          0
cpu0_DTLB LOAD         ACCESS:   28016947  HIT:   26037002  MISS:    1979945  iACCESS:          0  iHIT:          0  iMISS:          0  dACCESS:   28016947  dHIT:   26037002  dMISS:    1979945  itACCESS:          0  itHIT:          0  itMISS:          0  dtACCESS:          0  dtHIT:          0  dtMISS:          0
cpu0_DTLB RFO          ACCESS:          0  HIT:          0  MISS:          0  iACCESS:          0  iHIT:          0  iMISS:          0  dACCESS:          0  dHIT:          0  dMISS:          0  itACCESS:          0  itHIT:          0  itMISS:          0  dtACCESS:          0  dtHIT:          0  dtMISS:          0
cpu0_DTLB PREFETCH     ACCESS:          0  HIT:          0  MISS:          0  iACCESS:          0  iHIT:          0  iMISS:          0  dACCESS:          0  dHIT:          0  dMISS:          0  itACCESS:          0  itHIT:          0  itMISS:          0  dtACCESS:          0  dtHIT:          0  dtMISS:          0
cpu0_DTLB WRITE        ACCESS:          0  HIT:          0  MISS:          0  iACCESS:          0  iHIT:          0  iMISS:          0  dACCESS:          0  dHIT:          0  dMISS:          0  itACCESS:          0  itHIT:          0  itMISS:          0  dtACCESS:          0  dtHIT:          0  dtMISS:          0
cpu0_DTLB TRANSLATION  ACCESS:          0  HIT:          0  MISS:          0  iACCESS:          0  iHIT:          0  iMISS:          0  dACCESS:          0  dHIT:          0  dMISS:          0  itACCESS:          0  itHIT:          0  itMISS:          0  dtACCESS:          0  dtHIT:          0  dtMISS:          0
cpu0_DTLB PREFETCH  REQUESTED:          0  ISSUED:          0  CROSSED:          0  USEFUL:          0  USELESS:          0
cpu0_DTLB AVERAGE iMISS LATENCY: 0 cycles
cpu0_DTLB AVERAGE dMISS LATENCY: 13.0347 cycles
cpu0_DTLB AVERAGE itMISS LATENCY: 0 cycles
cpu0_DTLB AVERAGE dtMISS LATENCY: 0 cycles
cpu0_DTLB PAGE CROSSINGS (TLB HIT):         0 
cpu0_DTLB PAGE CROSSINGS (TLB MISS):         0 
cpu0_DTLB AVERAGE MISS LATENCY: 13.0347 cycles
cpu0_STLB TOTAL       ACCESS:    1592209  HIT:    1385977  MISS:     206232  iACCESS:     389990  iHIT:     369275  iMISS:      20715  dACCESS:    1202219  dHIT:    1016702  dMISS:     185517  itACCESS:          0  itHIT:          0  itMISS:          0  dtACCESS:          0  dtHIT:          0  dtMISS:          0
cpu0_STLB LOAD         ACCESS:    1592209  HIT:    1385977  MISS:     206232  iACCESS:     389990  iHIT:     369275  iMISS:      20715  dACCESS:    1202219  dHIT:    1016702  dMISS:     185517  itACCESS:          0  itHIT:          0  itMISS:          0  dtACCESS:          0  dtHIT:          0  dtMISS:          0
cpu0_STLB RFO          ACCESS:          0  HIT:          0  MISS:          0  iACCESS:          0  iHIT:          0  iMISS:          0  dACCESS:          0  dHIT:          0  dMISS:          0  itACCESS:          0  itHIT:          0  itMISS:          0  dtACCESS:          0  dtHIT:          0  dtMISS:          0
cpu0_STLB PREFETCH     ACCESS:          0  HIT:          0  MISS:          0  iACCESS:          0  iHIT:          0  iMISS:          0  dACCESS:          0  dHIT:          0  dMISS:          0  itACCESS:          0  itHIT:          0  itMISS:          0  dtACCESS:          0  dtHIT:          0  dtMISS:          0
cpu0_STLB WRITE        ACCESS:          0  HIT:          0  MISS:          0  iACCESS:          0  iHIT:          0  iMISS:          0  dACCESS:          0  dHIT:          0  dMISS:          0  itACCESS:          0  itHIT:          0  itMISS:          0  dtACCESS:          0  dtHIT:          0  dtMISS:          0
cpu0_STLB TRANSLATION  ACCESS:          0  HIT:          0  MISS:          0  iACCESS:          0  iHIT:          0  iMISS:          0  dACCESS:          0  dHIT:          0  dMISS:          0  itACCESS:          0  itHIT:          0  itMISS:          0  dtACCESS:          0  dtHIT:          0  dtMISS:          0
cpu0_STLB PREFETCH  REQUESTED:          0  ISSUED:          0  CROSSED:          0  USEFUL:          0  USELESS:          0
cpu0_STLB AVERAGE iMISS LATENCY: 9.96484 cycles
cpu0_STLB AVERAGE dMISS LATENCY: 78.3682 cycles
cpu0_STLB AVERAGE itMISS LATENCY: 0 cycles
cpu0_STLB AVERAGE dtMISS LATENCY: 0 cycles
cpu0_STLB PAGE CROSSINGS (TLB HIT):         0 
cpu0_STLB PAGE CROSSINGS (TLB MISS):         0 
cpu0_STLB AVERAGE MISS LATENCY: 88.333 cycles
cpu0_L1D TOTAL       ACCESS:   42504195  HIT:   38508028  MISS:    3996167  iACCESS:          0  iHIT:          0  iMISS:          0  dACCESS:   42229610  dHIT:   38490364  dMISS:    3739246  itACCESS:      23973  itHIT:       1955  itMISS:      22018  dtACCESS:     250612  dtHIT:      15709  dtMISS:     234903
cpu0_L1D LOAD         ACCESS:   19341721  HIT:   17634477  MISS:    1707244  iACCESS:          0  iHIT:          0  iMISS:          0  dACCESS:   19341721  dHIT:   17634477  dMISS:    1707244  itACCESS:          0  itHIT:          0  itMISS:          0  dtACCESS:          0  dtHIT:          0  dtMISS:          0
cpu0_L1D RFO          ACCESS:          0  HIT:          0  MISS:          0  iACCESS:          0  iHIT:          0  iMISS:          0  dACCESS:          0  dHIT:          0  dMISS:          0  itACCESS:          0  itHIT:          0  itMISS:          0  dtACCESS:          0  dtHIT:          0  dtMISS:          0
cpu0_L1D PREFETCH     ACCESS:   12734731  HIT:   11158833  MISS:    1575898  iACCESS:          0  iHIT:          0  iMISS:          0  dACCESS:   12734731  dHIT:   11158833  dMISS:    1575898  itACCESS:          0  itHIT:          0  itMISS:          0  dtACCESS:          0  dtHIT:          0  dtMISS:          0
cpu0_L1D WRITE        ACCESS:   10153158  HIT:    9697054  MISS:     456104  iACCESS:          0  iHIT:          0  iMISS:          0  dACCESS:   10153158  dHIT:    9697054  dMISS:     456104  itACCESS:          0  itHIT:          0  itMISS:          0  dtACCESS:          0  dtHIT:          0  dtMISS:          0
cpu0_L1D TRANSLATION  ACCESS:     274585  HIT:      17664  MISS:     256921  iACCESS:          0  iHIT:          0  iMISS:          0  dACCESS:          0  dHIT:          0  dMISS:          0  itACCESS:      23973  itHIT:       1955  itMISS:      22018  dtACCESS:     250612  dtHIT:      15709  dtMISS:     234903
cpu0_L1D PREFETCH  REQUESTED:   19341721  ISSUED:   17393034  CROSSED:          0  USEFUL:     312805  USELESS:     702366
cpu0_L1D AVERAGE iMISS LATENCY: 0 cycles
cpu0_L1D AVERAGE dMISS LATENCY: 39.4922 cycles
cpu0_L1D AVERAGE itMISS LATENCY: 0.462159 cycles
cpu0_L1D AVERAGE dtMISS LATENCY: 3.45395 cycles
cpu0_L1D PAGE CROSSINGS (TLB HIT):         0 
cpu0_L1D PAGE CROSSINGS (TLB MISS):         0 
cpu0_L1D AVERAGE MISS LATENCY: 43.4083 cycles
cpu0_L2C TOTAL       ACCESS:    7224264  HIT:    1626676  MISS:    5597588  iACCESS:    3338217  iHIT:     824960  iMISS:    2513257  dACCESS:    3630628  dHIT:     659813  dMISS:    2970815  itACCESS:      22018  itHIT:      10563  itMISS:      11455  dtACCESS:     233401  dtHIT:     131340  dtMISS:     102061
cpu0_L2C LOAD         ACCESS:    1699457  HIT:     259549  MISS:    1439908  iACCESS:     755239  iHIT:     130517  iMISS:     624722  dACCESS:     944218  dHIT:     129032  dMISS:     815186  itACCESS:          0  itHIT:          0  itMISS:          0  dtACCESS:          0  dtHIT:          0  dtMISS:          0
cpu0_L2C RFO          ACCESS:     164345  HIT:      44846  MISS:     119499  iACCESS:          0  iHIT:          0  iMISS:          0  dACCESS:     164345  dHIT:      44846  dMISS:     119499  itACCESS:          0  itHIT:          0  itMISS:          0  dtACCESS:          0  dtHIT:          0  dtMISS:          0
cpu0_L2C PREFETCH     ACCESS:    4830564  HIT:    1055001  MISS:    3775563  iACCESS:    2582978  iHIT:     694443  iMISS:    1888535  dACCESS:    2247586  dHIT:     360558  dMISS:    1887028  itACCESS:          0  itHIT:          0  itMISS:          0  dtACCESS:          0  dtHIT:          0  dtMISS:          0
cpu0_L2C WRITE        ACCESS:     274479  HIT:     125377  MISS:     149102  iACCESS:          0  iHIT:          0  iMISS:          0  dACCESS:     274479  dHIT:     125377  dMISS:     149102  itACCESS:          0  itHIT:          0  itMISS:          0  dtACCESS:          0  dtHIT:          0  dtMISS:          0
cpu0_L2C TRANSLATION  ACCESS:     255419  HIT:     141903  MISS:     113516  iACCESS:          0  iHIT:          0  iMISS:          0  dACCESS:          0  dHIT:          0  dMISS:          0  itACCESS:      22018  itHIT:      10563  itMISS:      11455  dtACCESS:     233401  dtHIT:     131340  dtMISS:     102061
cpu0_L2C PREFETCH  REQUESTED:    1492349  ISSUED:    1492349  CROSSED:          0  USEFUL:     405482  USELESS:     436503
cpu0_L2C AVERAGE iMISS LATENCY: 21.974 cycles
cpu0_L2C AVERAGE dMISS LATENCY: 35.7552 cycles
cpu0_L2C AVERAGE itMISS LATENCY: 0.292349 cycles
cpu0_L2C AVERAGE dtMISS LATENCY: 2.07058 cycles
cpu0_L2C PAGE CROSSINGS (TLB HIT):         0 
cpu0_L2C PAGE CROSSINGS (TLB MISS):         0 
cpu0_L2C AVERAGE MISS LATENCY: 60.0921 cycles
LLC TOTAL       ACCESS:    5417229  HIT:    3913650  MISS:    1503579  iACCESS:    2436623  iHIT:    1911914  iMISS:     524709  dACCESS:    2867090  dHIT:    1949358  dMISS:     917732  itACCESS:      11455  itHIT:       3316  itMISS:       8139  dtACCESS:     102061  dtHIT:      49062  dtMISS:      52999
LLC LOAD         ACCESS:    1433412  HIT:    1104490  MISS:     328922  iACCESS:     623054  iHIT:     515247  iMISS:     107807  dACCESS:     810358  dHIT:     589243  dMISS:     221115  itACCESS:          0  itHIT:          0  itMISS:          0  dtACCESS:          0  dtHIT:          0  dtMISS:          0
LLC RFO          ACCESS:     119482  HIT:      65824  MISS:      53658  iACCESS:          0  iHIT:          0  iMISS:          0  dACCESS:     119482  dHIT:      65824  dMISS:      53658  itACCESS:          0  itHIT:          0  itMISS:          0  dtACCESS:          0  dtHIT:          0  dtMISS:          0
LLC PREFETCH     ACCESS:    3602150  HIT:    2552612  MISS:    1049538  iACCESS:    1813569  iHIT:    1396667  iMISS:     416902  dACCESS:    1788581  dHIT:    1155945  dMISS:     632636  itACCESS:          0  itHIT:          0  itMISS:          0  dtACCESS:          0  dtHIT:          0  dtMISS:          0
LLC WRITE        ACCESS:     148669  HIT:     138346  MISS:      10323  iACCESS:          0  iHIT:          0  iMISS:          0  dACCESS:     148669  dHIT:     138346  dMISS:      10323  itACCESS:          0  itHIT:          0  itMISS:          0  dtACCESS:          0  dtHIT:          0  dtMISS:          0
LLC TRANSLATION  ACCESS:     113516  HIT:      52378  MISS:      61138  iACCESS:          0  iHIT:          0  iMISS:          0  dACCESS:          0  dHIT:          0  dMISS:          0  itACCESS:      11455  itHIT:       3316  itMISS:       8139  dtACCESS:     102061  dtHIT:      49062  dtMISS:      52999
LLC PREFETCH  REQUESTED:          0  ISSUED:          0  CROSSED:          0  USEFUL:          0  USELESS:          0
LLC AVERAGE iMISS LATENCY: 50.4401 cycles
LLC AVERAGE dMISS LATENCY: 98.7364 cycles
LLC AVERAGE itMISS LATENCY: 0.938615 cycles
LLC AVERAGE dtMISS LATENCY: 6.38435 cycles
LLC PAGE CROSSINGS (TLB HIT):         0 
LLC PAGE CROSSINGS (TLB MISS):         0 
LLC AVERAGE MISS LATENCY: 156.5 cycles

PageTableWalker TOTAL       ACCESS:      99658  
PageTableWalker AVERAGE LATENCY: 4.50715 cycles
PageTableWalker TOTAL LATENCY: 449173 cycles

DRAM Statistics
Channel 0
 RQ ROW_BUFFER_HIT:     449136
  ROW_BUFFER_MISS:    1035076
 AVG DBUS CONGESTED CYCLE:    3.63504
 WQ ROW_BUFFER_HIT:      28850
  ROW_BUFFER_MISS:      23860  FULL:          0

