last_page:0x200000000000000
VMEM_RES_CAP:0x100000
PAGE_SIZE:4096
LOG2_PAGE_SIZE:12
LOG2_PAGE_TABLE_SIZE:9
page_table_levels:5
WARNING: physical memory size is smaller than virtual memory size
FDiP enabled with aggresivity 16

*** ChampSim Multicore Out-of-Order Simulator ***

Warmup Instructions: 50000000
Simulation Instructions: 100000000
Number of CPUs: 1
Small page size: 4096
Large page size: 2097152

CPU 0 Bimodal branch predictor
Basic BTB sets: 1024 ways: 8 indirect buffer size: 4096 RAS size: 64
Instruction page size distrubution: 0
Loading instruction page size distribution from /home/bsc/bsc018186/scratch/itp_asplos25_AE/dump/srv298_ap.pdst
Data page size distrubution: 0
Loading data page size distribution from /home/bsc/bsc018186/scratch/itp_asplos25_AE/dump/srv298_ap.pdst
cpu0_L2C IP-based stride prefetcher
cpu0_L2C is using PTP replacement policy:
	TLB_STRESS_THRESHOLD:0
	PTE_EVICTION_RATIO:0
cpu0_L1D next line prefetcher
cpu0_STLB using iTP with max lru@8
cpu0_STLB using iTP with instr@0 and data@2
Init sat counter with 3 bits (max:50).
cpu0_L1I next line prefetcher
Off-chip DRAM Size: 4 GiB Channels: 1 Width: 64-bit Data Rate: 3200 MT/s
Heartbeat CPU 0 instructions: 10000001 cycles: 2500220 heartbeat IPC: 3.99965 cumulative IPC: 3.99965 (Simulation time: 0 hr 0 min 37 sec) 
Heartbeat CPU 0 instructions: 20000003 cycles: 5000243 heartbeat IPC: 3.99997 cumulative IPC: 3.99981 (Simulation time: 0 hr 1 min 15 sec) 
Heartbeat CPU 0 instructions: 30000002 cycles: 7500284 heartbeat IPC: 3.99994 cumulative IPC: 3.99985 (Simulation time: 0 hr 1 min 54 sec) 
Heartbeat CPU 0 instructions: 40000002 cycles: 10000351 heartbeat IPC: 3.9999 cumulative IPC: 3.99986 (Simulation time: 0 hr 2 min 35 sec) 
Heartbeat CPU 0 instructions: 50000002 cycles: 12500423 heartbeat IPC: 3.99989 cumulative IPC: 3.99987 (Simulation time: 0 hr 3 min 16 sec) 
Warmup finished CPU 0 instructions: 50000002 cycles: 12500424 cumulative IPC: 3.99987 (Simulation time: 0 hr 3 min 16 sec) 

Warmup complete CPU 0 instructions: 50000002 cycles: 12500424 (Simulation time: 0 hr 3 min 16 sec) 

Heartbeat CPU 0 instructions: 60000001 cycles: 26855698 heartbeat IPC: 0.696608 cumulative IPC: 0.696609 (Simulation time: 0 hr 4 min 24 sec) 
Heartbeat CPU 0 instructions: 70000000 cycles: 41698626 heartbeat IPC: 0.673722 cumulative IPC: 0.684974 (Simulation time: 0 hr 5 min 33 sec) 
Heartbeat CPU 0 instructions: 80000000 cycles: 56352824 heartbeat IPC: 0.682399 cumulative IPC: 0.684114 (Simulation time: 0 hr 6 min 42 sec) 
Heartbeat CPU 0 instructions: 90000001 cycles: 70768590 heartbeat IPC: 0.693686 cumulative IPC: 0.686482 (Simulation time: 0 hr 7 min 51 sec) 
Heartbeat CPU 0 instructions: 100000001 cycles: 85433638 heartbeat IPC: 0.681894 cumulative IPC: 0.685559 (Simulation time: 0 hr 9 min 0 sec) 
*** Reached end of trace: /gpfs/projects/bsc18/MN4/bsc18/romol/ChampSim/traces/qualcomm_srv/srv298_ap.champsimtrace.xz
Heartbeat CPU 0 instructions: 110000004 cycles: 98829836 heartbeat IPC: 0.746481 cumulative IPC: 0.695013 (Simulation time: 0 hr 10 min 6 sec) 
Heartbeat CPU 0 instructions: 120000001 cycles: 112485461 heartbeat IPC: 0.732299 cumulative IPC: 0.700105 (Simulation time: 0 hr 11 min 8 sec) 
Heartbeat CPU 0 instructions: 130000001 cycles: 126396961 heartbeat IPC: 0.71883 cumulative IPC: 0.702392 (Simulation time: 0 hr 12 min 14 sec) 
Heartbeat CPU 0 instructions: 140000002 cycles: 139586589 heartbeat IPC: 0.758172 cumulative IPC: 0.708181 (Simulation time: 0 hr 13 min 19 sec) 
Heartbeat CPU 0 instructions: 150000004 cycles: 153773189 heartbeat IPC: 0.704891 cumulative IPC: 0.707851 (Simulation time: 0 hr 14 min 26 sec) 
Simulation finished CPU 0 instructions: 100000002 cycles: 141272766 cumulative IPC: 0.707851 (Simulation time: 0 hr 14 min 26 sec) 

Simulation complete CPU 0 instructions: 100000002 cycles: 141272766 (Simulation time: 0 hr 14 min 26 sec) 


ChampSim completed all CPUs

Saving instructions large page distribution to /home/bsc/bsc018186/scratch/itp_asplos25_AE/dump/srv298_ap.pdst...
Saving data large page distribution to /home/bsc/bsc018186/scratch/itp_asplos25_AE/dump/srv298_ap.pdst...
=== Simulation ===
CPU 0 runs /gpfs/projects/bsc18/MN4/bsc18/romol/ChampSim/traces/qualcomm_srv/srv298_ap.champsimtrace.xz

Region of Interest Statistics

CPU 0 cumulative IPC: 0.707851 instructions: 100000002 cycles: 141272766
CPU 0 Branch Prediction Accuracy: 83.4862% MPKI: 29.6736 Average ROB Occupancy at Mispredict: 12.6302
Branch type MPKI
BRANCH_DIRECT_JUMP: 0.94629
BRANCH_INDIRECT: 15.4325
BRANCH_CONDITIONAL: 9.67882
BRANCH_DIRECT_CALL: 1.80805
BRANCH_INDIRECT_CALL: 0.49394
BRANCH_RETURN: 1.31406

Instructions large pages: 0
Instructions small pages: 930
Large page distribution for instructions: 0%

Data large pages: 0
Data small pages: 9137
Large page distribution for data: 0%

cpu0_L1I TOTAL       ACCESS:   35097707  HIT:   26516344  MISS:    8581363  iACCESS:   35097707  iHIT:   26516344  iMISS:    8581363  dACCESS:          0  dHIT:          0  dMISS:          0  itACCESS:          0  itHIT:          0  itMISS:          0  dtACCESS:          0  dtHIT:          0  dtMISS:          0
cpu0_L1I LOAD         ACCESS:   10219435  HIT:    7816826  MISS:    2402609  iACCESS:   10219435  iHIT:    7816826  iMISS:    2402609  dACCESS:          0  dHIT:          0  dMISS:          0  itACCESS:          0  itHIT:          0  itMISS:          0  dtACCESS:          0  dtHIT:          0  dtMISS:          0
cpu0_L1I RFO          ACCESS:          0  HIT:          0  MISS:          0  iACCESS:          0  iHIT:          0  iMISS:          0  dACCESS:          0  dHIT:          0  dMISS:          0  itACCESS:          0  itHIT:          0  itMISS:          0  dtACCESS:          0  dtHIT:          0  dtMISS:          0
cpu0_L1I PREFETCH     ACCESS:   24878272  HIT:   18699518  MISS:    6178754  iACCESS:   24878272  iHIT:   18699518  iMISS:    6178754  dACCESS:          0  dHIT:          0  dMISS:          0  itACCESS:          0  itHIT:          0  itMISS:          0  dtACCESS:          0  dtHIT:          0  dtMISS:          0
cpu0_L1I WRITE        ACCESS:          0  HIT:          0  MISS:          0  iACCESS:          0  iHIT:          0  iMISS:          0  dACCESS:          0  dHIT:          0  dMISS:          0  itACCESS:          0  itHIT:          0  itMISS:          0  dtACCESS:          0  dtHIT:          0  dtMISS:          0
cpu0_L1I TRANSLATION  ACCESS:          0  HIT:          0  MISS:          0  iACCESS:          0  iHIT:          0  iMISS:          0  dACCESS:          0  dHIT:          0  dMISS:          0  itACCESS:          0  itHIT:          0  itMISS:          0  dtACCESS:          0  dtHIT:          0  dtMISS:          0
cpu0_L1I PREFETCH  REQUESTED:   27120371  ISSUED:   27118302  CROSSED:          0  USEFUL:    1937532  USELESS:     638806
cpu0_L1I AVERAGE iMISS LATENCY: 13.9181 cycles
cpu0_L1I AVERAGE dMISS LATENCY: 0 cycles
cpu0_L1I AVERAGE itMISS LATENCY: 0 cycles
cpu0_L1I AVERAGE dtMISS LATENCY: 0 cycles
cpu0_L1I PAGE CROSSINGS (TLB HIT):         0 
cpu0_L1I PAGE CROSSINGS (TLB MISS):         0 
cpu0_L1I AVERAGE MISS LATENCY: 13.9181 cycles
cpu0_ITLB TOTAL       ACCESS:   29023765  HIT:   27033691  MISS:    1990074  iACCESS:   29023765  iHIT:   27033691  iMISS:    1990074  dACCESS:          0  dHIT:          0  dMISS:          0  itACCESS:          0  itHIT:          0  itMISS:          0  dtACCESS:          0  dtHIT:          0  dtMISS:          0
cpu0_ITLB LOAD         ACCESS:   29023765  HIT:   27033691  MISS:    1990074  iACCESS:   29023765  iHIT:   27033691  iMISS:    1990074  dACCESS:          0  dHIT:          0  dMISS:          0  itACCESS:          0  itHIT:          0  itMISS:          0  dtACCESS:          0  dtHIT:          0  dtMISS:          0
cpu0_ITLB RFO          ACCESS:          0  HIT:          0  MISS:          0  iACCESS:          0  iHIT:          0  iMISS:          0  dACCESS:          0  dHIT:          0  dMISS:          0  itACCESS:          0  itHIT:          0  itMISS:          0  dtACCESS:          0  dtHIT:          0  dtMISS:          0
cpu0_ITLB PREFETCH     ACCESS:          0  HIT:          0  MISS:          0  iACCESS:          0  iHIT:          0  iMISS:          0  dACCESS:          0  dHIT:          0  dMISS:          0  itACCESS:          0  itHIT:          0  itMISS:          0  dtACCESS:          0  dtHIT:          0  dtMISS:          0
cpu0_ITLB WRITE        ACCESS:          0  HIT:          0  MISS:          0  iACCESS:          0  iHIT:          0  iMISS:          0  dACCESS:          0  dHIT:          0  dMISS:          0  itACCESS:          0  itHIT:          0  itMISS:          0  dtACCESS:          0  dtHIT:          0  dtMISS:          0
cpu0_ITLB TRANSLATION  ACCESS:          0  HIT:          0  MISS:          0  iACCESS:          0  iHIT:          0  iMISS:          0  dACCESS:          0  dHIT:          0  dMISS:          0  itACCESS:          0  itHIT:          0  itMISS:          0  dtACCESS:          0  dtHIT:          0  dtMISS:          0
cpu0_ITLB PREFETCH  REQUESTED:          0  ISSUED:          0  CROSSED:          0  USEFUL:     326314  USELESS:      62784
cpu0_ITLB AVERAGE iMISS LATENCY: 1.86432 cycles
cpu0_ITLB AVERAGE dMISS LATENCY: 0 cycles
cpu0_ITLB AVERAGE itMISS LATENCY: 0 cycles
cpu0_ITLB AVERAGE dtMISS LATENCY: 0 cycles
cpu0_ITLB PAGE CROSSINGS (TLB HIT):         0 
cpu0_ITLB PAGE CROSSINGS (TLB MISS):         0 
cpu0_ITLB AVERAGE MISS LATENCY: 1.86432 cycles
cpu0_DTLB TOTAL       ACCESS:   27746598  HIT:   25637995  MISS:    2108603  iACCESS:          0  iHIT:          0  iMISS:          0  dACCESS:   27746598  dHIT:   25637995  dMISS:    2108603  itACCESS:          0  itHIT:          0  itMISS:          0  dtACCESS:          0  dtHIT:          0  dtMISS:          0
cpu0_DTLB LOAD         ACCESS:   27746598  HIT:   25637995  MISS:    2108603  iACCESS:          0  iHIT:          0  iMISS:          0  dACCESS:   27746598  dHIT:   25637995  dMISS:    2108603  itACCESS:          0  itHIT:          0  itMISS:          0  dtACCESS:          0  dtHIT:          0  dtMISS:          0
cpu0_DTLB RFO          ACCESS:          0  HIT:          0  MISS:          0  iACCESS:          0  iHIT:          0  iMISS:          0  dACCESS:          0  dHIT:          0  dMISS:          0  itACCESS:          0  itHIT:          0  itMISS:          0  dtACCESS:          0  dtHIT:          0  dtMISS:          0
cpu0_DTLB PREFETCH     ACCESS:          0  HIT:          0  MISS:          0  iACCESS:          0  iHIT:          0  iMISS:          0  dACCESS:          0  dHIT:          0  dMISS:          0  itACCESS:          0  itHIT:          0  itMISS:          0  dtACCESS:          0  dtHIT:          0  dtMISS:          0
cpu0_DTLB WRITE        ACCESS:          0  HIT:          0  MISS:          0  iACCESS:          0  iHIT:          0  iMISS:          0  dACCESS:          0  dHIT:          0  dMISS:          0  itACCESS:          0  itHIT:          0  itMISS:          0  dtACCESS:          0  dtHIT:          0  dtMISS:          0
cpu0_DTLB TRANSLATION  ACCESS:          0  HIT:          0  MISS:          0  iACCESS:          0  iHIT:          0  iMISS:          0  dACCESS:          0  dHIT:          0  dMISS:          0  itACCESS:          0  itHIT:          0  itMISS:          0  dtACCESS:          0  dtHIT:          0  dtMISS:          0
cpu0_DTLB PREFETCH  REQUESTED:          0  ISSUED:          0  CROSSED:          0  USEFUL:          0  USELESS:          0
cpu0_DTLB AVERAGE iMISS LATENCY: 0 cycles
cpu0_DTLB AVERAGE dMISS LATENCY: 9.25267 cycles
cpu0_DTLB AVERAGE itMISS LATENCY: 0 cycles
cpu0_DTLB AVERAGE dtMISS LATENCY: 0 cycles
cpu0_DTLB PAGE CROSSINGS (TLB HIT):         0 
cpu0_DTLB PAGE CROSSINGS (TLB MISS):         0 
cpu0_DTLB AVERAGE MISS LATENCY: 9.25267 cycles
cpu0_STLB TOTAL       ACCESS:    1632531  HIT:    1501524  MISS:     131007  iACCESS:     389135  iHIT:     382771  iMISS:       6364  dACCESS:    1243396  dHIT:    1118753  dMISS:     124643  itACCESS:          0  itHIT:          0  itMISS:          0  dtACCESS:          0  dtHIT:          0  dtMISS:          0
cpu0_STLB LOAD         ACCESS:    1632531  HIT:    1501524  MISS:     131007  iACCESS:     389135  iHIT:     382771  iMISS:       6364  dACCESS:    1243396  dHIT:    1118753  dMISS:     124643  itACCESS:          0  itHIT:          0  itMISS:          0  dtACCESS:          0  dtHIT:          0  dtMISS:          0
cpu0_STLB RFO          ACCESS:          0  HIT:          0  MISS:          0  iACCESS:          0  iHIT:          0  iMISS:          0  dACCESS:          0  dHIT:          0  dMISS:          0  itACCESS:          0  itHIT:          0  itMISS:          0  dtACCESS:          0  dtHIT:          0  dtMISS:          0
cpu0_STLB PREFETCH     ACCESS:          0  HIT:          0  MISS:          0  iACCESS:          0  iHIT:          0  iMISS:          0  dACCESS:          0  dHIT:          0  dMISS:          0  itACCESS:          0  itHIT:          0  itMISS:          0  dtACCESS:          0  dtHIT:          0  dtMISS:          0
cpu0_STLB WRITE        ACCESS:          0  HIT:          0  MISS:          0  iACCESS:          0  iHIT:          0  iMISS:          0  dACCESS:          0  dHIT:          0  dMISS:          0  itACCESS:          0  itHIT:          0  itMISS:          0  dtACCESS:          0  dtHIT:          0  dtMISS:          0
cpu0_STLB TRANSLATION  ACCESS:          0  HIT:          0  MISS:          0  iACCESS:          0  iHIT:          0  iMISS:          0  dACCESS:          0  dHIT:          0  dMISS:          0  itACCESS:          0  itHIT:          0  itMISS:          0  dtACCESS:          0  dtHIT:          0  dtMISS:          0
cpu0_STLB PREFETCH  REQUESTED:          0  ISSUED:          0  CROSSED:          0  USEFUL:          0  USELESS:          0
cpu0_STLB AVERAGE iMISS LATENCY: 5.27516 cycles
cpu0_STLB AVERAGE dMISS LATENCY: 73.2075 cycles
cpu0_STLB AVERAGE itMISS LATENCY: 0 cycles
cpu0_STLB AVERAGE dtMISS LATENCY: 0 cycles
cpu0_STLB PAGE CROSSINGS (TLB HIT):         0 
cpu0_STLB PAGE CROSSINGS (TLB MISS):         0 
cpu0_STLB AVERAGE MISS LATENCY: 78.4826 cycles
cpu0_L1D TOTAL       ACCESS:   41659062  HIT:   37976361  MISS:    3682701  iACCESS:          0  iHIT:          0  iMISS:          0  dACCESS:   41457531  dHIT:   37963934  dMISS:    3493597  itACCESS:       7349  itHIT:        994  itMISS:       6355  dtACCESS:     194182  dtHIT:      11433  dtMISS:     182749
cpu0_L1D LOAD         ACCESS:   18994588  HIT:   17405928  MISS:    1588660  iACCESS:          0  iHIT:          0  iMISS:          0  dACCESS:   18994588  dHIT:   17405928  dMISS:    1588660  itACCESS:          0  itHIT:          0  itMISS:          0  dtACCESS:          0  dtHIT:          0  dtMISS:          0
cpu0_L1D RFO          ACCESS:          0  HIT:          0  MISS:          0  iACCESS:          0  iHIT:          0  iMISS:          0  dACCESS:          0  dHIT:          0  dMISS:          0  itACCESS:          0  itHIT:          0  itMISS:          0  dtACCESS:          0  dtHIT:          0  dtMISS:          0
cpu0_L1D PREFETCH     ACCESS:   12291893  HIT:   10838636  MISS:    1453257  iACCESS:          0  iHIT:          0  iMISS:          0  dACCESS:   12291893  dHIT:   10838636  dMISS:    1453257  itACCESS:          0  itHIT:          0  itMISS:          0  dtACCESS:          0  dtHIT:          0  dtMISS:          0
cpu0_L1D WRITE        ACCESS:   10171050  HIT:    9719370  MISS:     451680  iACCESS:          0  iHIT:          0  iMISS:          0  dACCESS:   10171050  dHIT:    9719370  dMISS:     451680  itACCESS:          0  itHIT:          0  itMISS:          0  dtACCESS:          0  dtHIT:          0  dtMISS:          0
cpu0_L1D TRANSLATION  ACCESS:     201531  HIT:      12427  MISS:     189104  iACCESS:          0  iHIT:          0  iMISS:          0  dACCESS:          0  dHIT:          0  dMISS:          0  itACCESS:       7349  itHIT:        994  itMISS:       6355  dtACCESS:     194182  dtHIT:      11433  dtMISS:     182749
cpu0_L1D PREFETCH  REQUESTED:   18994588  ISSUED:   17085746  CROSSED:          0  USEFUL:     307501  USELESS:     702140
cpu0_L1D AVERAGE iMISS LATENCY: 0 cycles
cpu0_L1D AVERAGE dMISS LATENCY: 34.9751 cycles
cpu0_L1D AVERAGE itMISS LATENCY: 0.163266 cycles
cpu0_L1D AVERAGE dtMISS LATENCY: 1.92008 cycles
cpu0_L1D PAGE CROSSINGS (TLB HIT):         0 
cpu0_L1D PAGE CROSSINGS (TLB MISS):         0 
cpu0_L1D AVERAGE MISS LATENCY: 37.0585 cycles
cpu0_L2C TOTAL       ACCESS:    7003017  HIT:    1253040  MISS:    5749977  iACCESS:    3333765  iHIT:     741113  iMISS:    2592652  dACCESS:    3496631  dHIT:     379353  dMISS:    3117278  itACCESS:       6355  itHIT:       2413  itMISS:       3942  dtACCESS:     166266  dtHIT:     130161  dtMISS:      36105
cpu0_L2C LOAD         ACCESS:    1733589  HIT:     157223  MISS:    1576366  iACCESS:     796176  iHIT:     115854  iMISS:     680322  dACCESS:     937413  dHIT:      41369  dMISS:     896044  itACCESS:          0  itHIT:          0  itMISS:          0  dtACCESS:          0  dtHIT:          0  dtMISS:          0
cpu0_L2C RFO          ACCESS:     155813  HIT:       6838  MISS:     148975  iACCESS:          0  iHIT:          0  iMISS:          0  dACCESS:     155813  dHIT:       6838  dMISS:     148975  itACCESS:          0  itHIT:          0  itMISS:          0  dtACCESS:          0  dtHIT:          0  dtMISS:          0
cpu0_L2C PREFETCH     ACCESS:    4654448  HIT:     901666  MISS:    3752782  iACCESS:    2537589  iHIT:     625259  iMISS:    1912330  dACCESS:    2116859  dHIT:     276407  dMISS:    1840452  itACCESS:          0  itHIT:          0  itMISS:          0  dtACCESS:          0  dtHIT:          0  dtMISS:          0
cpu0_L2C WRITE        ACCESS:     286546  HIT:      54739  MISS:     231807  iACCESS:          0  iHIT:          0  iMISS:          0  dACCESS:     286546  dHIT:      54739  dMISS:     231807  itACCESS:          0  itHIT:          0  itMISS:          0  dtACCESS:          0  dtHIT:          0  dtMISS:          0
cpu0_L2C TRANSLATION  ACCESS:     172621  HIT:     132574  MISS:      40047  iACCESS:          0  iHIT:          0  iMISS:          0  dACCESS:          0  dHIT:          0  dMISS:          0  itACCESS:       6355  itHIT:       2413  itMISS:       3942  dtACCESS:     166266  dtHIT:     130161  dtMISS:      36105
cpu0_L2C PREFETCH  REQUESTED:    1395035  ISSUED:    1395035  CROSSED:          0  USEFUL:     414635  USELESS:     396448
cpu0_L2C AVERAGE iMISS LATENCY: 15.3989 cycles
cpu0_L2C AVERAGE dMISS LATENCY: 26.0926 cycles
cpu0_L2C AVERAGE itMISS LATENCY: 0.0939142 cycles
cpu0_L2C AVERAGE dtMISS LATENCY: 0.961834 cycles
cpu0_L2C PAGE CROSSINGS (TLB HIT):         0 
cpu0_L2C PAGE CROSSINGS (TLB MISS):         0 
cpu0_L2C AVERAGE MISS LATENCY: 42.5473 cycles
LLC TOTAL       ACCESS:    5663148  HIT:    4793786  MISS:     869362  iACCESS:    2532929  iHIT:    2267033  iMISS:     265896  dACCESS:    3090172  dHIT:    2516201  dMISS:     573971  itACCESS:       3942  itHIT:       1321  itMISS:       2621  dtACCESS:      36105  dtHIT:       9231  dtMISS:      26874
LLC LOAD         ACCESS:    1573301  HIT:    1370844  MISS:     202457  iACCESS:     678163  iHIT:     622756  iMISS:      55407  dACCESS:     895138  dHIT:     748088  dMISS:     147050  itACCESS:          0  itHIT:          0  itMISS:          0  dtACCESS:          0  dtHIT:          0  dtMISS:          0
LLC RFO          ACCESS:     148973  HIT:     103854  MISS:      45119  iACCESS:          0  iHIT:          0  iMISS:          0  dACCESS:     148973  dHIT:     103854  dMISS:      45119  itACCESS:          0  itHIT:          0  itMISS:          0  dtACCESS:          0  dtHIT:          0  dtMISS:          0
LLC PREFETCH     ACCESS:    3640472  HIT:    3048188  MISS:     592284  iACCESS:    1854766  iHIT:    1644277  iMISS:     210489  dACCESS:    1785706  dHIT:    1403911  dMISS:     381795  itACCESS:          0  itHIT:          0  itMISS:          0  dtACCESS:          0  dtHIT:          0  dtMISS:          0
LLC WRITE        ACCESS:     260355  HIT:     260348  MISS:          7  iACCESS:          0  iHIT:          0  iMISS:          0  dACCESS:     260355  dHIT:     260348  dMISS:          7  itACCESS:          0  itHIT:          0  itMISS:          0  dtACCESS:          0  dtHIT:          0  dtMISS:          0
LLC TRANSLATION  ACCESS:      40047  HIT:      10552  MISS:      29495  iACCESS:          0  iHIT:          0  iMISS:          0  dACCESS:          0  dHIT:          0  dMISS:          0  itACCESS:       3942  itHIT:       1321  itMISS:       2621  dtACCESS:      36105  dtHIT:       9231  dtMISS:      26874
LLC PREFETCH  REQUESTED:          0  ISSUED:          0  CROSSED:          0  USEFUL:          0  USELESS:          0
LLC AVERAGE iMISS LATENCY: 45.5824 cycles
LLC AVERAGE dMISS LATENCY: 109.908 cycles
LLC AVERAGE itMISS LATENCY: 0.532285 cycles
LLC AVERAGE dtMISS LATENCY: 5.5443 cycles
LLC PAGE CROSSINGS (TLB HIT):         0 
LLC PAGE CROSSINGS (TLB MISS):         0 
LLC AVERAGE MISS LATENCY: 161.566 cycles

PageTableWalker TOTAL       ACCESS:      63082  
PageTableWalker AVERAGE LATENCY: 4.65504 cycles
PageTableWalker TOTAL LATENCY: 293649 cycles

DRAM Statistics
Channel 0
 RQ ROW_BUFFER_HIT:     238887
  ROW_BUFFER_MISS:     629941
 AVG DBUS CONGESTED CYCLE:    3.63843
 WQ ROW_BUFFER_HIT:      23621
  ROW_BUFFER_MISS:      32731  FULL:          0

