last_page:0x200000000000000
VMEM_RES_CAP:0x100000
PAGE_SIZE:4096
LOG2_PAGE_SIZE:12
LOG2_PAGE_TABLE_SIZE:9
page_table_levels:5
WARNING: physical memory size is smaller than virtual memory size
FDiP enabled with aggresivity 16

*** ChampSim Multicore Out-of-Order Simulator ***

Warmup Instructions: 50000000
Simulation Instructions: 100000000
Number of CPUs: 1
Small page size: 4096
Large page size: 2097152

CPU 0 Bimodal branch predictor
Basic BTB sets: 1024 ways: 8 indirect buffer size: 4096 RAS size: 64
Instruction page size distrubution: 0
Loading instruction page size distribution from /home/bsc/bsc018186/scratch/itp_asplos25_AE/dump/srv287_ap.pdst
Data page size distrubution: 0
Loading data page size distribution from /home/bsc/bsc018186/scratch/itp_asplos25_AE/dump/srv287_ap.pdst
cpu0_L2C IP-based stride prefetcher
cpu0_L2C is using PTP replacement policy:
	TLB_STRESS_THRESHOLD:0
	PTE_EVICTION_RATIO:0
cpu0_L1D next line prefetcher
cpu0_STLB using iTP with max lru@8
cpu0_STLB using iTP with instr@0 and data@2
Init sat counter with 3 bits (max:50).
cpu0_L1I next line prefetcher
Off-chip DRAM Size: 4 GiB Channels: 1 Width: 64-bit Data Rate: 3200 MT/s
Heartbeat CPU 0 instructions: 10000001 cycles: 2500208 heartbeat IPC: 3.99967 cumulative IPC: 3.99967 (Simulation time: 0 hr 0 min 41 sec) 
Heartbeat CPU 0 instructions: 20000003 cycles: 5367677 heartbeat IPC: 3.4874 cumulative IPC: 3.72601 (Simulation time: 0 hr 1 min 22 sec) 
Heartbeat CPU 0 instructions: 30000000 cycles: 8109482 heartbeat IPC: 3.64724 cumulative IPC: 3.69938 (Simulation time: 0 hr 2 min 6 sec) 
Heartbeat CPU 0 instructions: 40000001 cycles: 10610094 heartbeat IPC: 3.99903 cumulative IPC: 3.77 (Simulation time: 0 hr 2 min 50 sec) 
Heartbeat CPU 0 instructions: 50000001 cycles: 13110243 heartbeat IPC: 3.99977 cumulative IPC: 3.81382 (Simulation time: 0 hr 3 min 33 sec) 
Warmup finished CPU 0 instructions: 50000001 cycles: 13110244 cumulative IPC: 3.81382 (Simulation time: 0 hr 3 min 33 sec) 

Warmup complete CPU 0 instructions: 50000001 cycles: 13110244 (Simulation time: 0 hr 3 min 33 sec) 

Heartbeat CPU 0 instructions: 60000001 cycles: 32571711 heartbeat IPC: 0.513836 cumulative IPC: 0.513836 (Simulation time: 0 hr 4 min 48 sec) 
Heartbeat CPU 0 instructions: 70000004 cycles: 52841201 heartbeat IPC: 0.493353 cumulative IPC: 0.503386 (Simulation time: 0 hr 6 min 2 sec) 
Heartbeat CPU 0 instructions: 80000000 cycles: 72925572 heartbeat IPC: 0.4979 cumulative IPC: 0.501544 (Simulation time: 0 hr 7 min 20 sec) 
Heartbeat CPU 0 instructions: 90000001 cycles: 93759784 heartbeat IPC: 0.47998 cumulative IPC: 0.495974 (Simulation time: 0 hr 8 min 38 sec) 
Heartbeat CPU 0 instructions: 100000003 cycles: 105318338 heartbeat IPC: 0.865161 cumulative IPC: 0.542252 (Simulation time: 0 hr 9 min 43 sec) 
*** Reached end of trace: /gpfs/projects/bsc18/MN4/bsc18/romol/ChampSim/traces/qualcomm_srv/srv287_ap.champsimtrace.xz
Heartbeat CPU 0 instructions: 110000000 cycles: 121129563 heartbeat IPC: 0.632462 cumulative IPC: 0.555457 (Simulation time: 0 hr 10 min 55 sec) 
Heartbeat CPU 0 instructions: 120000001 cycles: 136963036 heartbeat IPC: 0.631574 cumulative IPC: 0.565188 (Simulation time: 0 hr 12 min 9 sec) 
Heartbeat CPU 0 instructions: 130000003 cycles: 147190407 heartbeat IPC: 0.977769 cumulative IPC: 0.596659 (Simulation time: 0 hr 13 min 16 sec) 
Heartbeat CPU 0 instructions: 140000000 cycles: 167223720 heartbeat IPC: 0.499169 cumulative IPC: 0.583986 (Simulation time: 0 hr 14 min 29 sec) 
Heartbeat CPU 0 instructions: 150000002 cycles: 187332700 heartbeat IPC: 0.497291 cumulative IPC: 0.573979 (Simulation time: 0 hr 15 min 46 sec) 
Simulation finished CPU 0 instructions: 100000001 cycles: 174222457 cumulative IPC: 0.573979 (Simulation time: 0 hr 15 min 46 sec) 

Simulation complete CPU 0 instructions: 100000001 cycles: 174222457 (Simulation time: 0 hr 15 min 46 sec) 


ChampSim completed all CPUs

Saving instructions large page distribution to /home/bsc/bsc018186/scratch/itp_asplos25_AE/dump/srv287_ap.pdst...
Saving data large page distribution to /home/bsc/bsc018186/scratch/itp_asplos25_AE/dump/srv287_ap.pdst...
=== Simulation ===
CPU 0 runs /gpfs/projects/bsc18/MN4/bsc18/romol/ChampSim/traces/qualcomm_srv/srv287_ap.champsimtrace.xz

Region of Interest Statistics

CPU 0 cumulative IPC: 0.573979 instructions: 100000001 cycles: 174222457
CPU 0 Branch Prediction Accuracy: 84.7147% MPKI: 31.2456 Average ROB Occupancy at Mispredict: 13.3503
Branch type MPKI
BRANCH_DIRECT_JUMP: 1.11351
BRANCH_INDIRECT: 16.0629
BRANCH_CONDITIONAL: 9.81648
BRANCH_DIRECT_CALL: 2.07542
BRANCH_INDIRECT_CALL: 0.70669
BRANCH_RETURN: 1.47062

Instructions large pages: 0
Instructions small pages: 1294
Large page distribution for instructions: 0%

Data large pages: 0
Data small pages: 5342
Large page distribution for data: 0%

cpu0_L1I TOTAL       ACCESS:   34310842  HIT:   27531172  MISS:    6779670  iACCESS:   34310842  iHIT:   27531172  iMISS:    6779670  dACCESS:          0  dHIT:          0  dMISS:          0  itACCESS:          0  itHIT:          0  itMISS:          0  dtACCESS:          0  dtHIT:          0  dtMISS:          0
cpu0_L1I LOAD         ACCESS:    8388049  HIT:    6532267  MISS:    1855782  iACCESS:    8388049  iHIT:    6532267  iMISS:    1855782  dACCESS:          0  dHIT:          0  dMISS:          0  itACCESS:          0  itHIT:          0  itMISS:          0  dtACCESS:          0  dtHIT:          0  dtMISS:          0
cpu0_L1I RFO          ACCESS:          0  HIT:          0  MISS:          0  iACCESS:          0  iHIT:          0  iMISS:          0  dACCESS:          0  dHIT:          0  dMISS:          0  itACCESS:          0  itHIT:          0  itMISS:          0  dtACCESS:          0  dtHIT:          0  dtMISS:          0
cpu0_L1I PREFETCH     ACCESS:   25922793  HIT:   20998905  MISS:    4923888  iACCESS:   25922793  iHIT:   20998905  iMISS:    4923888  dACCESS:          0  dHIT:          0  dMISS:          0  itACCESS:          0  itHIT:          0  itMISS:          0  dtACCESS:          0  dtHIT:          0  dtMISS:          0
cpu0_L1I WRITE        ACCESS:          0  HIT:          0  MISS:          0  iACCESS:          0  iHIT:          0  iMISS:          0  dACCESS:          0  dHIT:          0  dMISS:          0  itACCESS:          0  itHIT:          0  itMISS:          0  dtACCESS:          0  dtHIT:          0  dtMISS:          0
cpu0_L1I TRANSLATION  ACCESS:          0  HIT:          0  MISS:          0  iACCESS:          0  iHIT:          0  iMISS:          0  dACCESS:          0  dHIT:          0  dMISS:          0  itACCESS:          0  itHIT:          0  itMISS:          0  dtACCESS:          0  dtHIT:          0  dtMISS:          0
cpu0_L1I PREFETCH  REQUESTED:   27622276  ISSUED:   27619873  CROSSED:          0  USEFUL:    1601537  USELESS:     542766
cpu0_L1I AVERAGE iMISS LATENCY: 21.0295 cycles
cpu0_L1I AVERAGE dMISS LATENCY: 0 cycles
cpu0_L1I AVERAGE itMISS LATENCY: 0 cycles
cpu0_L1I AVERAGE dtMISS LATENCY: 0 cycles
cpu0_L1I PAGE CROSSINGS (TLB HIT):         0 
cpu0_L1I PAGE CROSSINGS (TLB MISS):         0 
cpu0_L1I AVERAGE MISS LATENCY: 21.0295 cycles
cpu0_ITLB TOTAL       ACCESS:   28853351  HIT:   27285515  MISS:    1567836  iACCESS:   28853351  iHIT:   27285515  iMISS:    1567836  dACCESS:          0  dHIT:          0  dMISS:          0  itACCESS:          0  itHIT:          0  itMISS:          0  dtACCESS:          0  dtHIT:          0  dtMISS:          0
cpu0_ITLB LOAD         ACCESS:   28853351  HIT:   27285515  MISS:    1567836  iACCESS:   28853351  iHIT:   27285515  iMISS:    1567836  dACCESS:          0  dHIT:          0  dMISS:          0  itACCESS:          0  itHIT:          0  itMISS:          0  dtACCESS:          0  dtHIT:          0  dtMISS:          0
cpu0_ITLB RFO          ACCESS:          0  HIT:          0  MISS:          0  iACCESS:          0  iHIT:          0  iMISS:          0  dACCESS:          0  dHIT:          0  dMISS:          0  itACCESS:          0  itHIT:          0  itMISS:          0  dtACCESS:          0  dtHIT:          0  dtMISS:          0
cpu0_ITLB PREFETCH     ACCESS:          0  HIT:          0  MISS:          0  iACCESS:          0  iHIT:          0  iMISS:          0  dACCESS:          0  dHIT:          0  dMISS:          0  itACCESS:          0  itHIT:          0  itMISS:          0  dtACCESS:          0  dtHIT:          0  dtMISS:          0
cpu0_ITLB WRITE        ACCESS:          0  HIT:          0  MISS:          0  iACCESS:          0  iHIT:          0  iMISS:          0  dACCESS:          0  dHIT:          0  dMISS:          0  itACCESS:          0  itHIT:          0  itMISS:          0  dtACCESS:          0  dtHIT:          0  dtMISS:          0
cpu0_ITLB TRANSLATION  ACCESS:          0  HIT:          0  MISS:          0  iACCESS:          0  iHIT:          0  iMISS:          0  dACCESS:          0  dHIT:          0  dMISS:          0  itACCESS:          0  itHIT:          0  itMISS:          0  dtACCESS:          0  dtHIT:          0  dtMISS:          0
cpu0_ITLB PREFETCH  REQUESTED:          0  ISSUED:          0  CROSSED:          0  USEFUL:     269158  USELESS:      52281
cpu0_ITLB AVERAGE iMISS LATENCY: 3.09233 cycles
cpu0_ITLB AVERAGE dMISS LATENCY: 0 cycles
cpu0_ITLB AVERAGE itMISS LATENCY: 0 cycles
cpu0_ITLB AVERAGE dtMISS LATENCY: 0 cycles
cpu0_ITLB PAGE CROSSINGS (TLB HIT):         0 
cpu0_ITLB PAGE CROSSINGS (TLB MISS):         0 
cpu0_ITLB AVERAGE MISS LATENCY: 3.09233 cycles
cpu0_DTLB TOTAL       ACCESS:   31438906  HIT:   25164207  MISS:    6274699  iACCESS:          0  iHIT:          0  iMISS:          0  dACCESS:   31438906  dHIT:   25164207  dMISS:    6274699  itACCESS:          0  itHIT:          0  itMISS:          0  dtACCESS:          0  dtHIT:          0  dtMISS:          0
cpu0_DTLB LOAD         ACCESS:   31438906  HIT:   25164207  MISS:    6274699  iACCESS:          0  iHIT:          0  iMISS:          0  dACCESS:   31438906  dHIT:   25164207  dMISS:    6274699  itACCESS:          0  itHIT:          0  itMISS:          0  dtACCESS:          0  dtHIT:          0  dtMISS:          0
cpu0_DTLB RFO          ACCESS:          0  HIT:          0  MISS:          0  iACCESS:          0  iHIT:          0  iMISS:          0  dACCESS:          0  dHIT:          0  dMISS:          0  itACCESS:          0  itHIT:          0  itMISS:          0  dtACCESS:          0  dtHIT:          0  dtMISS:          0
cpu0_DTLB PREFETCH     ACCESS:          0  HIT:          0  MISS:          0  iACCESS:          0  iHIT:          0  iMISS:          0  dACCESS:          0  dHIT:          0  dMISS:          0  itACCESS:          0  itHIT:          0  itMISS:          0  dtACCESS:          0  dtHIT:          0  dtMISS:          0
cpu0_DTLB WRITE        ACCESS:          0  HIT:          0  MISS:          0  iACCESS:          0  iHIT:          0  iMISS:          0  dACCESS:          0  dHIT:          0  dMISS:          0  itACCESS:          0  itHIT:          0  itMISS:          0  dtACCESS:          0  dtHIT:          0  dtMISS:          0
cpu0_DTLB TRANSLATION  ACCESS:          0  HIT:          0  MISS:          0  iACCESS:          0  iHIT:          0  iMISS:          0  dACCESS:          0  dHIT:          0  dMISS:          0  itACCESS:          0  itHIT:          0  itMISS:          0  dtACCESS:          0  dtHIT:          0  dtMISS:          0
cpu0_DTLB PREFETCH  REQUESTED:          0  ISSUED:          0  CROSSED:          0  USEFUL:          0  USELESS:          0
cpu0_DTLB AVERAGE iMISS LATENCY: 0 cycles
cpu0_DTLB AVERAGE dMISS LATENCY: 6.31476 cycles
cpu0_DTLB AVERAGE itMISS LATENCY: 0 cycles
cpu0_DTLB AVERAGE dtMISS LATENCY: 0 cycles
cpu0_DTLB PAGE CROSSINGS (TLB HIT):         0 
cpu0_DTLB PAGE CROSSINGS (TLB MISS):         0 
cpu0_DTLB AVERAGE MISS LATENCY: 6.31476 cycles
cpu0_STLB TOTAL       ACCESS:    3588407  HIT:    3401591  MISS:     186816  iACCESS:     321461  iHIT:     297623  iMISS:      23838  dACCESS:    3266946  dHIT:    3103968  dMISS:     162978  itACCESS:          0  itHIT:          0  itMISS:          0  dtACCESS:          0  dtHIT:          0  dtMISS:          0
cpu0_STLB LOAD         ACCESS:    3588407  HIT:    3401591  MISS:     186816  iACCESS:     321461  iHIT:     297623  iMISS:      23838  dACCESS:    3266946  dHIT:    3103968  dMISS:     162978  itACCESS:          0  itHIT:          0  itMISS:          0  dtACCESS:          0  dtHIT:          0  dtMISS:          0
cpu0_STLB RFO          ACCESS:          0  HIT:          0  MISS:          0  iACCESS:          0  iHIT:          0  iMISS:          0  dACCESS:          0  dHIT:          0  dMISS:          0  itACCESS:          0  itHIT:          0  itMISS:          0  dtACCESS:          0  dtHIT:          0  dtMISS:          0
cpu0_STLB PREFETCH     ACCESS:          0  HIT:          0  MISS:          0  iACCESS:          0  iHIT:          0  iMISS:          0  dACCESS:          0  dHIT:          0  dMISS:          0  itACCESS:          0  itHIT:          0  itMISS:          0  dtACCESS:          0  dtHIT:          0  dtMISS:          0
cpu0_STLB WRITE        ACCESS:          0  HIT:          0  MISS:          0  iACCESS:          0  iHIT:          0  iMISS:          0  dACCESS:          0  dHIT:          0  dMISS:          0  itACCESS:          0  itHIT:          0  itMISS:          0  dtACCESS:          0  dtHIT:          0  dtMISS:          0
cpu0_STLB TRANSLATION  ACCESS:          0  HIT:          0  MISS:          0  iACCESS:          0  iHIT:          0  iMISS:          0  dACCESS:          0  dHIT:          0  dMISS:          0  itACCESS:          0  itHIT:          0  itMISS:          0  dtACCESS:          0  dtHIT:          0  dtMISS:          0
cpu0_STLB PREFETCH  REQUESTED:          0  ISSUED:          0  CROSSED:          0  USEFUL:          0  USELESS:          0
cpu0_STLB AVERAGE iMISS LATENCY: 12.5111 cycles
cpu0_STLB AVERAGE dMISS LATENCY: 69.7435 cycles
cpu0_STLB AVERAGE itMISS LATENCY: 0 cycles
cpu0_STLB AVERAGE dtMISS LATENCY: 0 cycles
cpu0_STLB PAGE CROSSINGS (TLB HIT):         0 
cpu0_STLB PAGE CROSSINGS (TLB MISS):         0 
cpu0_STLB AVERAGE MISS LATENCY: 82.2546 cycles
cpu0_L1D TOTAL       ACCESS:   50809178  HIT:   39426526  MISS:   11382652  iACCESS:          0  iHIT:          0  iMISS:          0  dACCESS:   50559319  dHIT:   39410224  dMISS:   11149095  itACCESS:      27107  itHIT:       2054  itMISS:      25053  dtACCESS:     222752  dtHIT:      14248  dtMISS:     208504
cpu0_L1D LOAD         ACCESS:   25470467  HIT:   18665879  MISS:    6804588  iACCESS:          0  iHIT:          0  iMISS:          0  dACCESS:   25470467  dHIT:   18665879  dMISS:    6804588  itACCESS:          0  itHIT:          0  itMISS:          0  dtACCESS:          0  dtHIT:          0  dtMISS:          0
cpu0_L1D RFO          ACCESS:          0  HIT:          0  MISS:          0  iACCESS:          0  iHIT:          0  iMISS:          0  dACCESS:          0  dHIT:          0  dMISS:          0  itACCESS:          0  itHIT:          0  itMISS:          0  dtACCESS:          0  dtHIT:          0  dtMISS:          0
cpu0_L1D PREFETCH     ACCESS:   15601058  HIT:   11718755  MISS:    3882303  iACCESS:          0  iHIT:          0  iMISS:          0  dACCESS:   15601058  dHIT:   11718755  dMISS:    3882303  itACCESS:          0  itHIT:          0  itMISS:          0  dtACCESS:          0  dtHIT:          0  dtMISS:          0
cpu0_L1D WRITE        ACCESS:    9487794  HIT:    9025590  MISS:     462204  iACCESS:          0  iHIT:          0  iMISS:          0  dACCESS:    9487794  dHIT:    9025590  dMISS:     462204  itACCESS:          0  itHIT:          0  itMISS:          0  dtACCESS:          0  dtHIT:          0  dtMISS:          0
cpu0_L1D TRANSLATION  ACCESS:     249859  HIT:      16302  MISS:     233557  iACCESS:          0  iHIT:          0  iMISS:          0  dACCESS:          0  dHIT:          0  dMISS:          0  itACCESS:      27107  itHIT:       2054  itMISS:      25053  dtACCESS:     222752  dtHIT:      14248  dtMISS:     208504
cpu0_L1D PREFETCH  REQUESTED:   25470467  ISSUED:   18098670  CROSSED:          0  USEFUL:     251981  USELESS:     861317
cpu0_L1D AVERAGE iMISS LATENCY: 0 cycles
cpu0_L1D AVERAGE dMISS LATENCY: 21.04 cycles
cpu0_L1D AVERAGE itMISS LATENCY: 0.184194 cycles
cpu0_L1D AVERAGE dtMISS LATENCY: 0.959846 cycles
cpu0_L1D PAGE CROSSINGS (TLB HIT):         0 
cpu0_L1D PAGE CROSSINGS (TLB MISS):         0 
cpu0_L1D AVERAGE MISS LATENCY: 22.184 cycles
cpu0_L2C TOTAL       ACCESS:    9397654  HIT:    2165818  MISS:    7231836  iACCESS:    2733784  iHIT:     582134  iMISS:    2151650  dACCESS:    6435940  dHIT:    1423232  dMISS:    5012708  itACCESS:      25049  itHIT:      12938  itMISS:      12111  dtACCESS:     202881  dtHIT:     147514  dtMISS:      55367
cpu0_L2C LOAD         ACCESS:    4498237  HIT:    1050955  MISS:    3447282  iACCESS:     618844  iHIT:      86181  iMISS:     532663  dACCESS:    3879393  dHIT:     964774  dMISS:    2914619  itACCESS:          0  itHIT:          0  itMISS:          0  dtACCESS:          0  dtHIT:          0  dtMISS:          0
cpu0_L2C RFO          ACCESS:     173501  HIT:       6832  MISS:     166669  iACCESS:          0  iHIT:          0  iMISS:          0  dACCESS:     173501  dHIT:       6832  dMISS:     166669  itACCESS:          0  itHIT:          0  itMISS:          0  dtACCESS:          0  dtHIT:          0  dtMISS:          0
cpu0_L2C PREFETCH     ACCESS:    4273766  HIT:     901594  MISS:    3372172  iACCESS:    2114940  iHIT:     495953  iMISS:    1618987  dACCESS:    2158826  dHIT:     405641  dMISS:    1753185  itACCESS:          0  itHIT:          0  itMISS:          0  dtACCESS:          0  dtHIT:          0  dtMISS:          0
cpu0_L2C WRITE        ACCESS:     224220  HIT:      45985  MISS:     178235  iACCESS:          0  iHIT:          0  iMISS:          0  dACCESS:     224220  dHIT:      45985  dMISS:     178235  itACCESS:          0  itHIT:          0  itMISS:          0  dtACCESS:          0  dtHIT:          0  dtMISS:          0
cpu0_L2C TRANSLATION  ACCESS:     227930  HIT:     160452  MISS:      67478  iACCESS:          0  iHIT:          0  iMISS:          0  dACCESS:          0  dHIT:          0  dMISS:          0  itACCESS:      25049  itHIT:      12938  itMISS:      12111  dtACCESS:     202881  dtHIT:     147514  dtMISS:      55367
cpu0_L2C PREFETCH  REQUESTED:    1246874  ISSUED:    1246874  CROSSED:          0  USEFUL:     335800  USELESS:     362470
cpu0_L2C AVERAGE iMISS LATENCY: 16.3216 cycles
cpu0_L2C AVERAGE dMISS LATENCY: 33.8712 cycles
cpu0_L2C AVERAGE itMISS LATENCY: 0.25696 cycles
cpu0_L2C AVERAGE dtMISS LATENCY: 1.24962 cycles
cpu0_L2C PAGE CROSSINGS (TLB HIT):         0 
cpu0_L2C PAGE CROSSINGS (TLB MISS):         0 
cpu0_L2C AVERAGE MISS LATENCY: 51.6994 cycles
LLC TOTAL       ACCESS:    7059370  HIT:    5591005  MISS:    1468365  iACCESS:    2086509  iHIT:    1569553  iMISS:     516956  dACCESS:    4905383  dHIT:    4005849  dMISS:     899534  itACCESS:      12111  itHIT:       2920  itMISS:       9191  dtACCESS:      55367  dtHIT:      12683  dtMISS:      42684
LLC LOAD         ACCESS:    3441703  HIT:    3099231  MISS:     342472  iACCESS:     531406  iHIT:     427094  iMISS:     104312  dACCESS:    2910297  dHIT:    2672137  dMISS:     238160  itACCESS:          0  itHIT:          0  itMISS:          0  dtACCESS:          0  dtHIT:          0  dtMISS:          0
LLC RFO          ACCESS:     166662  HIT:     109308  MISS:      57354  iACCESS:          0  iHIT:          0  iMISS:          0  dACCESS:     166662  dHIT:     109308  dMISS:      57354  itACCESS:          0  itHIT:          0  itMISS:          0  dtACCESS:          0  dtHIT:          0  dtMISS:          0
LLC PREFETCH     ACCESS:    3180989  HIT:    2164365  MISS:    1016624  iACCESS:    1555103  iHIT:    1142459  iMISS:     412644  dACCESS:    1625886  dHIT:    1021906  dMISS:     603980  itACCESS:          0  itHIT:          0  itMISS:          0  dtACCESS:          0  dtHIT:          0  dtMISS:          0
LLC WRITE        ACCESS:     202538  HIT:     202498  MISS:         40  iACCESS:          0  iHIT:          0  iMISS:          0  dACCESS:     202538  dHIT:     202498  dMISS:         40  itACCESS:          0  itHIT:          0  itMISS:          0  dtACCESS:          0  dtHIT:          0  dtMISS:          0
LLC TRANSLATION  ACCESS:      67478  HIT:      15603  MISS:      51875  iACCESS:          0  iHIT:          0  iMISS:          0  dACCESS:          0  dHIT:          0  dMISS:          0  itACCESS:      12111  itHIT:       2920  itMISS:       9191  dtACCESS:      55367  dtHIT:      12683  dtMISS:      42684
LLC PREFETCH  REQUESTED:          0  ISSUED:          0  CROSSED:          0  USEFUL:          0  USELESS:          0
LLC AVERAGE iMISS LATENCY: 52.8313 cycles
LLC AVERAGE dMISS LATENCY: 105.368 cycles
LLC AVERAGE itMISS LATENCY: 1.10307 cycles
LLC AVERAGE dtMISS LATENCY: 5.41159 cycles
LLC PAGE CROSSINGS (TLB HIT):         0 
LLC PAGE CROSSINGS (TLB MISS):         0 
LLC AVERAGE MISS LATENCY: 164.714 cycles

PageTableWalker TOTAL       ACCESS:      89275  
PageTableWalker AVERAGE LATENCY: 4.23882 cycles
PageTableWalker TOTAL LATENCY: 378420 cycles

DRAM Statistics
Channel 0
 RQ ROW_BUFFER_HIT:     405268
  ROW_BUFFER_MISS:    1052643
 AVG DBUS CONGESTED CYCLE:    3.64909
 WQ ROW_BUFFER_HIT:      36998
  ROW_BUFFER_MISS:      36184  FULL:          0

