last_page:0x200000000000000
VMEM_RES_CAP:0x100000
PAGE_SIZE:4096
LOG2_PAGE_SIZE:12
LOG2_PAGE_TABLE_SIZE:9
page_table_levels:5
WARNING: physical memory size is smaller than virtual memory size
FDiP enabled with aggresivity 16

*** ChampSim Multicore Out-of-Order Simulator ***

Warmup Instructions: 50000000
Simulation Instructions: 100000000
Number of CPUs: 1
Small page size: 4096
Large page size: 2097152

CPU 0 Bimodal branch predictor
Basic BTB sets: 1024 ways: 8 indirect buffer size: 4096 RAS size: 64
Instruction page size distrubution: 0
Loading instruction page size distribution from /home/bsc/bsc018186/scratch/itp_asplos25_AE/dump/srv283_ap.pdst
Data page size distrubution: 0
Loading data page size distribution from /home/bsc/bsc018186/scratch/itp_asplos25_AE/dump/srv283_ap.pdst
cpu0_L2C IP-based stride prefetcher
cpu0_L2C is using PTP replacement policy:
	TLB_STRESS_THRESHOLD:0
	PTE_EVICTION_RATIO:0
cpu0_L1D next line prefetcher
cpu0_L1I next line prefetcher
Off-chip DRAM Size: 4 GiB Channels: 1 Width: 64-bit Data Rate: 3200 MT/s
Heartbeat CPU 0 instructions: 10000003 cycles: 2500223 heartbeat IPC: 3.99965 cumulative IPC: 3.99965 (Simulation time: 0 hr 0 min 38 sec) 
Heartbeat CPU 0 instructions: 20000003 cycles: 5000288 heartbeat IPC: 3.9999 cumulative IPC: 3.99978 (Simulation time: 0 hr 1 min 18 sec) 
Heartbeat CPU 0 instructions: 30000003 cycles: 7500308 heartbeat IPC: 3.99997 cumulative IPC: 3.99984 (Simulation time: 0 hr 1 min 59 sec) 
Heartbeat CPU 0 instructions: 40000003 cycles: 10000308 heartbeat IPC: 4 cumulative IPC: 3.99988 (Simulation time: 0 hr 2 min 39 sec) 
Heartbeat CPU 0 instructions: 50000002 cycles: 12500400 heartbeat IPC: 3.99986 cumulative IPC: 3.99988 (Simulation time: 0 hr 3 min 19 sec) 
Warmup finished CPU 0 instructions: 50000002 cycles: 12500401 cumulative IPC: 3.99988 (Simulation time: 0 hr 3 min 19 sec) 

Warmup complete CPU 0 instructions: 50000002 cycles: 12500401 (Simulation time: 0 hr 3 min 19 sec) 

Heartbeat CPU 0 instructions: 60000002 cycles: 26071169 heartbeat IPC: 0.736878 cumulative IPC: 0.736878 (Simulation time: 0 hr 4 min 22 sec) 
Heartbeat CPU 0 instructions: 70000002 cycles: 40165187 heartbeat IPC: 0.709521 cumulative IPC: 0.722941 (Simulation time: 0 hr 5 min 25 sec) 
Heartbeat CPU 0 instructions: 80000003 cycles: 53918952 heartbeat IPC: 0.727074 cumulative IPC: 0.724314 (Simulation time: 0 hr 6 min 28 sec) 
Heartbeat CPU 0 instructions: 90000001 cycles: 67860772 heartbeat IPC: 0.717267 cumulative IPC: 0.722539 (Simulation time: 0 hr 7 min 31 sec) 
Heartbeat CPU 0 instructions: 100000003 cycles: 82605831 heartbeat IPC: 0.678194 cumulative IPC: 0.713212 (Simulation time: 0 hr 8 min 36 sec) 
*** Reached end of trace: /gpfs/projects/bsc18/MN4/bsc18/romol/ChampSim/traces/qualcomm_srv/srv283_ap.champsimtrace.xz
Heartbeat CPU 0 instructions: 110000001 cycles: 96211880 heartbeat IPC: 0.734968 cumulative IPC: 0.716748 (Simulation time: 0 hr 9 min 38 sec) 
Heartbeat CPU 0 instructions: 120000000 cycles: 110358183 heartbeat IPC: 0.706899 cumulative IPC: 0.715324 (Simulation time: 0 hr 10 min 42 sec) 
Heartbeat CPU 0 instructions: 130000000 cycles: 123917725 heartbeat IPC: 0.737489 cumulative IPC: 0.718022 (Simulation time: 0 hr 11 min 45 sec) 
Heartbeat CPU 0 instructions: 140000002 cycles: 137885994 heartbeat IPC: 0.715909 cumulative IPC: 0.717786 (Simulation time: 0 hr 12 min 49 sec) 
Heartbeat CPU 0 instructions: 150000000 cycles: 152236460 heartbeat IPC: 0.696842 cumulative IPC: 0.715635 (Simulation time: 0 hr 13 min 53 sec) 
Simulation finished CPU 0 instructions: 100000003 cycles: 139736061 cumulative IPC: 0.715635 (Simulation time: 0 hr 13 min 53 sec) 

Simulation complete CPU 0 instructions: 100000003 cycles: 139736061 (Simulation time: 0 hr 13 min 53 sec) 


ChampSim completed all CPUs

Saving instructions large page distribution to /home/bsc/bsc018186/scratch/itp_asplos25_AE/dump/srv283_ap.pdst...
Saving data large page distribution to /home/bsc/bsc018186/scratch/itp_asplos25_AE/dump/srv283_ap.pdst...
=== Simulation ===
CPU 0 runs /gpfs/projects/bsc18/MN4/bsc18/romol/ChampSim/traces/qualcomm_srv/srv283_ap.champsimtrace.xz

Region of Interest Statistics

CPU 0 cumulative IPC: 0.715635 instructions: 100000003 cycles: 139736061
CPU 0 Branch Prediction Accuracy: 83.4309% MPKI: 29.756 Average ROB Occupancy at Mispredict: 12.344
Branch type MPKI
BRANCH_DIRECT_JUMP: 0.95326
BRANCH_INDIRECT: 15.4563
BRANCH_CONDITIONAL: 9.70477
BRANCH_DIRECT_CALL: 1.81618
BRANCH_INDIRECT_CALL: 0.49977
BRANCH_RETURN: 1.32578

Instructions large pages: 0
Instructions small pages: 955
Large page distribution for instructions: 0%

Data large pages: 0
Data small pages: 8856
Large page distribution for data: 0%

cpu0_L1I TOTAL       ACCESS:   35171463  HIT:   26541470  MISS:    8629993  iACCESS:   35171463  iHIT:   26541470  iMISS:    8629993  dACCESS:          0  dHIT:          0  dMISS:          0  itACCESS:          0  itHIT:          0  itMISS:          0  dtACCESS:          0  dtHIT:          0  dtMISS:          0
cpu0_L1I LOAD         ACCESS:   10234136  HIT:    7820780  MISS:    2413356  iACCESS:   10234136  iHIT:    7820780  iMISS:    2413356  dACCESS:          0  dHIT:          0  dMISS:          0  itACCESS:          0  itHIT:          0  itMISS:          0  dtACCESS:          0  dtHIT:          0  dtMISS:          0
cpu0_L1I RFO          ACCESS:          0  HIT:          0  MISS:          0  iACCESS:          0  iHIT:          0  iMISS:          0  dACCESS:          0  dHIT:          0  dMISS:          0  itACCESS:          0  itHIT:          0  itMISS:          0  dtACCESS:          0  dtHIT:          0  dtMISS:          0
cpu0_L1I PREFETCH     ACCESS:   24937327  HIT:   18720690  MISS:    6216637  iACCESS:   24937327  iHIT:   18720690  iMISS:    6216637  dACCESS:          0  dHIT:          0  dMISS:          0  itACCESS:          0  itHIT:          0  itMISS:          0  dtACCESS:          0  dtHIT:          0  dtMISS:          0
cpu0_L1I WRITE        ACCESS:          0  HIT:          0  MISS:          0  iACCESS:          0  iHIT:          0  iMISS:          0  dACCESS:          0  dHIT:          0  dMISS:          0  itACCESS:          0  itHIT:          0  itMISS:          0  dtACCESS:          0  dtHIT:          0  dtMISS:          0
cpu0_L1I TRANSLATION  ACCESS:          0  HIT:          0  MISS:          0  iACCESS:          0  iHIT:          0  iMISS:          0  dACCESS:          0  dHIT:          0  dMISS:          0  itACCESS:          0  itHIT:          0  itMISS:          0  dtACCESS:          0  dtHIT:          0  dtMISS:          0
cpu0_L1I PREFETCH  REQUESTED:   27130442  ISSUED:   27129179  CROSSED:          0  USEFUL:    1933952  USELESS:     637218
cpu0_L1I AVERAGE iMISS LATENCY: 13.6031 cycles
cpu0_L1I AVERAGE dMISS LATENCY: 0 cycles
cpu0_L1I AVERAGE itMISS LATENCY: 0 cycles
cpu0_L1I AVERAGE dtMISS LATENCY: 0 cycles
cpu0_L1I PAGE CROSSINGS (TLB HIT):         0 
cpu0_L1I PAGE CROSSINGS (TLB MISS):         0 
cpu0_L1I AVERAGE MISS LATENCY: 13.6031 cycles
cpu0_ITLB TOTAL       ACCESS:   29052770  HIT:   27059576  MISS:    1993194  iACCESS:   29052770  iHIT:   27059576  iMISS:    1993194  dACCESS:          0  dHIT:          0  dMISS:          0  itACCESS:          0  itHIT:          0  itMISS:          0  dtACCESS:          0  dtHIT:          0  dtMISS:          0
cpu0_ITLB LOAD         ACCESS:   29052770  HIT:   27059576  MISS:    1993194  iACCESS:   29052770  iHIT:   27059576  iMISS:    1993194  dACCESS:          0  dHIT:          0  dMISS:          0  itACCESS:          0  itHIT:          0  itMISS:          0  dtACCESS:          0  dtHIT:          0  dtMISS:          0
cpu0_ITLB RFO          ACCESS:          0  HIT:          0  MISS:          0  iACCESS:          0  iHIT:          0  iMISS:          0  dACCESS:          0  dHIT:          0  dMISS:          0  itACCESS:          0  itHIT:          0  itMISS:          0  dtACCESS:          0  dtHIT:          0  dtMISS:          0
cpu0_ITLB PREFETCH     ACCESS:          0  HIT:          0  MISS:          0  iACCESS:          0  iHIT:          0  iMISS:          0  dACCESS:          0  dHIT:          0  dMISS:          0  itACCESS:          0  itHIT:          0  itMISS:          0  dtACCESS:          0  dtHIT:          0  dtMISS:          0
cpu0_ITLB WRITE        ACCESS:          0  HIT:          0  MISS:          0  iACCESS:          0  iHIT:          0  iMISS:          0  dACCESS:          0  dHIT:          0  dMISS:          0  itACCESS:          0  itHIT:          0  itMISS:          0  dtACCESS:          0  dtHIT:          0  dtMISS:          0
cpu0_ITLB TRANSLATION  ACCESS:          0  HIT:          0  MISS:          0  iACCESS:          0  iHIT:          0  iMISS:          0  dACCESS:          0  dHIT:          0  dMISS:          0  itACCESS:          0  itHIT:          0  itMISS:          0  dtACCESS:          0  dtHIT:          0  dtMISS:          0
cpu0_ITLB PREFETCH  REQUESTED:          0  ISSUED:          0  CROSSED:          0  USEFUL:     325333  USELESS:      62964
cpu0_ITLB AVERAGE iMISS LATENCY: 2.67831 cycles
cpu0_ITLB AVERAGE dMISS LATENCY: 0 cycles
cpu0_ITLB AVERAGE itMISS LATENCY: 0 cycles
cpu0_ITLB AVERAGE dtMISS LATENCY: 0 cycles
cpu0_ITLB PAGE CROSSINGS (TLB HIT):         0 
cpu0_ITLB PAGE CROSSINGS (TLB MISS):         0 
cpu0_ITLB AVERAGE MISS LATENCY: 2.67831 cycles
cpu0_DTLB TOTAL       ACCESS:   27701856  HIT:   25869958  MISS:    1831898  iACCESS:          0  iHIT:          0  iMISS:          0  dACCESS:   27701856  dHIT:   25869958  dMISS:    1831898  itACCESS:          0  itHIT:          0  itMISS:          0  dtACCESS:          0  dtHIT:          0  dtMISS:          0
cpu0_DTLB LOAD         ACCESS:   27701856  HIT:   25869958  MISS:    1831898  iACCESS:          0  iHIT:          0  iMISS:          0  dACCESS:   27701856  dHIT:   25869958  dMISS:    1831898  itACCESS:          0  itHIT:          0  itMISS:          0  dtACCESS:          0  dtHIT:          0  dtMISS:          0
cpu0_DTLB RFO          ACCESS:          0  HIT:          0  MISS:          0  iACCESS:          0  iHIT:          0  iMISS:          0  dACCESS:          0  dHIT:          0  dMISS:          0  itACCESS:          0  itHIT:          0  itMISS:          0  dtACCESS:          0  dtHIT:          0  dtMISS:          0
cpu0_DTLB PREFETCH     ACCESS:          0  HIT:          0  MISS:          0  iACCESS:          0  iHIT:          0  iMISS:          0  dACCESS:          0  dHIT:          0  dMISS:          0  itACCESS:          0  itHIT:          0  itMISS:          0  dtACCESS:          0  dtHIT:          0  dtMISS:          0
cpu0_DTLB WRITE        ACCESS:          0  HIT:          0  MISS:          0  iACCESS:          0  iHIT:          0  iMISS:          0  dACCESS:          0  dHIT:          0  dMISS:          0  itACCESS:          0  itHIT:          0  itMISS:          0  dtACCESS:          0  dtHIT:          0  dtMISS:          0
cpu0_DTLB TRANSLATION  ACCESS:          0  HIT:          0  MISS:          0  iACCESS:          0  iHIT:          0  iMISS:          0  dACCESS:          0  dHIT:          0  dMISS:          0  itACCESS:          0  itHIT:          0  itMISS:          0  dtACCESS:          0  dtHIT:          0  dtMISS:          0
cpu0_DTLB PREFETCH  REQUESTED:          0  ISSUED:          0  CROSSED:          0  USEFUL:          0  USELESS:          0
cpu0_DTLB AVERAGE iMISS LATENCY: 0 cycles
cpu0_DTLB AVERAGE dMISS LATENCY: 8.78548 cycles
cpu0_DTLB AVERAGE itMISS LATENCY: 0 cycles
cpu0_DTLB AVERAGE dtMISS LATENCY: 0 cycles
cpu0_DTLB PAGE CROSSINGS (TLB HIT):         0 
cpu0_DTLB PAGE CROSSINGS (TLB MISS):         0 
cpu0_DTLB AVERAGE MISS LATENCY: 8.78548 cycles
cpu0_STLB TOTAL       ACCESS:    1515252  HIT:    1354972  MISS:     160280  iACCESS:     388321  iHIT:     331995  iMISS:      56326  dACCESS:    1126931  dHIT:    1022977  dMISS:     103954  itACCESS:          0  itHIT:          0  itMISS:          0  dtACCESS:          0  dtHIT:          0  dtMISS:          0
cpu0_STLB LOAD         ACCESS:    1515252  HIT:    1354972  MISS:     160280  iACCESS:     388321  iHIT:     331995  iMISS:      56326  dACCESS:    1126931  dHIT:    1022977  dMISS:     103954  itACCESS:          0  itHIT:          0  itMISS:          0  dtACCESS:          0  dtHIT:          0  dtMISS:          0
cpu0_STLB RFO          ACCESS:          0  HIT:          0  MISS:          0  iACCESS:          0  iHIT:          0  iMISS:          0  dACCESS:          0  dHIT:          0  dMISS:          0  itACCESS:          0  itHIT:          0  itMISS:          0  dtACCESS:          0  dtHIT:          0  dtMISS:          0
cpu0_STLB PREFETCH     ACCESS:          0  HIT:          0  MISS:          0  iACCESS:          0  iHIT:          0  iMISS:          0  dACCESS:          0  dHIT:          0  dMISS:          0  itACCESS:          0  itHIT:          0  itMISS:          0  dtACCESS:          0  dtHIT:          0  dtMISS:          0
cpu0_STLB WRITE        ACCESS:          0  HIT:          0  MISS:          0  iACCESS:          0  iHIT:          0  iMISS:          0  dACCESS:          0  dHIT:          0  dMISS:          0  itACCESS:          0  itHIT:          0  itMISS:          0  dtACCESS:          0  dtHIT:          0  dtMISS:          0
cpu0_STLB TRANSLATION  ACCESS:          0  HIT:          0  MISS:          0  iACCESS:          0  iHIT:          0  iMISS:          0  dACCESS:          0  dHIT:          0  dMISS:          0  itACCESS:          0  itHIT:          0  itMISS:          0  dtACCESS:          0  dtHIT:          0  dtMISS:          0
cpu0_STLB PREFETCH  REQUESTED:          0  ISSUED:          0  CROSSED:          0  USEFUL:          0  USELESS:          0
cpu0_STLB AVERAGE iMISS LATENCY: 14.2044 cycles
cpu0_STLB AVERAGE dMISS LATENCY: 44.3546 cycles
cpu0_STLB AVERAGE itMISS LATENCY: 0 cycles
cpu0_STLB AVERAGE dtMISS LATENCY: 0 cycles
cpu0_STLB PAGE CROSSINGS (TLB HIT):         0 
cpu0_STLB PAGE CROSSINGS (TLB MISS):         0 
cpu0_STLB AVERAGE MISS LATENCY: 58.5589 cycles
cpu0_L1D TOTAL       ACCESS:   41473801  HIT:   37922103  MISS:    3551698  iACCESS:          0  iHIT:          0  iMISS:          0  dACCESS:   41252430  dHIT:   37902802  dMISS:    3349628  itACCESS:      61084  itHIT:       9076  itMISS:      52008  dtACCESS:     160287  dtHIT:      10225  dtMISS:     150062
cpu0_L1D LOAD         ACCESS:   18957395  HIT:   17435219  MISS:    1522176  iACCESS:          0  iHIT:          0  iMISS:          0  dACCESS:   18957395  dHIT:   17435219  dMISS:    1522176  itACCESS:          0  itHIT:          0  itMISS:          0  dtACCESS:          0  dtHIT:          0  dtMISS:          0
cpu0_L1D RFO          ACCESS:          0  HIT:          0  MISS:          0  iACCESS:          0  iHIT:          0  iMISS:          0  dACCESS:          0  dHIT:          0  dMISS:          0  itACCESS:          0  itHIT:          0  itMISS:          0  dtACCESS:          0  dtHIT:          0  dtMISS:          0
cpu0_L1D PREFETCH     ACCESS:   12142272  HIT:   10758243  MISS:    1384029  iACCESS:          0  iHIT:          0  iMISS:          0  dACCESS:   12142272  dHIT:   10758243  dMISS:    1384029  itACCESS:          0  itHIT:          0  itMISS:          0  dtACCESS:          0  dtHIT:          0  dtMISS:          0
cpu0_L1D WRITE        ACCESS:   10152763  HIT:    9709340  MISS:     443423  iACCESS:          0  iHIT:          0  iMISS:          0  dACCESS:   10152763  dHIT:    9709340  dMISS:     443423  itACCESS:          0  itHIT:          0  itMISS:          0  dtACCESS:          0  dtHIT:          0  dtMISS:          0
cpu0_L1D TRANSLATION  ACCESS:     221371  HIT:      19301  MISS:     202070  iACCESS:          0  iHIT:          0  iMISS:          0  dACCESS:          0  dHIT:          0  dMISS:          0  itACCESS:      61084  itHIT:       9076  itMISS:      52008  dtACCESS:     160287  dtHIT:      10225  dtMISS:     150062
cpu0_L1D PREFETCH  REQUESTED:   18957395  ISSUED:   16928997  CROSSED:          0  USEFUL:     309363  USELESS:     703521
cpu0_L1D AVERAGE iMISS LATENCY: 0 cycles
cpu0_L1D AVERAGE dMISS LATENCY: 34.4758 cycles
cpu0_L1D AVERAGE itMISS LATENCY: 0.50538 cycles
cpu0_L1D AVERAGE dtMISS LATENCY: 1.38306 cycles
cpu0_L1D PAGE CROSSINGS (TLB HIT):         0 
cpu0_L1D PAGE CROSSINGS (TLB MISS):         0 
cpu0_L1D AVERAGE MISS LATENCY: 36.3643 cycles
cpu0_L2C TOTAL       ACCESS:    7003729  HIT:    1219712  MISS:    5784017  iACCESS:    3326179  iHIT:     680821  iMISS:    2645358  dACCESS:    3488765  dHIT:     383515  dMISS:    3105250  itACCESS:      52008  itHIT:      41018  itMISS:      10990  dtACCESS:     136777  dtHIT:     114358  dtMISS:      22419
cpu0_L2C LOAD         ACCESS:    1728082  HIT:     138801  MISS:    1589281  iACCESS:     794227  iHIT:      99062  iMISS:     695165  dACCESS:     933855  dHIT:      39739  dMISS:     894116  itACCESS:          0  itHIT:          0  itMISS:          0  dtACCESS:          0  dtHIT:          0  dtMISS:          0
cpu0_L2C RFO          ACCESS:     155993  HIT:       8353  MISS:     147640  iACCESS:          0  iHIT:          0  iMISS:          0  dACCESS:     155993  dHIT:       8353  dMISS:     147640  itACCESS:          0  itHIT:          0  itMISS:          0  dtACCESS:          0  dtHIT:          0  dtMISS:          0
cpu0_L2C PREFETCH     ACCESS:    4646956  HIT:     855935  MISS:    3791021  iACCESS:    2531952  iHIT:     581759  iMISS:    1950193  dACCESS:    2115004  dHIT:     274176  dMISS:    1840828  itACCESS:          0  itHIT:          0  itMISS:          0  dtACCESS:          0  dtHIT:          0  dtMISS:          0
cpu0_L2C WRITE        ACCESS:     283913  HIT:      61247  MISS:     222666  iACCESS:          0  iHIT:          0  iMISS:          0  dACCESS:     283913  dHIT:      61247  dMISS:     222666  itACCESS:          0  itHIT:          0  itMISS:          0  dtACCESS:          0  dtHIT:          0  dtMISS:          0
cpu0_L2C TRANSLATION  ACCESS:     188785  HIT:     155376  MISS:      33409  iACCESS:          0  iHIT:          0  iMISS:          0  dACCESS:          0  dHIT:          0  dMISS:          0  itACCESS:      52008  itHIT:      41018  itMISS:      10990  dtACCESS:     136777  dtHIT:     114358  dtMISS:      22419
cpu0_L2C PREFETCH  REQUESTED:    1386702  ISSUED:    1386702  CROSSED:          0  USEFUL:     416198  USELESS:     394756
cpu0_L2C AVERAGE iMISS LATENCY: 14.8331 cycles
cpu0_L2C AVERAGE dMISS LATENCY: 24.573 cycles
cpu0_L2C AVERAGE itMISS LATENCY: 0.22733 cycles
cpu0_L2C AVERAGE dtMISS LATENCY: 0.631335 cycles
cpu0_L2C PAGE CROSSINGS (TLB HIT):         0 
cpu0_L2C PAGE CROSSINGS (TLB MISS):         0 
cpu0_L2C AVERAGE MISS LATENCY: 40.2648 cycles
LLC TOTAL       ACCESS:    5703489  HIT:    4897216  MISS:     806273  iACCESS:    2583778  iHIT:    2338979  iMISS:     244799  dACCESS:    3086302  dHIT:    2549439  dMISS:     536863  itACCESS:      10990  itHIT:       4631  itMISS:       6359  dtACCESS:      22419  dtHIT:       4167  dtMISS:      18252
LLC LOAD         ACCESS:    1586960  HIT:    1398494  MISS:     188466  iACCESS:     693279  iHIT:     639947  iMISS:      53332  dACCESS:     893681  dHIT:     758547  dMISS:     135134  itACCESS:          0  itHIT:          0  itMISS:          0  dtACCESS:          0  dtHIT:          0  dtMISS:          0
LLC RFO          ACCESS:     147627  HIT:     109496  MISS:      38131  iACCESS:          0  iHIT:          0  iMISS:          0  dACCESS:     147627  dHIT:     109496  dMISS:      38131  itACCESS:          0  itHIT:          0  itMISS:          0  dtACCESS:          0  dtHIT:          0  dtMISS:          0
LLC PREFETCH     ACCESS:    3676691  HIT:    3121626  MISS:     555065  iACCESS:    1890499  iHIT:    1699032  iMISS:     191467  dACCESS:    1786192  dHIT:    1422594  dMISS:     363598  itACCESS:          0  itHIT:          0  itMISS:          0  dtACCESS:          0  dtHIT:          0  dtMISS:          0
LLC WRITE        ACCESS:     258802  HIT:     258802  MISS:          0  iACCESS:          0  iHIT:          0  iMISS:          0  dACCESS:     258802  dHIT:     258802  dMISS:          0  itACCESS:          0  itHIT:          0  itMISS:          0  dtACCESS:          0  dtHIT:          0  dtMISS:          0
LLC TRANSLATION  ACCESS:      33409  HIT:       8798  MISS:      24611  iACCESS:          0  iHIT:          0  iMISS:          0  dACCESS:          0  dHIT:          0  dMISS:          0  itACCESS:      10990  itHIT:       4631  itMISS:       6359  dtACCESS:      22419  dtHIT:       4167  dtMISS:      18252
LLC PREFETCH  REQUESTED:          0  ISSUED:          0  CROSSED:          0  USEFUL:          0  USELESS:          0
LLC AVERAGE iMISS LATENCY: 44.5583 cycles
LLC AVERAGE dMISS LATENCY: 108.537 cycles
LLC AVERAGE itMISS LATENCY: 1.3644 cycles
LLC AVERAGE dtMISS LATENCY: 3.9804 cycles
LLC PAGE CROSSINGS (TLB HIT):         0 
LLC PAGE CROSSINGS (TLB MISS):         0 
LLC AVERAGE MISS LATENCY: 158.44 cycles

PageTableWalker TOTAL       ACCESS:      82117  
PageTableWalker AVERAGE LATENCY: 4.01811 cycles
PageTableWalker TOTAL LATENCY: 329955 cycles

DRAM Statistics
Channel 0
 RQ ROW_BUFFER_HIT:     223295
  ROW_BUFFER_MISS:     582941
 AVG DBUS CONGESTED CYCLE:    3.63257
 WQ ROW_BUFFER_HIT:      20710
  ROW_BUFFER_MISS:      30561  FULL:          0

