last_page:0x200000000000000
VMEM_RES_CAP:0x100000
PAGE_SIZE:4096
LOG2_PAGE_SIZE:12
LOG2_PAGE_TABLE_SIZE:9
page_table_levels:5
WARNING: physical memory size is smaller than virtual memory size
FDiP enabled with aggresivity 16

*** ChampSim Multicore Out-of-Order Simulator ***

Warmup Instructions: 50000000
Simulation Instructions: 100000000
Number of CPUs: 1
Small page size: 4096
Large page size: 2097152

CPU 0 Bimodal branch predictor
Basic BTB sets: 1024 ways: 8 indirect buffer size: 4096 RAS size: 64
Instruction page size distrubution: 0
Loading instruction page size distribution from /home/bsc/bsc018186/scratch/itp_asplos25_AE/dump/srv293_ap.pdst
Data page size distrubution: 0
Loading data page size distribution from /home/bsc/bsc018186/scratch/itp_asplos25_AE/dump/srv293_ap.pdst
cpu0_L2C IP-based stride prefetcher
cpu0_L2C is using PTP replacement policy:
	TLB_STRESS_THRESHOLD:0
	PTE_EVICTION_RATIO:0
cpu0_L1D next line prefetcher
cpu0_L1I next line prefetcher
Off-chip DRAM Size: 4 GiB Channels: 1 Width: 64-bit Data Rate: 3200 MT/s
Heartbeat CPU 0 instructions: 10000001 cycles: 2500284 heartbeat IPC: 3.99955 cumulative IPC: 3.99955 (Simulation time: 0 hr 0 min 38 sec) 
Heartbeat CPU 0 instructions: 20000000 cycles: 5000380 heartbeat IPC: 3.99985 cumulative IPC: 3.9997 (Simulation time: 0 hr 1 min 18 sec) 
Heartbeat CPU 0 instructions: 30000003 cycles: 7500383 heartbeat IPC: 4 cumulative IPC: 3.9998 (Simulation time: 0 hr 1 min 59 sec) 
Heartbeat CPU 0 instructions: 40000000 cycles: 10000439 heartbeat IPC: 3.99991 cumulative IPC: 3.99983 (Simulation time: 0 hr 2 min 39 sec) 
Heartbeat CPU 0 instructions: 50000001 cycles: 12500441 heartbeat IPC: 4 cumulative IPC: 3.99986 (Simulation time: 0 hr 3 min 19 sec) 
Warmup finished CPU 0 instructions: 50000001 cycles: 12500442 cumulative IPC: 3.99986 (Simulation time: 0 hr 3 min 19 sec) 

Warmup complete CPU 0 instructions: 50000001 cycles: 12500442 (Simulation time: 0 hr 3 min 19 sec) 

Heartbeat CPU 0 instructions: 60000000 cycles: 26479801 heartbeat IPC: 0.715341 cumulative IPC: 0.715341 (Simulation time: 0 hr 4 min 22 sec) 
Heartbeat CPU 0 instructions: 70000000 cycles: 41542390 heartbeat IPC: 0.663897 cumulative IPC: 0.68866 (Simulation time: 0 hr 5 min 27 sec) 
Heartbeat CPU 0 instructions: 80000002 cycles: 55613069 heartbeat IPC: 0.710698 cumulative IPC: 0.695852 (Simulation time: 0 hr 6 min 30 sec) 
Heartbeat CPU 0 instructions: 90000004 cycles: 69778361 heartbeat IPC: 0.705951 cumulative IPC: 0.69835 (Simulation time: 0 hr 7 min 33 sec) 
Heartbeat CPU 0 instructions: 100000002 cycles: 84040333 heartbeat IPC: 0.701166 cumulative IPC: 0.698911 (Simulation time: 0 hr 8 min 38 sec) 
*** Reached end of trace: /gpfs/projects/bsc18/MN4/bsc18/romol/ChampSim/traces/qualcomm_srv/srv293_ap.champsimtrace.xz
Heartbeat CPU 0 instructions: 110000004 cycles: 97737401 heartbeat IPC: 0.730084 cumulative IPC: 0.703921 (Simulation time: 0 hr 9 min 42 sec) 
Heartbeat CPU 0 instructions: 120000004 cycles: 111692009 heartbeat IPC: 0.71661 cumulative IPC: 0.705706 (Simulation time: 0 hr 10 min 45 sec) 
Heartbeat CPU 0 instructions: 130000001 cycles: 125274053 heartbeat IPC: 0.736266 cumulative IPC: 0.709386 (Simulation time: 0 hr 11 min 47 sec) 
Heartbeat CPU 0 instructions: 140000000 cycles: 139610631 heartbeat IPC: 0.697517 cumulative IPC: 0.708048 (Simulation time: 0 hr 12 min 51 sec) 
Heartbeat CPU 0 instructions: 150000000 cycles: 153644347 heartbeat IPC: 0.71257 cumulative IPC: 0.708497 (Simulation time: 0 hr 13 min 55 sec) 
Simulation finished CPU 0 instructions: 100000004 cycles: 141143907 cumulative IPC: 0.708497 (Simulation time: 0 hr 13 min 55 sec) 

Simulation complete CPU 0 instructions: 100000004 cycles: 141143907 (Simulation time: 0 hr 13 min 55 sec) 


ChampSim completed all CPUs

Saving instructions large page distribution to /home/bsc/bsc018186/scratch/itp_asplos25_AE/dump/srv293_ap.pdst...
Saving data large page distribution to /home/bsc/bsc018186/scratch/itp_asplos25_AE/dump/srv293_ap.pdst...
=== Simulation ===
CPU 0 runs /gpfs/projects/bsc18/MN4/bsc18/romol/ChampSim/traces/qualcomm_srv/srv293_ap.champsimtrace.xz

Region of Interest Statistics

CPU 0 cumulative IPC: 0.708497 instructions: 100000004 cycles: 141143907
CPU 0 Branch Prediction Accuracy: 83.4793% MPKI: 29.5378 Average ROB Occupancy at Mispredict: 12.59
Branch type MPKI
BRANCH_DIRECT_JUMP: 1.01596
BRANCH_INDIRECT: 15.2507
BRANCH_CONDITIONAL: 9.60774
BRANCH_DIRECT_CALL: 1.83251
BRANCH_INDIRECT_CALL: 0.50275
BRANCH_RETURN: 1.32809

Instructions large pages: 0
Instructions small pages: 1052
Large page distribution for instructions: 0%

Data large pages: 0
Data small pages: 10204
Large page distribution for data: 0%

cpu0_L1I TOTAL       ACCESS:   35267581  HIT:   26868428  MISS:    8399153  iACCESS:   35267581  iHIT:   26868428  iMISS:    8399153  dACCESS:          0  dHIT:          0  dMISS:          0  itACCESS:          0  itHIT:          0  itMISS:          0  dtACCESS:          0  dtHIT:          0  dtMISS:          0
cpu0_L1I LOAD         ACCESS:   10356066  HIT:    8000578  MISS:    2355488  iACCESS:   10356066  iHIT:    8000578  iMISS:    2355488  dACCESS:          0  dHIT:          0  dMISS:          0  itACCESS:          0  itHIT:          0  itMISS:          0  dtACCESS:          0  dtHIT:          0  dtMISS:          0
cpu0_L1I RFO          ACCESS:          0  HIT:          0  MISS:          0  iACCESS:          0  iHIT:          0  iMISS:          0  dACCESS:          0  dHIT:          0  dMISS:          0  itACCESS:          0  itHIT:          0  itMISS:          0  dtACCESS:          0  dtHIT:          0  dtMISS:          0
cpu0_L1I PREFETCH     ACCESS:   24911515  HIT:   18867850  MISS:    6043665  iACCESS:   24911515  iHIT:   18867850  iMISS:    6043665  dACCESS:          0  dHIT:          0  dMISS:          0  itACCESS:          0  itHIT:          0  itMISS:          0  dtACCESS:          0  dtHIT:          0  dtMISS:          0
cpu0_L1I WRITE        ACCESS:          0  HIT:          0  MISS:          0  iACCESS:          0  iHIT:          0  iMISS:          0  dACCESS:          0  dHIT:          0  dMISS:          0  itACCESS:          0  itHIT:          0  itMISS:          0  dtACCESS:          0  dtHIT:          0  dtMISS:          0
cpu0_L1I TRANSLATION  ACCESS:          0  HIT:          0  MISS:          0  iACCESS:          0  iHIT:          0  iMISS:          0  dACCESS:          0  dHIT:          0  dMISS:          0  itACCESS:          0  itHIT:          0  itMISS:          0  dtACCESS:          0  dtHIT:          0  dtMISS:          0
cpu0_L1I PREFETCH  REQUESTED:   27241620  ISSUED:   27240034  CROSSED:          0  USEFUL:    1892280  USELESS:     623107
cpu0_L1I AVERAGE iMISS LATENCY: 14.0654 cycles
cpu0_L1I AVERAGE dMISS LATENCY: 0 cycles
cpu0_L1I AVERAGE itMISS LATENCY: 0 cycles
cpu0_L1I AVERAGE dtMISS LATENCY: 0 cycles
cpu0_L1I PAGE CROSSINGS (TLB HIT):         0 
cpu0_L1I PAGE CROSSINGS (TLB MISS):         0 
cpu0_L1I AVERAGE MISS LATENCY: 14.0654 cycles
cpu0_ITLB TOTAL       ACCESS:   29120997  HIT:   27159984  MISS:    1961013  iACCESS:   29120997  iHIT:   27159984  iMISS:    1961013  dACCESS:          0  dHIT:          0  dMISS:          0  itACCESS:          0  itHIT:          0  itMISS:          0  dtACCESS:          0  dtHIT:          0  dtMISS:          0
cpu0_ITLB LOAD         ACCESS:   29120997  HIT:   27159984  MISS:    1961013  iACCESS:   29120997  iHIT:   27159984  iMISS:    1961013  dACCESS:          0  dHIT:          0  dMISS:          0  itACCESS:          0  itHIT:          0  itMISS:          0  dtACCESS:          0  dtHIT:          0  dtMISS:          0
cpu0_ITLB RFO          ACCESS:          0  HIT:          0  MISS:          0  iACCESS:          0  iHIT:          0  iMISS:          0  dACCESS:          0  dHIT:          0  dMISS:          0  itACCESS:          0  itHIT:          0  itMISS:          0  dtACCESS:          0  dtHIT:          0  dtMISS:          0
cpu0_ITLB PREFETCH     ACCESS:          0  HIT:          0  MISS:          0  iACCESS:          0  iHIT:          0  iMISS:          0  dACCESS:          0  dHIT:          0  dMISS:          0  itACCESS:          0  itHIT:          0  itMISS:          0  dtACCESS:          0  dtHIT:          0  dtMISS:          0
cpu0_ITLB WRITE        ACCESS:          0  HIT:          0  MISS:          0  iACCESS:          0  iHIT:          0  iMISS:          0  dACCESS:          0  dHIT:          0  dMISS:          0  itACCESS:          0  itHIT:          0  itMISS:          0  dtACCESS:          0  dtHIT:          0  dtMISS:          0
cpu0_ITLB TRANSLATION  ACCESS:          0  HIT:          0  MISS:          0  iACCESS:          0  iHIT:          0  iMISS:          0  dACCESS:          0  dHIT:          0  dMISS:          0  itACCESS:          0  itHIT:          0  itMISS:          0  dtACCESS:          0  dtHIT:          0  dtMISS:          0
cpu0_ITLB PREFETCH  REQUESTED:          0  ISSUED:          0  CROSSED:          0  USEFUL:     320568  USELESS:      65623
cpu0_ITLB AVERAGE iMISS LATENCY: 2.85313 cycles
cpu0_ITLB AVERAGE dMISS LATENCY: 0 cycles
cpu0_ITLB AVERAGE itMISS LATENCY: 0 cycles
cpu0_ITLB AVERAGE dtMISS LATENCY: 0 cycles
cpu0_ITLB PAGE CROSSINGS (TLB HIT):         0 
cpu0_ITLB PAGE CROSSINGS (TLB MISS):         0 
cpu0_ITLB AVERAGE MISS LATENCY: 2.85313 cycles
cpu0_DTLB TOTAL       ACCESS:   27670786  HIT:   25649996  MISS:    2020790  iACCESS:          0  iHIT:          0  iMISS:          0  dACCESS:   27670786  dHIT:   25649996  dMISS:    2020790  itACCESS:          0  itHIT:          0  itMISS:          0  dtACCESS:          0  dtHIT:          0  dtMISS:          0
cpu0_DTLB LOAD         ACCESS:   27670786  HIT:   25649996  MISS:    2020790  iACCESS:          0  iHIT:          0  iMISS:          0  dACCESS:   27670786  dHIT:   25649996  dMISS:    2020790  itACCESS:          0  itHIT:          0  itMISS:          0  dtACCESS:          0  dtHIT:          0  dtMISS:          0
cpu0_DTLB RFO          ACCESS:          0  HIT:          0  MISS:          0  iACCESS:          0  iHIT:          0  iMISS:          0  dACCESS:          0  dHIT:          0  dMISS:          0  itACCESS:          0  itHIT:          0  itMISS:          0  dtACCESS:          0  dtHIT:          0  dtMISS:          0
cpu0_DTLB PREFETCH     ACCESS:          0  HIT:          0  MISS:          0  iACCESS:          0  iHIT:          0  iMISS:          0  dACCESS:          0  dHIT:          0  dMISS:          0  itACCESS:          0  itHIT:          0  itMISS:          0  dtACCESS:          0  dtHIT:          0  dtMISS:          0
cpu0_DTLB WRITE        ACCESS:          0  HIT:          0  MISS:          0  iACCESS:          0  iHIT:          0  iMISS:          0  dACCESS:          0  dHIT:          0  dMISS:          0  itACCESS:          0  itHIT:          0  itMISS:          0  dtACCESS:          0  dtHIT:          0  dtMISS:          0
cpu0_DTLB TRANSLATION  ACCESS:          0  HIT:          0  MISS:          0  iACCESS:          0  iHIT:          0  iMISS:          0  dACCESS:          0  dHIT:          0  dMISS:          0  itACCESS:          0  itHIT:          0  itMISS:          0  dtACCESS:          0  dtHIT:          0  dtMISS:          0
cpu0_DTLB PREFETCH  REQUESTED:          0  ISSUED:          0  CROSSED:          0  USEFUL:          0  USELESS:          0
cpu0_DTLB AVERAGE iMISS LATENCY: 0 cycles
cpu0_DTLB AVERAGE dMISS LATENCY: 8.95326 cycles
cpu0_DTLB AVERAGE itMISS LATENCY: 0 cycles
cpu0_DTLB AVERAGE dtMISS LATENCY: 0 cycles
cpu0_DTLB PAGE CROSSINGS (TLB HIT):         0 
cpu0_DTLB PAGE CROSSINGS (TLB MISS):         0 
cpu0_DTLB AVERAGE MISS LATENCY: 8.95326 cycles
cpu0_STLB TOTAL       ACCESS:    1625159  HIT:    1449051  MISS:     176108  iACCESS:     386234  iHIT:     322567  iMISS:      63667  dACCESS:    1238925  dHIT:    1126484  dMISS:     112441  itACCESS:          0  itHIT:          0  itMISS:          0  dtACCESS:          0  dtHIT:          0  dtMISS:          0
cpu0_STLB LOAD         ACCESS:    1625159  HIT:    1449051  MISS:     176108  iACCESS:     386234  iHIT:     322567  iMISS:      63667  dACCESS:    1238925  dHIT:    1126484  dMISS:     112441  itACCESS:          0  itHIT:          0  itMISS:          0  dtACCESS:          0  dtHIT:          0  dtMISS:          0
cpu0_STLB RFO          ACCESS:          0  HIT:          0  MISS:          0  iACCESS:          0  iHIT:          0  iMISS:          0  dACCESS:          0  dHIT:          0  dMISS:          0  itACCESS:          0  itHIT:          0  itMISS:          0  dtACCESS:          0  dtHIT:          0  dtMISS:          0
cpu0_STLB PREFETCH     ACCESS:          0  HIT:          0  MISS:          0  iACCESS:          0  iHIT:          0  iMISS:          0  dACCESS:          0  dHIT:          0  dMISS:          0  itACCESS:          0  itHIT:          0  itMISS:          0  dtACCESS:          0  dtHIT:          0  dtMISS:          0
cpu0_STLB WRITE        ACCESS:          0  HIT:          0  MISS:          0  iACCESS:          0  iHIT:          0  iMISS:          0  dACCESS:          0  dHIT:          0  dMISS:          0  itACCESS:          0  itHIT:          0  itMISS:          0  dtACCESS:          0  dtHIT:          0  dtMISS:          0
cpu0_STLB TRANSLATION  ACCESS:          0  HIT:          0  MISS:          0  iACCESS:          0  iHIT:          0  iMISS:          0  dACCESS:          0  dHIT:          0  dMISS:          0  itACCESS:          0  itHIT:          0  itMISS:          0  dtACCESS:          0  dtHIT:          0  dtMISS:          0
cpu0_STLB PREFETCH  REQUESTED:          0  ISSUED:          0  CROSSED:          0  USEFUL:          0  USELESS:          0
cpu0_STLB AVERAGE iMISS LATENCY: 14.4196 cycles
cpu0_STLB AVERAGE dMISS LATENCY: 46.6864 cycles
cpu0_STLB AVERAGE itMISS LATENCY: 0 cycles
cpu0_STLB AVERAGE dtMISS LATENCY: 0 cycles
cpu0_STLB PAGE CROSSINGS (TLB HIT):         0 
cpu0_STLB PAGE CROSSINGS (TLB MISS):         0 
cpu0_STLB AVERAGE MISS LATENCY: 61.106 cycles
cpu0_L1D TOTAL       ACCESS:   41418427  HIT:   37908196  MISS:    3510231  iACCESS:          0  iHIT:          0  iMISS:          0  dACCESS:   41179348  dHIT:   37886279  dMISS:    3293069  itACCESS:      69354  itHIT:       9925  itMISS:      59429  dtACCESS:     169725  dtHIT:      11992  dtMISS:     157733
cpu0_L1D LOAD         ACCESS:   18874433  HIT:   17382330  MISS:    1492103  iACCESS:          0  iHIT:          0  iMISS:          0  dACCESS:   18874433  dHIT:   17382330  dMISS:    1492103  itACCESS:          0  itHIT:          0  itMISS:          0  dtACCESS:          0  dtHIT:          0  dtMISS:          0
cpu0_L1D RFO          ACCESS:          0  HIT:          0  MISS:          0  iACCESS:          0  iHIT:          0  iMISS:          0  dACCESS:          0  dHIT:          0  dMISS:          0  itACCESS:          0  itHIT:          0  itMISS:          0  dtACCESS:          0  dtHIT:          0  dtMISS:          0
cpu0_L1D PREFETCH     ACCESS:   12118527  HIT:   10756042  MISS:    1362485  iACCESS:          0  iHIT:          0  iMISS:          0  dACCESS:   12118527  dHIT:   10756042  dMISS:    1362485  itACCESS:          0  itHIT:          0  itMISS:          0  dtACCESS:          0  dtHIT:          0  dtMISS:          0
cpu0_L1D WRITE        ACCESS:   10186388  HIT:    9747907  MISS:     438481  iACCESS:          0  iHIT:          0  iMISS:          0  dACCESS:   10186388  dHIT:    9747907  dMISS:     438481  itACCESS:          0  itHIT:          0  itMISS:          0  dtACCESS:          0  dtHIT:          0  dtMISS:          0
cpu0_L1D TRANSLATION  ACCESS:     239079  HIT:      21917  MISS:     217162  iACCESS:          0  iHIT:          0  iMISS:          0  dACCESS:          0  dHIT:          0  dMISS:          0  itACCESS:      69354  itHIT:       9925  itMISS:      59429  dtACCESS:     169725  dtHIT:      11992  dtMISS:     157733
cpu0_L1D PREFETCH  REQUESTED:   18874433  ISSUED:   16901990  CROSSED:          0  USEFUL:     306576  USELESS:     698530
cpu0_L1D AVERAGE iMISS LATENCY: 0 cycles
cpu0_L1D AVERAGE dMISS LATENCY: 35.5401 cycles
cpu0_L1D AVERAGE itMISS LATENCY: 0.566192 cycles
cpu0_L1D AVERAGE dtMISS LATENCY: 1.62259 cycles
cpu0_L1D PAGE CROSSINGS (TLB HIT):         0 
cpu0_L1D PAGE CROSSINGS (TLB MISS):         0 
cpu0_L1D AVERAGE MISS LATENCY: 37.7289 cycles
cpu0_L2C TOTAL       ACCESS:    6920345  HIT:    1215471  MISS:    5704874  iACCESS:    3264409  iHIT:     671884  iMISS:    2592525  dACCESS:    3447204  dHIT:     372204  dMISS:    3075000  itACCESS:      59429  itHIT:      48786  itMISS:      10643  dtACCESS:     149303  dtHIT:     122597  dtMISS:      26706
cpu0_L2C LOAD         ACCESS:    1708079  HIT:     132908  MISS:    1575171  iACCESS:     781648  iHIT:      93960  iMISS:     687688  dACCESS:     926431  dHIT:      38948  dMISS:     887483  itACCESS:          0  itHIT:          0  itMISS:          0  dtACCESS:          0  dtHIT:          0  dtMISS:          0
cpu0_L2C RFO          ACCESS:     156705  HIT:       8710  MISS:     147995  iACCESS:          0  iHIT:          0  iMISS:          0  dACCESS:     156705  dHIT:       8710  dMISS:     147995  itACCESS:          0  itHIT:          0  itMISS:          0  dtACCESS:          0  dtHIT:          0  dtMISS:          0
cpu0_L2C PREFETCH     ACCESS:    4562558  HIT:     843459  MISS:    3719099  iACCESS:    2482761  iHIT:     577924  iMISS:    1904837  dACCESS:    2079797  dHIT:     265535  dMISS:    1814262  itACCESS:          0  itHIT:          0  itMISS:          0  dtACCESS:          0  dtHIT:          0  dtMISS:          0
cpu0_L2C WRITE        ACCESS:     284271  HIT:      59011  MISS:     225260  iACCESS:          0  iHIT:          0  iMISS:          0  dACCESS:     284271  dHIT:      59011  dMISS:     225260  itACCESS:          0  itHIT:          0  itMISS:          0  dtACCESS:          0  dtHIT:          0  dtMISS:          0
cpu0_L2C TRANSLATION  ACCESS:     208732  HIT:     171383  MISS:      37349  iACCESS:          0  iHIT:          0  iMISS:          0  dACCESS:          0  dHIT:          0  dMISS:          0  itACCESS:      59429  itHIT:      48786  itMISS:      10643  dtACCESS:     149303  dtHIT:     122597  dtMISS:      26706
cpu0_L2C PREFETCH  REQUESTED:    1325090  ISSUED:    1325090  CROSSED:          0  USEFUL:     407152  USELESS:     382483
cpu0_L2C AVERAGE iMISS LATENCY: 15.4608 cycles
cpu0_L2C AVERAGE dMISS LATENCY: 25.1501 cycles
cpu0_L2C AVERAGE itMISS LATENCY: 0.252528 cycles
cpu0_L2C AVERAGE dtMISS LATENCY: 0.756897 cycles
cpu0_L2C PAGE CROSSINGS (TLB HIT):         0 
cpu0_L2C PAGE CROSSINGS (TLB MISS):         0 
cpu0_L2C AVERAGE MISS LATENCY: 41.6203 cycles
LLC TOTAL       ACCESS:    5627651  HIT:    4780731  MISS:     846920  iACCESS:    2539376  iHIT:    2269811  iMISS:     269565  dACCESS:    3050926  dHIT:    2502401  dMISS:     548525  itACCESS:      10643  itHIT:       3502  itMISS:       7141  dtACCESS:      26706  dtHIT:       5017  dtMISS:      21689
LLC LOAD         ACCESS:    1573379  HIT:    1373090  MISS:     200289  iACCESS:     686296  iHIT:     629051  iMISS:      57245  dACCESS:     887083  dHIT:     744039  dMISS:     143044  itACCESS:          0  itHIT:          0  itMISS:          0  dtACCESS:          0  dtHIT:          0  dtMISS:          0
LLC RFO          ACCESS:     147993  HIT:     110282  MISS:      37711  iACCESS:          0  iHIT:          0  iMISS:          0  dACCESS:     147993  dHIT:     110282  dMISS:      37711  itACCESS:          0  itHIT:          0  itMISS:          0  dtACCESS:          0  dtHIT:          0  dtMISS:          0
LLC PREFETCH     ACCESS:    3611890  HIT:    3031806  MISS:     580084  iACCESS:    1853080  iHIT:    1640760  iMISS:     212320  dACCESS:    1758810  dHIT:    1391046  dMISS:     367764  itACCESS:          0  itHIT:          0  itMISS:          0  dtACCESS:          0  dtHIT:          0  dtMISS:          0
LLC WRITE        ACCESS:     257040  HIT:     257034  MISS:          6  iACCESS:          0  iHIT:          0  iMISS:          0  dACCESS:     257040  dHIT:     257034  dMISS:          6  itACCESS:          0  itHIT:          0  itMISS:          0  dtACCESS:          0  dtHIT:          0  dtMISS:          0
LLC TRANSLATION  ACCESS:      37349  HIT:       8519  MISS:      28830  iACCESS:          0  iHIT:          0  iMISS:          0  dACCESS:          0  dHIT:          0  dMISS:          0  itACCESS:      10643  itHIT:       3502  itMISS:       7141  dtACCESS:      26706  dtHIT:       5017  dtMISS:      21689
LLC PREFETCH  REQUESTED:          0  ISSUED:          0  CROSSED:          0  USEFUL:          0  USELESS:          0
LLC AVERAGE iMISS LATENCY: 46.2668 cycles
LLC AVERAGE dMISS LATENCY: 105.771 cycles
LLC AVERAGE itMISS LATENCY: 1.45431 cycles
LLC AVERAGE dtMISS LATENCY: 4.47682 cycles
LLC PAGE CROSSINGS (TLB HIT):         0 
LLC PAGE CROSSINGS (TLB MISS):         0 
LLC AVERAGE MISS LATENCY: 157.969 cycles

PageTableWalker TOTAL       ACCESS:      87909  
PageTableWalker AVERAGE LATENCY: 4.18711 cycles
PageTableWalker TOTAL LATENCY: 368084 cycles

DRAM Statistics
Channel 0
 RQ ROW_BUFFER_HIT:     242154
  ROW_BUFFER_MISS:     604664
 AVG DBUS CONGESTED CYCLE:    3.62105
 WQ ROW_BUFFER_HIT:      22212
  ROW_BUFFER_MISS:      30474  FULL:          0

