last_page:0x200000000000000
VMEM_RES_CAP:0x100000
PAGE_SIZE:4096
LOG2_PAGE_SIZE:12
LOG2_PAGE_TABLE_SIZE:9
page_table_levels:5
WARNING: physical memory size is smaller than virtual memory size
FDiP enabled with aggresivity 16

*** ChampSim Multicore Out-of-Order Simulator ***

Warmup Instructions: 50000000
Simulation Instructions: 100000000
Number of CPUs: 1
Small page size: 4096
Large page size: 2097152

CPU 0 Bimodal branch predictor
Basic BTB sets: 1024 ways: 8 indirect buffer size: 4096 RAS size: 64
Instruction page size distrubution: 0
Loading instruction page size distribution from /home/bsc/bsc018186/scratch/itp_asplos25_AE/dump/srv293_ap.pdst
Data page size distrubution: 0
Loading data page size distribution from /home/bsc/bsc018186/scratch/itp_asplos25_AE/dump/srv293_ap.pdst
cpu0_L2C IP-based stride prefetcher
cpu0_L1D next line prefetcher
cpu0_STLB using iTP with max lru@8
cpu0_STLB using iTP with instr@0 and data@2
Init sat counter with 3 bits (max:50).
cpu0_L1I next line prefetcher
Off-chip DRAM Size: 4 GiB Channels: 1 Width: 64-bit Data Rate: 3200 MT/s
Heartbeat CPU 0 instructions: 10000000 cycles: 2500269 heartbeat IPC: 3.99957 cumulative IPC: 3.99957 (Simulation time: 0 hr 0 min 38 sec) 
Heartbeat CPU 0 instructions: 20000000 cycles: 5000316 heartbeat IPC: 3.99993 cumulative IPC: 3.99975 (Simulation time: 0 hr 1 min 18 sec) 
Heartbeat CPU 0 instructions: 30000003 cycles: 7500343 heartbeat IPC: 3.99996 cumulative IPC: 3.99982 (Simulation time: 0 hr 1 min 58 sec) 
Heartbeat CPU 0 instructions: 40000002 cycles: 10000389 heartbeat IPC: 3.99993 cumulative IPC: 3.99985 (Simulation time: 0 hr 2 min 39 sec) 
Heartbeat CPU 0 instructions: 50000000 cycles: 12500389 heartbeat IPC: 4 cumulative IPC: 3.99988 (Simulation time: 0 hr 3 min 19 sec) 
Warmup finished CPU 0 instructions: 50000000 cycles: 12500390 cumulative IPC: 3.99988 (Simulation time: 0 hr 3 min 19 sec) 

Warmup complete CPU 0 instructions: 50000000 cycles: 12500390 (Simulation time: 0 hr 3 min 19 sec) 

Heartbeat CPU 0 instructions: 60000001 cycles: 27318489 heartbeat IPC: 0.674851 cumulative IPC: 0.674851 (Simulation time: 0 hr 4 min 22 sec) 
Heartbeat CPU 0 instructions: 70000000 cycles: 43381865 heartbeat IPC: 0.622535 cumulative IPC: 0.647638 (Simulation time: 0 hr 5 min 28 sec) 
Heartbeat CPU 0 instructions: 80000002 cycles: 58259858 heartbeat IPC: 0.672134 cumulative IPC: 0.655603 (Simulation time: 0 hr 6 min 31 sec) 
Heartbeat CPU 0 instructions: 90000004 cycles: 73165819 heartbeat IPC: 0.670873 cumulative IPC: 0.659355 (Simulation time: 0 hr 7 min 35 sec) 
Heartbeat CPU 0 instructions: 100000000 cycles: 88238697 heartbeat IPC: 0.663444 cumulative IPC: 0.660168 (Simulation time: 0 hr 8 min 40 sec) 
*** Reached end of trace: /gpfs/projects/bsc18/MN4/bsc18/romol/ChampSim/traces/qualcomm_srv/srv293_ap.champsimtrace.xz
Heartbeat CPU 0 instructions: 110000004 cycles: 102878091 heartbeat IPC: 0.683089 cumulative IPC: 0.663881 (Simulation time: 0 hr 9 min 45 sec) 
Heartbeat CPU 0 instructions: 120000004 cycles: 117783635 heartbeat IPC: 0.670892 cumulative IPC: 0.664874 (Simulation time: 0 hr 10 min 49 sec) 
Heartbeat CPU 0 instructions: 130000001 cycles: 132344099 heartbeat IPC: 0.686792 cumulative IPC: 0.667537 (Simulation time: 0 hr 11 min 52 sec) 
Heartbeat CPU 0 instructions: 140000002 cycles: 147594237 heartbeat IPC: 0.655732 cumulative IPC: 0.666204 (Simulation time: 0 hr 12 min 57 sec) 
Heartbeat CPU 0 instructions: 150000000 cycles: 162495674 heartbeat IPC: 0.671077 cumulative IPC: 0.666688 (Simulation time: 0 hr 14 min 1 sec) 
Simulation finished CPU 0 instructions: 100000000 cycles: 149995285 cumulative IPC: 0.666688 (Simulation time: 0 hr 14 min 1 sec) 

Simulation complete CPU 0 instructions: 100000000 cycles: 149995285 (Simulation time: 0 hr 14 min 1 sec) 


ChampSim completed all CPUs

Saving instructions large page distribution to /home/bsc/bsc018186/scratch/itp_asplos25_AE/dump/srv293_ap.pdst...
Saving data large page distribution to /home/bsc/bsc018186/scratch/itp_asplos25_AE/dump/srv293_ap.pdst...
=== Simulation ===
CPU 0 runs /gpfs/projects/bsc18/MN4/bsc18/romol/ChampSim/traces/qualcomm_srv/srv293_ap.champsimtrace.xz

Region of Interest Statistics

CPU 0 cumulative IPC: 0.666688 instructions: 100000000 cycles: 149995285
CPU 0 Branch Prediction Accuracy: 83.4793% MPKI: 29.5378 Average ROB Occupancy at Mispredict: 13.0922
Branch type MPKI
BRANCH_DIRECT_JUMP: 1.01597
BRANCH_INDIRECT: 15.2507
BRANCH_CONDITIONAL: 9.60775
BRANCH_DIRECT_CALL: 1.83252
BRANCH_INDIRECT_CALL: 0.502751
BRANCH_RETURN: 1.3281

Instructions large pages: 0
Instructions small pages: 1052
Large page distribution for instructions: 0%

Data large pages: 0
Data small pages: 10204
Large page distribution for data: 0%

cpu0_L1I TOTAL       ACCESS:   34735687  HIT:   26985382  MISS:    7750305  iACCESS:   34735687  iHIT:   26985382  iMISS:    7750305  dACCESS:          0  dHIT:          0  dMISS:          0  itACCESS:          0  itHIT:          0  itMISS:          0  dtACCESS:          0  dtHIT:          0  dtMISS:          0
cpu0_L1I LOAD         ACCESS:   10221158  HIT:    8036802  MISS:    2184356  iACCESS:   10221158  iHIT:    8036802  iMISS:    2184356  dACCESS:          0  dHIT:          0  dMISS:          0  itACCESS:          0  itHIT:          0  itMISS:          0  dtACCESS:          0  dtHIT:          0  dtMISS:          0
cpu0_L1I RFO          ACCESS:          0  HIT:          0  MISS:          0  iACCESS:          0  iHIT:          0  iMISS:          0  dACCESS:          0  dHIT:          0  dMISS:          0  itACCESS:          0  itHIT:          0  itMISS:          0  dtACCESS:          0  dtHIT:          0  dtMISS:          0
cpu0_L1I PREFETCH     ACCESS:   24514529  HIT:   18948580  MISS:    5565949  iACCESS:   24514529  iHIT:   18948580  iMISS:    5565949  dACCESS:          0  dHIT:          0  dMISS:          0  itACCESS:          0  itHIT:          0  itMISS:          0  dtACCESS:          0  dtHIT:          0  dtMISS:          0
cpu0_L1I WRITE        ACCESS:          0  HIT:          0  MISS:          0  iACCESS:          0  iHIT:          0  iMISS:          0  dACCESS:          0  dHIT:          0  dMISS:          0  itACCESS:          0  itHIT:          0  itMISS:          0  dtACCESS:          0  dtHIT:          0  dtMISS:          0
cpu0_L1I TRANSLATION  ACCESS:          0  HIT:          0  MISS:          0  iACCESS:          0  iHIT:          0  iMISS:          0  dACCESS:          0  dHIT:          0  dMISS:          0  itACCESS:          0  itHIT:          0  itMISS:          0  dtACCESS:          0  dtHIT:          0  dtMISS:          0
cpu0_L1I PREFETCH  REQUESTED:   27111563  ISSUED:   27111563  CROSSED:          0  USEFUL:    1884590  USELESS:     623407
cpu0_L1I AVERAGE iMISS LATENCY: 13.081 cycles
cpu0_L1I AVERAGE dMISS LATENCY: 0 cycles
cpu0_L1I AVERAGE itMISS LATENCY: 0 cycles
cpu0_L1I AVERAGE dtMISS LATENCY: 0 cycles
cpu0_L1I PAGE CROSSINGS (TLB HIT):         0 
cpu0_L1I PAGE CROSSINGS (TLB MISS):         0 
cpu0_L1I AVERAGE MISS LATENCY: 13.081 cycles
cpu0_ITLB TOTAL       ACCESS:   28989859  HIT:   27021795  MISS:    1968064  iACCESS:   28989859  iHIT:   27021795  iMISS:    1968064  dACCESS:          0  dHIT:          0  dMISS:          0  itACCESS:          0  itHIT:          0  itMISS:          0  dtACCESS:          0  dtHIT:          0  dtMISS:          0
cpu0_ITLB LOAD         ACCESS:   28989859  HIT:   27021795  MISS:    1968064  iACCESS:   28989859  iHIT:   27021795  iMISS:    1968064  dACCESS:          0  dHIT:          0  dMISS:          0  itACCESS:          0  itHIT:          0  itMISS:          0  dtACCESS:          0  dtHIT:          0  dtMISS:          0
cpu0_ITLB RFO          ACCESS:          0  HIT:          0  MISS:          0  iACCESS:          0  iHIT:          0  iMISS:          0  dACCESS:          0  dHIT:          0  dMISS:          0  itACCESS:          0  itHIT:          0  itMISS:          0  dtACCESS:          0  dtHIT:          0  dtMISS:          0
cpu0_ITLB PREFETCH     ACCESS:          0  HIT:          0  MISS:          0  iACCESS:          0  iHIT:          0  iMISS:          0  dACCESS:          0  dHIT:          0  dMISS:          0  itACCESS:          0  itHIT:          0  itMISS:          0  dtACCESS:          0  dtHIT:          0  dtMISS:          0
cpu0_ITLB WRITE        ACCESS:          0  HIT:          0  MISS:          0  iACCESS:          0  iHIT:          0  iMISS:          0  dACCESS:          0  dHIT:          0  dMISS:          0  itACCESS:          0  itHIT:          0  itMISS:          0  dtACCESS:          0  dtHIT:          0  dtMISS:          0
cpu0_ITLB TRANSLATION  ACCESS:          0  HIT:          0  MISS:          0  iACCESS:          0  iHIT:          0  iMISS:          0  dACCESS:          0  dHIT:          0  dMISS:          0  itACCESS:          0  itHIT:          0  itMISS:          0  dtACCESS:          0  dtHIT:          0  dtMISS:          0
cpu0_ITLB PREFETCH  REQUESTED:          0  ISSUED:          0  CROSSED:          0  USEFUL:     319917  USELESS:      66298
cpu0_ITLB AVERAGE iMISS LATENCY: 2.06776 cycles
cpu0_ITLB AVERAGE dMISS LATENCY: 0 cycles
cpu0_ITLB AVERAGE itMISS LATENCY: 0 cycles
cpu0_ITLB AVERAGE dtMISS LATENCY: 0 cycles
cpu0_ITLB PAGE CROSSINGS (TLB HIT):         0 
cpu0_ITLB PAGE CROSSINGS (TLB MISS):         0 
cpu0_ITLB AVERAGE MISS LATENCY: 2.06776 cycles
cpu0_DTLB TOTAL       ACCESS:   27639833  HIT:   25596360  MISS:    2043473  iACCESS:          0  iHIT:          0  iMISS:          0  dACCESS:   27639833  dHIT:   25596360  dMISS:    2043473  itACCESS:          0  itHIT:          0  itMISS:          0  dtACCESS:          0  dtHIT:          0  dtMISS:          0
cpu0_DTLB LOAD         ACCESS:   27639833  HIT:   25596360  MISS:    2043473  iACCESS:          0  iHIT:          0  iMISS:          0  dACCESS:   27639833  dHIT:   25596360  dMISS:    2043473  itACCESS:          0  itHIT:          0  itMISS:          0  dtACCESS:          0  dtHIT:          0  dtMISS:          0
cpu0_DTLB RFO          ACCESS:          0  HIT:          0  MISS:          0  iACCESS:          0  iHIT:          0  iMISS:          0  dACCESS:          0  dHIT:          0  dMISS:          0  itACCESS:          0  itHIT:          0  itMISS:          0  dtACCESS:          0  dtHIT:          0  dtMISS:          0
cpu0_DTLB PREFETCH     ACCESS:          0  HIT:          0  MISS:          0  iACCESS:          0  iHIT:          0  iMISS:          0  dACCESS:          0  dHIT:          0  dMISS:          0  itACCESS:          0  itHIT:          0  itMISS:          0  dtACCESS:          0  dtHIT:          0  dtMISS:          0
cpu0_DTLB WRITE        ACCESS:          0  HIT:          0  MISS:          0  iACCESS:          0  iHIT:          0  iMISS:          0  dACCESS:          0  dHIT:          0  dMISS:          0  itACCESS:          0  itHIT:          0  itMISS:          0  dtACCESS:          0  dtHIT:          0  dtMISS:          0
cpu0_DTLB TRANSLATION  ACCESS:          0  HIT:          0  MISS:          0  iACCESS:          0  iHIT:          0  iMISS:          0  dACCESS:          0  dHIT:          0  dMISS:          0  itACCESS:          0  itHIT:          0  itMISS:          0  dtACCESS:          0  dtHIT:          0  dtMISS:          0
cpu0_DTLB PREFETCH  REQUESTED:          0  ISSUED:          0  CROSSED:          0  USEFUL:          0  USELESS:          0
cpu0_DTLB AVERAGE iMISS LATENCY: 0 cycles
cpu0_DTLB AVERAGE dMISS LATENCY: 16.7682 cycles
cpu0_DTLB AVERAGE itMISS LATENCY: 0 cycles
cpu0_DTLB AVERAGE dtMISS LATENCY: 0 cycles
cpu0_DTLB PAGE CROSSINGS (TLB HIT):         0 
cpu0_DTLB PAGE CROSSINGS (TLB MISS):         0 
cpu0_DTLB AVERAGE MISS LATENCY: 16.7682 cycles
cpu0_STLB TOTAL       ACCESS:    1625135  HIT:    1479130  MISS:     146005  iACCESS:     386233  iHIT:     379114  iMISS:       7119  dACCESS:    1238902  dHIT:    1100016  dMISS:     138886  itACCESS:          0  itHIT:          0  itMISS:          0  dtACCESS:          0  dtHIT:          0  dtMISS:          0
cpu0_STLB LOAD         ACCESS:    1625135  HIT:    1479130  MISS:     146005  iACCESS:     386233  iHIT:     379114  iMISS:       7119  dACCESS:    1238902  dHIT:    1100016  dMISS:     138886  itACCESS:          0  itHIT:          0  itMISS:          0  dtACCESS:          0  dtHIT:          0  dtMISS:          0
cpu0_STLB RFO          ACCESS:          0  HIT:          0  MISS:          0  iACCESS:          0  iHIT:          0  iMISS:          0  dACCESS:          0  dHIT:          0  dMISS:          0  itACCESS:          0  itHIT:          0  itMISS:          0  dtACCESS:          0  dtHIT:          0  dtMISS:          0
cpu0_STLB PREFETCH     ACCESS:          0  HIT:          0  MISS:          0  iACCESS:          0  iHIT:          0  iMISS:          0  dACCESS:          0  dHIT:          0  dMISS:          0  itACCESS:          0  itHIT:          0  itMISS:          0  dtACCESS:          0  dtHIT:          0  dtMISS:          0
cpu0_STLB WRITE        ACCESS:          0  HIT:          0  MISS:          0  iACCESS:          0  iHIT:          0  iMISS:          0  dACCESS:          0  dHIT:          0  dMISS:          0  itACCESS:          0  itHIT:          0  itMISS:          0  dtACCESS:          0  dtHIT:          0  dtMISS:          0
cpu0_STLB TRANSLATION  ACCESS:          0  HIT:          0  MISS:          0  iACCESS:          0  iHIT:          0  iMISS:          0  dACCESS:          0  dHIT:          0  dMISS:          0  itACCESS:          0  itHIT:          0  itMISS:          0  dtACCESS:          0  dtHIT:          0  dtMISS:          0
cpu0_STLB PREFETCH  REQUESTED:          0  ISSUED:          0  CROSSED:          0  USEFUL:          0  USELESS:          0
cpu0_STLB AVERAGE iMISS LATENCY: 7.33958 cycles
cpu0_STLB AVERAGE dMISS LATENCY: 166.846 cycles
cpu0_STLB AVERAGE itMISS LATENCY: 0 cycles
cpu0_STLB AVERAGE dtMISS LATENCY: 0 cycles
cpu0_STLB PAGE CROSSINGS (TLB HIT):         0 
cpu0_STLB PAGE CROSSINGS (TLB MISS):         0 
cpu0_STLB AVERAGE MISS LATENCY: 174.185 cycles
cpu0_L1D TOTAL       ACCESS:   41297144  HIT:   37885944  MISS:    3411200  iACCESS:          0  iHIT:          0  iMISS:          0  dACCESS:   41080546  dHIT:   37871079  dMISS:    3209467  itACCESS:       8710  itHIT:        955  itMISS:       7755  dtACCESS:     207888  dtHIT:      13910  dtMISS:     193978
cpu0_L1D LOAD         ACCESS:   18841012  HIT:   17374988  MISS:    1466024  iACCESS:          0  iHIT:          0  iMISS:          0  dACCESS:   18841012  dHIT:   17374988  dMISS:    1466024  itACCESS:          0  itHIT:          0  itMISS:          0  dtACCESS:          0  dtHIT:          0  dtMISS:          0
cpu0_L1D RFO          ACCESS:          0  HIT:          0  MISS:          0  iACCESS:          0  iHIT:          0  iMISS:          0  dACCESS:          0  dHIT:          0  dMISS:          0  itACCESS:          0  itHIT:          0  itMISS:          0  dtACCESS:          0  dtHIT:          0  dtMISS:          0
cpu0_L1D PREFETCH     ACCESS:   12057372  HIT:   10743272  MISS:    1314100  iACCESS:          0  iHIT:          0  iMISS:          0  dACCESS:   12057372  dHIT:   10743272  dMISS:    1314100  itACCESS:          0  itHIT:          0  itMISS:          0  dtACCESS:          0  dtHIT:          0  dtMISS:          0
cpu0_L1D WRITE        ACCESS:   10182162  HIT:    9752819  MISS:     429343  iACCESS:          0  iHIT:          0  iMISS:          0  dACCESS:   10182162  dHIT:    9752819  dMISS:     429343  itACCESS:          0  itHIT:          0  itMISS:          0  dtACCESS:          0  dtHIT:          0  dtMISS:          0
cpu0_L1D TRANSLATION  ACCESS:     216598  HIT:      14865  MISS:     201733  iACCESS:          0  iHIT:          0  iMISS:          0  dACCESS:          0  dHIT:          0  dMISS:          0  itACCESS:       8710  itHIT:        955  itMISS:       7755  dtACCESS:     207888  dtHIT:      13910  dtMISS:     193978
cpu0_L1D PREFETCH  REQUESTED:   18841012  ISSUED:   16864177  CROSSED:          0  USEFUL:     305543  USELESS:     697330
cpu0_L1D AVERAGE iMISS LATENCY: 0 cycles
cpu0_L1D AVERAGE dMISS LATENCY: 33.8598 cycles
cpu0_L1D AVERAGE itMISS LATENCY: 0.290942 cycles
cpu0_L1D AVERAGE dtMISS LATENCY: 6.2941 cycles
cpu0_L1D PAGE CROSSINGS (TLB HIT):         0 
cpu0_L1D PAGE CROSSINGS (TLB MISS):         0 
cpu0_L1D AVERAGE MISS LATENCY: 40.4448 cycles
cpu0_L2C TOTAL       ACCESS:    6885894  HIT:    3995714  MISS:    2890180  iACCESS:    3262380  iHIT:    2173819  iMISS:    1088561  dACCESS:    3430158  dHIT:    1789328  dMISS:    1640830  itACCESS:       7755  itHIT:       1242  itMISS:       6513  dtACCESS:     185601  dtHIT:      31325  dtMISS:     154276
cpu0_L2C LOAD         ACCESS:    1715252  HIT:    1026694  MISS:     688558  iACCESS:     789417  iHIT:     548563  iMISS:     240854  dACCESS:     925835  dHIT:     478131  dMISS:     447704  itACCESS:          0  itHIT:          0  itMISS:          0  dtACCESS:          0  dtHIT:          0  dtMISS:          0
cpu0_L2C RFO          ACCESS:     156268  HIT:      72408  MISS:      83860  iACCESS:          0  iHIT:          0  iMISS:          0  dACCESS:     156268  dHIT:      72408  dMISS:      83860  itACCESS:          0  itHIT:          0  itMISS:          0  dtACCESS:          0  dtHIT:          0  dtMISS:          0
cpu0_L2C PREFETCH     ACCESS:    4536987  HIT:    2581441  MISS:    1955546  iACCESS:    2472963  iHIT:    1625256  iMISS:     847707  dACCESS:    2064024  dHIT:     956185  dMISS:    1107839  itACCESS:          0  itHIT:          0  itMISS:          0  dtACCESS:          0  dtHIT:          0  dtMISS:          0
cpu0_L2C WRITE        ACCESS:     284031  HIT:     282604  MISS:       1427  iACCESS:          0  iHIT:          0  iMISS:          0  dACCESS:     284031  dHIT:     282604  dMISS:       1427  itACCESS:          0  itHIT:          0  itMISS:          0  dtACCESS:          0  dtHIT:          0  dtMISS:          0
cpu0_L2C TRANSLATION  ACCESS:     193356  HIT:      32567  MISS:     160789  iACCESS:          0  iHIT:          0  iMISS:          0  dACCESS:          0  dHIT:          0  dMISS:          0  itACCESS:       7755  itHIT:       1242  itMISS:       6513  dtACCESS:     185601  dtHIT:      31325  dtMISS:     154276
cpu0_L2C PREFETCH  REQUESTED:    1308396  ISSUED:    1308396  CROSSED:          0  USEFUL:     306443  USELESS:     224456
cpu0_L2C AVERAGE iMISS LATENCY: 25.0141 cycles
cpu0_L2C AVERAGE dMISS LATENCY: 46.7057 cycles
cpu0_L2C AVERAGE itMISS LATENCY: 0.31693 cycles
cpu0_L2C AVERAGE dtMISS LATENCY: 6.79242 cycles
cpu0_L2C PAGE CROSSINGS (TLB HIT):         0 
cpu0_L2C PAGE CROSSINGS (TLB MISS):         0 
cpu0_L2C AVERAGE MISS LATENCY: 78.8291 cycles
LLC TOTAL       ACCESS:    2918903  HIT:    1815665  MISS:    1103238  iACCESS:    1037177  iHIT:     683595  iMISS:     353582  dACCESS:    1720937  dHIT:    1069316  dMISS:     651621  itACCESS:       6513  itHIT:       2004  itMISS:       4509  dtACCESS:     154276  dtHIT:      60750  dtMISS:      93526
LLC LOAD         ACCESS:     687468  HIT:     438802  MISS:     248666  iACCESS:     239938  iHIT:     161077  iMISS:      78861  dACCESS:     447530  dHIT:     277725  dMISS:     169805  itACCESS:          0  itHIT:          0  itMISS:          0  dtACCESS:          0  dtHIT:          0  dtMISS:          0
LLC RFO          ACCESS:      83858  HIT:      46097  MISS:      37761  iACCESS:          0  iHIT:          0  iMISS:          0  dACCESS:      83858  dHIT:      46097  dMISS:      37761  itACCESS:          0  itHIT:          0  itMISS:          0  dtACCESS:          0  dtHIT:          0  dtMISS:          0
LLC PREFETCH     ACCESS:    1851839  HIT:    1138894  MISS:     712945  iACCESS:     797239  iHIT:     522518  iMISS:     274721  dACCESS:    1054600  dHIT:     616376  dMISS:     438224  itACCESS:          0  itHIT:          0  itMISS:          0  dtACCESS:          0  dtHIT:          0  dtMISS:          0
LLC WRITE        ACCESS:     134949  HIT:     129118  MISS:       5831  iACCESS:          0  iHIT:          0  iMISS:          0  dACCESS:     134949  dHIT:     129118  dMISS:       5831  itACCESS:          0  itHIT:          0  itMISS:          0  dtACCESS:          0  dtHIT:          0  dtMISS:          0
LLC TRANSLATION  ACCESS:     160789  HIT:      62754  MISS:      98035  iACCESS:          0  iHIT:          0  iMISS:          0  dACCESS:          0  dHIT:          0  dMISS:          0  itACCESS:       6513  itHIT:       2004  itMISS:       4509  dtACCESS:     154276  dtHIT:      60750  dtMISS:      93526
LLC PREFETCH  REQUESTED:          0  ISSUED:          0  CROSSED:          0  USEFUL:          0  USELESS:          0
LLC AVERAGE iMISS LATENCY: 47.2656 cycles
LLC AVERAGE dMISS LATENCY: 94.5081 cycles
LLC AVERAGE itMISS LATENCY: 0.714402 cycles
LLC AVERAGE dtMISS LATENCY: 15.0591 cycles
LLC PAGE CROSSINGS (TLB HIT):         0 
LLC PAGE CROSSINGS (TLB MISS):         0 
LLC AVERAGE MISS LATENCY: 157.548 cycles

PageTableWalker TOTAL       ACCESS:      71908  
PageTableWalker AVERAGE LATENCY: 5.84848 cycles
PageTableWalker TOTAL LATENCY: 420552 cycles

DRAM Statistics
Channel 0
 RQ ROW_BUFFER_HIT:     304196
  ROW_BUFFER_MISS:     793111
 AVG DBUS CONGESTED CYCLE:    3.62091
 WQ ROW_BUFFER_HIT:      21596
  ROW_BUFFER_MISS:      22101  FULL:          0

