last_page:0x200000000000000
VMEM_RES_CAP:0x100000
PAGE_SIZE:4096
LOG2_PAGE_SIZE:12
LOG2_PAGE_TABLE_SIZE:9
page_table_levels:5
WARNING: physical memory size is smaller than virtual memory size
FDiP enabled with aggresivity 16

*** ChampSim Multicore Out-of-Order Simulator ***

Warmup Instructions: 50000000
Simulation Instructions: 100000000
Number of CPUs: 1
Small page size: 4096
Large page size: 2097152

CPU 0 Bimodal branch predictor
Basic BTB sets: 1024 ways: 8 indirect buffer size: 4096 RAS size: 64
Instruction page size distrubution: 0
Loading instruction page size distribution from /home/bsc/bsc018186/scratch/itp_asplos25_AE/dump/srv255_ap.pdst
Data page size distrubution: 0
Loading data page size distribution from /home/bsc/bsc018186/scratch/itp_asplos25_AE/dump/srv255_ap.pdst
cpu0_L2C IP-based stride prefetcher
cpu0_L1D next line prefetcher
cpu0_L1I next line prefetcher
Off-chip DRAM Size: 4 GiB Channels: 1 Width: 64-bit Data Rate: 3200 MT/s
Heartbeat CPU 0 instructions: 10000000 cycles: 2500144 heartbeat IPC: 3.99977 cumulative IPC: 3.99977 (Simulation time: 0 hr 0 min 35 sec) 
Heartbeat CPU 0 instructions: 20000003 cycles: 5000166 heartbeat IPC: 3.99997 cumulative IPC: 3.99987 (Simulation time: 0 hr 1 min 12 sec) 
Heartbeat CPU 0 instructions: 30000000 cycles: 7500204 heartbeat IPC: 3.99994 cumulative IPC: 3.9999 (Simulation time: 0 hr 1 min 49 sec) 
Heartbeat CPU 0 instructions: 40000003 cycles: 10000265 heartbeat IPC: 3.99991 cumulative IPC: 3.9999 (Simulation time: 0 hr 2 min 27 sec) 
Heartbeat CPU 0 instructions: 50000003 cycles: 12500366 heartbeat IPC: 3.99984 cumulative IPC: 3.99989 (Simulation time: 0 hr 3 min 5 sec) 
Warmup finished CPU 0 instructions: 50000003 cycles: 12500367 cumulative IPC: 3.99989 (Simulation time: 0 hr 3 min 5 sec) 

Warmup complete CPU 0 instructions: 50000003 cycles: 12500367 (Simulation time: 0 hr 3 min 5 sec) 

Heartbeat CPU 0 instructions: 60000000 cycles: 30468597 heartbeat IPC: 0.556538 cumulative IPC: 0.556538 (Simulation time: 0 hr 4 min 16 sec) 
Heartbeat CPU 0 instructions: 70000000 cycles: 48012981 heartbeat IPC: 0.569983 cumulative IPC: 0.563181 (Simulation time: 0 hr 5 min 23 sec) 
Heartbeat CPU 0 instructions: 80000003 cycles: 66144107 heartbeat IPC: 0.551538 cumulative IPC: 0.559246 (Simulation time: 0 hr 6 min 28 sec) 
Heartbeat CPU 0 instructions: 90000001 cycles: 84280282 heartbeat IPC: 0.551385 cumulative IPC: 0.557259 (Simulation time: 0 hr 7 min 33 sec) 
Heartbeat CPU 0 instructions: 100000001 cycles: 101802319 heartbeat IPC: 0.57071 cumulative IPC: 0.559899 (Simulation time: 0 hr 8 min 38 sec) 
*** Reached end of trace: /gpfs/projects/bsc18/MN4/bsc18/romol/ChampSim/traces/qualcomm_srv/srv255_ap.champsimtrace.xz
Heartbeat CPU 0 instructions: 110000003 cycles: 120152118 heartbeat IPC: 0.544966 cumulative IPC: 0.557353 (Simulation time: 0 hr 9 min 44 sec) 
Heartbeat CPU 0 instructions: 120000002 cycles: 137702907 heartbeat IPC: 0.569775 cumulative IPC: 0.559095 (Simulation time: 0 hr 10 min 48 sec) 
Heartbeat CPU 0 instructions: 130000003 cycles: 155071160 heartbeat IPC: 0.575764 cumulative IPC: 0.561125 (Simulation time: 0 hr 11 min 53 sec) 
Heartbeat CPU 0 instructions: 140000002 cycles: 172873332 heartbeat IPC: 0.56173 cumulative IPC: 0.561192 (Simulation time: 0 hr 12 min 58 sec) 
Heartbeat CPU 0 instructions: 150000000 cycles: 190306204 heartbeat IPC: 0.573629 cumulative IPC: 0.562412 (Simulation time: 0 hr 14 min 2 sec) 
Simulation finished CPU 0 instructions: 100000000 cycles: 177805871 cumulative IPC: 0.562412 (Simulation time: 0 hr 14 min 2 sec) 

Simulation complete CPU 0 instructions: 100000000 cycles: 177805871 (Simulation time: 0 hr 14 min 2 sec) 


ChampSim completed all CPUs

Saving instructions large page distribution to /home/bsc/bsc018186/scratch/itp_asplos25_AE/dump/srv255_ap.pdst...
Saving data large page distribution to /home/bsc/bsc018186/scratch/itp_asplos25_AE/dump/srv255_ap.pdst...
=== Simulation ===
CPU 0 runs /gpfs/projects/bsc18/MN4/bsc18/romol/ChampSim/traces/qualcomm_srv/srv255_ap.champsimtrace.xz

Region of Interest Statistics

CPU 0 cumulative IPC: 0.562412 instructions: 100000000 cycles: 177805871
CPU 0 Branch Prediction Accuracy: 80.5354% MPKI: 35.1582 Average ROB Occupancy at Mispredict: 10.3585
Branch type MPKI
BRANCH_DIRECT_JUMP: 1.2894
BRANCH_INDIRECT: 17.6229
BRANCH_CONDITIONAL: 11.4115
BRANCH_DIRECT_CALL: 2.42672
BRANCH_INDIRECT_CALL: 0.697521
BRANCH_RETURN: 1.71029

Instructions large pages: 0
Instructions small pages: 5597
Large page distribution for instructions: 0%

Data large pages: 0
Data small pages: 4546
Large page distribution for data: 0%

cpu0_L1I TOTAL       ACCESS:   35738085  HIT:   27387276  MISS:    8350809  iACCESS:   35738085  iHIT:   27387276  iMISS:    8350809  dACCESS:          0  dHIT:          0  dMISS:          0  itACCESS:          0  itHIT:          0  itMISS:          0  dtACCESS:          0  dtHIT:          0  dtMISS:          0
cpu0_L1I LOAD         ACCESS:   10292535  HIT:    7999075  MISS:    2293460  iACCESS:   10292535  iHIT:    7999075  iMISS:    2293460  dACCESS:          0  dHIT:          0  dMISS:          0  itACCESS:          0  itHIT:          0  itMISS:          0  dtACCESS:          0  dtHIT:          0  dtMISS:          0
cpu0_L1I RFO          ACCESS:          0  HIT:          0  MISS:          0  iACCESS:          0  iHIT:          0  iMISS:          0  dACCESS:          0  dHIT:          0  dMISS:          0  itACCESS:          0  itHIT:          0  itMISS:          0  dtACCESS:          0  dtHIT:          0  dtMISS:          0
cpu0_L1I PREFETCH     ACCESS:   25445550  HIT:   19388201  MISS:    6057349  iACCESS:   25445550  iHIT:   19388201  iMISS:    6057349  dACCESS:          0  dHIT:          0  dMISS:          0  itACCESS:          0  itHIT:          0  itMISS:          0  dtACCESS:          0  dtHIT:          0  dtMISS:          0
cpu0_L1I WRITE        ACCESS:          0  HIT:          0  MISS:          0  iACCESS:          0  iHIT:          0  iMISS:          0  dACCESS:          0  dHIT:          0  dMISS:          0  itACCESS:          0  itHIT:          0  itMISS:          0  dtACCESS:          0  dtHIT:          0  dtMISS:          0
cpu0_L1I TRANSLATION  ACCESS:          0  HIT:          0  MISS:          0  iACCESS:          0  iHIT:          0  iMISS:          0  dACCESS:          0  dHIT:          0  dMISS:          0  itACCESS:          0  itHIT:          0  itMISS:          0  dtACCESS:          0  dtHIT:          0  dtMISS:          0
cpu0_L1I PREFETCH  REQUESTED:   27639025  ISSUED:   27636560  CROSSED:          0  USEFUL:    1970156  USELESS:     657863
cpu0_L1I AVERAGE iMISS LATENCY: 18.0211 cycles
cpu0_L1I AVERAGE dMISS LATENCY: 0 cycles
cpu0_L1I AVERAGE itMISS LATENCY: 0 cycles
cpu0_L1I AVERAGE dtMISS LATENCY: 0 cycles
cpu0_L1I PAGE CROSSINGS (TLB HIT):         0 
cpu0_L1I PAGE CROSSINGS (TLB MISS):         0 
cpu0_L1I AVERAGE MISS LATENCY: 18.0211 cycles
cpu0_ITLB TOTAL       ACCESS:   29896532  HIT:   27944015  MISS:    1952517  iACCESS:   29896532  iHIT:   27944015  iMISS:    1952517  dACCESS:          0  dHIT:          0  dMISS:          0  itACCESS:          0  itHIT:          0  itMISS:          0  dtACCESS:          0  dtHIT:          0  dtMISS:          0
cpu0_ITLB LOAD         ACCESS:   29896532  HIT:   27944015  MISS:    1952517  iACCESS:   29896532  iHIT:   27944015  iMISS:    1952517  dACCESS:          0  dHIT:          0  dMISS:          0  itACCESS:          0  itHIT:          0  itMISS:          0  dtACCESS:          0  dtHIT:          0  dtMISS:          0
cpu0_ITLB RFO          ACCESS:          0  HIT:          0  MISS:          0  iACCESS:          0  iHIT:          0  iMISS:          0  dACCESS:          0  dHIT:          0  dMISS:          0  itACCESS:          0  itHIT:          0  itMISS:          0  dtACCESS:          0  dtHIT:          0  dtMISS:          0
cpu0_ITLB PREFETCH     ACCESS:          0  HIT:          0  MISS:          0  iACCESS:          0  iHIT:          0  iMISS:          0  dACCESS:          0  dHIT:          0  dMISS:          0  itACCESS:          0  itHIT:          0  itMISS:          0  dtACCESS:          0  dtHIT:          0  dtMISS:          0
cpu0_ITLB WRITE        ACCESS:          0  HIT:          0  MISS:          0  iACCESS:          0  iHIT:          0  iMISS:          0  dACCESS:          0  dHIT:          0  dMISS:          0  itACCESS:          0  itHIT:          0  itMISS:          0  dtACCESS:          0  dtHIT:          0  dtMISS:          0
cpu0_ITLB TRANSLATION  ACCESS:          0  HIT:          0  MISS:          0  iACCESS:          0  iHIT:          0  iMISS:          0  dACCESS:          0  dHIT:          0  dMISS:          0  itACCESS:          0  itHIT:          0  itMISS:          0  dtACCESS:          0  dtHIT:          0  dtMISS:          0
cpu0_ITLB PREFETCH  REQUESTED:          0  ISSUED:          0  CROSSED:          0  USEFUL:     330653  USELESS:      62082
cpu0_ITLB AVERAGE iMISS LATENCY: 3.97523 cycles
cpu0_ITLB AVERAGE dMISS LATENCY: 0 cycles
cpu0_ITLB AVERAGE itMISS LATENCY: 0 cycles
cpu0_ITLB AVERAGE dtMISS LATENCY: 0 cycles
cpu0_ITLB PAGE CROSSINGS (TLB HIT):         0 
cpu0_ITLB PAGE CROSSINGS (TLB MISS):         0 
cpu0_ITLB AVERAGE MISS LATENCY: 3.97523 cycles
cpu0_DTLB TOTAL       ACCESS:   28016265  HIT:   26095430  MISS:    1920835  iACCESS:          0  iHIT:          0  iMISS:          0  dACCESS:   28016265  dHIT:   26095430  dMISS:    1920835  itACCESS:          0  itHIT:          0  itMISS:          0  dtACCESS:          0  dtHIT:          0  dtMISS:          0
cpu0_DTLB LOAD         ACCESS:   28016265  HIT:   26095430  MISS:    1920835  iACCESS:          0  iHIT:          0  iMISS:          0  dACCESS:   28016265  dHIT:   26095430  dMISS:    1920835  itACCESS:          0  itHIT:          0  itMISS:          0  dtACCESS:          0  dtHIT:          0  dtMISS:          0
cpu0_DTLB RFO          ACCESS:          0  HIT:          0  MISS:          0  iACCESS:          0  iHIT:          0  iMISS:          0  dACCESS:          0  dHIT:          0  dMISS:          0  itACCESS:          0  itHIT:          0  itMISS:          0  dtACCESS:          0  dtHIT:          0  dtMISS:          0
cpu0_DTLB PREFETCH     ACCESS:          0  HIT:          0  MISS:          0  iACCESS:          0  iHIT:          0  iMISS:          0  dACCESS:          0  dHIT:          0  dMISS:          0  itACCESS:          0  itHIT:          0  itMISS:          0  dtACCESS:          0  dtHIT:          0  dtMISS:          0
cpu0_DTLB WRITE        ACCESS:          0  HIT:          0  MISS:          0  iACCESS:          0  iHIT:          0  iMISS:          0  dACCESS:          0  dHIT:          0  dMISS:          0  itACCESS:          0  itHIT:          0  itMISS:          0  dtACCESS:          0  dtHIT:          0  dtMISS:          0
cpu0_DTLB TRANSLATION  ACCESS:          0  HIT:          0  MISS:          0  iACCESS:          0  iHIT:          0  iMISS:          0  dACCESS:          0  dHIT:          0  dMISS:          0  itACCESS:          0  itHIT:          0  itMISS:          0  dtACCESS:          0  dtHIT:          0  dtMISS:          0
cpu0_DTLB PREFETCH  REQUESTED:          0  ISSUED:          0  CROSSED:          0  USEFUL:          0  USELESS:          0
cpu0_DTLB AVERAGE iMISS LATENCY: 0 cycles
cpu0_DTLB AVERAGE dMISS LATENCY: 11.6239 cycles
cpu0_DTLB AVERAGE itMISS LATENCY: 0 cycles
cpu0_DTLB AVERAGE dtMISS LATENCY: 0 cycles
cpu0_DTLB PAGE CROSSINGS (TLB HIT):         0 
cpu0_DTLB PAGE CROSSINGS (TLB MISS):         0 
cpu0_DTLB AVERAGE MISS LATENCY: 11.6239 cycles
cpu0_STLB TOTAL       ACCESS:    1603923  HIT:    1374340  MISS:     229583  iACCESS:     392744  iHIT:     305971  iMISS:      86773  dACCESS:    1211179  dHIT:    1068369  dMISS:     142810  itACCESS:          0  itHIT:          0  itMISS:          0  dtACCESS:          0  dtHIT:          0  dtMISS:          0
cpu0_STLB LOAD         ACCESS:    1603923  HIT:    1374340  MISS:     229583  iACCESS:     392744  iHIT:     305971  iMISS:      86773  dACCESS:    1211179  dHIT:    1068369  dMISS:     142810  itACCESS:          0  itHIT:          0  itMISS:          0  dtACCESS:          0  dtHIT:          0  dtMISS:          0
cpu0_STLB RFO          ACCESS:          0  HIT:          0  MISS:          0  iACCESS:          0  iHIT:          0  iMISS:          0  dACCESS:          0  dHIT:          0  dMISS:          0  itACCESS:          0  itHIT:          0  itMISS:          0  dtACCESS:          0  dtHIT:          0  dtMISS:          0
cpu0_STLB PREFETCH     ACCESS:          0  HIT:          0  MISS:          0  iACCESS:          0  iHIT:          0  iMISS:          0  dACCESS:          0  dHIT:          0  dMISS:          0  itACCESS:          0  itHIT:          0  itMISS:          0  dtACCESS:          0  dtHIT:          0  dtMISS:          0
cpu0_STLB WRITE        ACCESS:          0  HIT:          0  MISS:          0  iACCESS:          0  iHIT:          0  iMISS:          0  dACCESS:          0  dHIT:          0  dMISS:          0  itACCESS:          0  itHIT:          0  itMISS:          0  dtACCESS:          0  dtHIT:          0  dtMISS:          0
cpu0_STLB TRANSLATION  ACCESS:          0  HIT:          0  MISS:          0  iACCESS:          0  iHIT:          0  iMISS:          0  dACCESS:          0  dHIT:          0  dMISS:          0  itACCESS:          0  itHIT:          0  itMISS:          0  dtACCESS:          0  dtHIT:          0  dtMISS:          0
cpu0_STLB PREFETCH  REQUESTED:          0  ISSUED:          0  CROSSED:          0  USEFUL:          0  USELESS:          0
cpu0_STLB AVERAGE iMISS LATENCY: 20.1734 cycles
cpu0_STLB AVERAGE dMISS LATENCY: 55.1015 cycles
cpu0_STLB AVERAGE itMISS LATENCY: 0 cycles
cpu0_STLB AVERAGE dtMISS LATENCY: 0 cycles
cpu0_STLB PAGE CROSSINGS (TLB HIT):         0 
cpu0_STLB PAGE CROSSINGS (TLB MISS):         0 
cpu0_STLB AVERAGE MISS LATENCY: 75.2749 cycles
cpu0_L1D TOTAL       ACCESS:   42501020  HIT:   38498560  MISS:    4002460  iACCESS:          0  iHIT:          0  iMISS:          0  dACCESS:   42214766  dHIT:   38471667  dMISS:    3743099  itACCESS:      93048  itHIT:      14881  itMISS:      78167  dtACCESS:     193206  dtHIT:      12012  dtMISS:     181194
cpu0_L1D LOAD         ACCESS:   19330777  HIT:   17621638  MISS:    1709139  iACCESS:          0  iHIT:          0  iMISS:          0  dACCESS:   19330777  dHIT:   17621638  dMISS:    1709139  itACCESS:          0  itHIT:          0  itMISS:          0  dtACCESS:          0  dtHIT:          0  dtMISS:          0
cpu0_L1D RFO          ACCESS:          0  HIT:          0  MISS:          0  iACCESS:          0  iHIT:          0  iMISS:          0  dACCESS:          0  dHIT:          0  dMISS:          0  itACCESS:          0  itHIT:          0  itMISS:          0  dtACCESS:          0  dtHIT:          0  dtMISS:          0
cpu0_L1D PREFETCH     ACCESS:   12707867  HIT:   11131661  MISS:    1576206  iACCESS:          0  iHIT:          0  iMISS:          0  dACCESS:   12707867  dHIT:   11131661  dMISS:    1576206  itACCESS:          0  itHIT:          0  itMISS:          0  dtACCESS:          0  dtHIT:          0  dtMISS:          0
cpu0_L1D WRITE        ACCESS:   10176122  HIT:    9718368  MISS:     457754  iACCESS:          0  iHIT:          0  iMISS:          0  dACCESS:   10176122  dHIT:    9718368  dMISS:     457754  itACCESS:          0  itHIT:          0  itMISS:          0  dtACCESS:          0  dtHIT:          0  dtMISS:          0
cpu0_L1D TRANSLATION  ACCESS:     286254  HIT:      26893  MISS:     259361  iACCESS:          0  iHIT:          0  iMISS:          0  dACCESS:          0  dHIT:          0  dMISS:          0  itACCESS:      93048  itHIT:      14881  itMISS:      78167  dtACCESS:     193206  dtHIT:      12012  dtMISS:     181194
cpu0_L1D PREFETCH  REQUESTED:   19330777  ISSUED:   17289939  CROSSED:          0  USEFUL:     309071  USELESS:     698832
cpu0_L1D AVERAGE iMISS LATENCY: 0 cycles
cpu0_L1D AVERAGE dMISS LATENCY: 38.5681 cycles
cpu0_L1D AVERAGE itMISS LATENCY: 0.971331 cycles
cpu0_L1D AVERAGE dtMISS LATENCY: 2.68757 cycles
cpu0_L1D PAGE CROSSINGS (TLB HIT):         0 
cpu0_L1D PAGE CROSSINGS (TLB MISS):         0 
cpu0_L1D AVERAGE MISS LATENCY: 42.227 cycles
cpu0_L2C TOTAL       ACCESS:    7227950  HIT:    1679592  MISS:    5548358  iACCESS:    3362547  iHIT:     867258  iMISS:    2495289  dACCESS:    3608621  dHIT:     655521  dMISS:    2953100  itACCESS:      78167  itHIT:      54355  itMISS:      23812  dtACCESS:     178615  dtHIT:     102458  dtMISS:      76157
cpu0_L2C LOAD         ACCESS:    1712677  HIT:     265394  MISS:    1447283  iACCESS:     771154  iHIT:     138042  iMISS:     633112  dACCESS:     941523  dHIT:     127352  dMISS:     814171  itACCESS:          0  itHIT:          0  itMISS:          0  dtACCESS:          0  dtHIT:          0  dtMISS:          0
cpu0_L2C RFO          ACCESS:     164907  HIT:      43840  MISS:     121067  iACCESS:          0  iHIT:          0  iMISS:          0  dACCESS:     164907  dHIT:      43840  dMISS:     121067  itACCESS:          0  itHIT:          0  itMISS:          0  dtACCESS:          0  dtHIT:          0  dtMISS:          0
cpu0_L2C PREFETCH     ACCESS:    4820951  HIT:    1092224  MISS:    3728727  iACCESS:    2591393  iHIT:     729216  iMISS:    1862177  dACCESS:    2229558  dHIT:     363008  dMISS:    1866550  itACCESS:          0  itHIT:          0  itMISS:          0  dtACCESS:          0  dtHIT:          0  dtMISS:          0
cpu0_L2C WRITE        ACCESS:     272633  HIT:     121321  MISS:     151312  iACCESS:          0  iHIT:          0  iMISS:          0  dACCESS:     272633  dHIT:     121321  dMISS:     151312  itACCESS:          0  itHIT:          0  itMISS:          0  dtACCESS:          0  dtHIT:          0  dtMISS:          0
cpu0_L2C TRANSLATION  ACCESS:     256782  HIT:     156813  MISS:      99969  iACCESS:          0  iHIT:          0  iMISS:          0  dACCESS:          0  dHIT:          0  dMISS:          0  itACCESS:      78167  itHIT:      54355  itMISS:      23812  dtACCESS:     178615  dtHIT:     102458  dtMISS:      76157
cpu0_L2C PREFETCH  REQUESTED:    1475989  ISSUED:    1475961  CROSSED:          0  USEFUL:     404473  USELESS:     423619
cpu0_L2C AVERAGE iMISS LATENCY: 21.6783 cycles
cpu0_L2C AVERAGE dMISS LATENCY: 34.9478 cycles
cpu0_L2C AVERAGE itMISS LATENCY: 0.569198 cycles
cpu0_L2C AVERAGE dtMISS LATENCY: 1.63408 cycles
cpu0_L2C PAGE CROSSINGS (TLB HIT):         0 
cpu0_L2C PAGE CROSSINGS (TLB MISS):         0 
cpu0_L2C AVERAGE MISS LATENCY: 58.8293 cycles
LLC TOTAL       ACCESS:    5375295  HIT:    3922865  MISS:    1452430  iACCESS:    2423088  iHIT:    1916156  iMISS:     506932  dACCESS:    2852238  dHIT:    1963777  dMISS:     888461  itACCESS:      23812  itHIT:       8167  itMISS:      15645  dtACCESS:      76157  dtHIT:      34765  dtMISS:      41392
LLC LOAD         ACCESS:    1441075  HIT:    1118815  MISS:     322260  iACCESS:     631465  iHIT:     526351  iMISS:     105114  dACCESS:     809610  dHIT:     592464  dMISS:     217146  itACCESS:          0  itHIT:          0  itMISS:          0  dtACCESS:          0  dtHIT:          0  dtMISS:          0
LLC RFO          ACCESS:     121066  HIT:      67302  MISS:      53764  iACCESS:          0  iHIT:          0  iMISS:          0  dACCESS:     121066  dHIT:      67302  dMISS:      53764  itACCESS:          0  itHIT:          0  itMISS:          0  dtACCESS:          0  dtHIT:          0  dtMISS:          0
LLC PREFETCH     ACCESS:    3565044  HIT:    2555394  MISS:    1009650  iACCESS:    1791623  iHIT:    1389805  iMISS:     401818  dACCESS:    1773421  dHIT:    1165589  dMISS:     607832  itACCESS:          0  itHIT:          0  itMISS:          0  dtACCESS:          0  dtHIT:          0  dtMISS:          0
LLC WRITE        ACCESS:     148141  HIT:     138422  MISS:       9719  iACCESS:          0  iHIT:          0  iMISS:          0  dACCESS:     148141  dHIT:     138422  dMISS:       9719  itACCESS:          0  itHIT:          0  itMISS:          0  dtACCESS:          0  dtHIT:          0  dtMISS:          0
LLC TRANSLATION  ACCESS:      99969  HIT:      42932  MISS:      57037  iACCESS:          0  iHIT:          0  iMISS:          0  dACCESS:          0  dHIT:          0  dMISS:          0  itACCESS:      23812  itHIT:       8167  itMISS:      15645  dtACCESS:      76157  dtHIT:      34765  dtMISS:      41392
LLC PREFETCH  REQUESTED:          0  ISSUED:          0  CROSSED:          0  USEFUL:          0  USELESS:          0
LLC AVERAGE iMISS LATENCY: 50.5177 cycles
LLC AVERAGE dMISS LATENCY: 98.1526 cycles
LLC AVERAGE itMISS LATENCY: 1.85278 cycles
LLC AVERAGE dtMISS LATENCY: 5.21888 cycles
LLC PAGE CROSSINGS (TLB HIT):         0 
LLC PAGE CROSSINGS (TLB MISS):         0 
LLC AVERAGE MISS LATENCY: 155.742 cycles

PageTableWalker TOTAL       ACCESS:     114578  
PageTableWalker AVERAGE LATENCY: 4.17289 cycles
PageTableWalker TOTAL LATENCY: 478121 cycles

DRAM Statistics
Channel 0
 RQ ROW_BUFFER_HIT:     438697
  ROW_BUFFER_MISS:     993639
 AVG DBUS CONGESTED CYCLE:    3.62567
 WQ ROW_BUFFER_HIT:      29206
  ROW_BUFFER_MISS:      23672  FULL:          0

