last_page:0x200000000000000
VMEM_RES_CAP:0x100000
PAGE_SIZE:4096
LOG2_PAGE_SIZE:12
LOG2_PAGE_TABLE_SIZE:9
page_table_levels:5
WARNING: physical memory size is smaller than virtual memory size
FDiP enabled with aggresivity 16

*** ChampSim Multicore Out-of-Order Simulator ***

Warmup Instructions: 50000000
Simulation Instructions: 100000000
Number of CPUs: 1
Small page size: 4096
Large page size: 2097152

CPU 0 Bimodal branch predictor
Basic BTB sets: 1024 ways: 8 indirect buffer size: 4096 RAS size: 64
Instruction page size distrubution: 0
Loading instruction page size distribution from /home/bsc/bsc018186/scratch/itp_asplos25_AE/dump/srv224_ap.pdst
Data page size distrubution: 0
Loading data page size distribution from /home/bsc/bsc018186/scratch/itp_asplos25_AE/dump/srv224_ap.pdst
cpu0_L2C IP-based stride prefetcher
cpu0_L1D next line prefetcher
cpu0_STLB using iTP with max lru@8
cpu0_STLB using iTP with instr@0 and data@2
Init sat counter with 3 bits (max:50).
cpu0_L1I next line prefetcher
Off-chip DRAM Size: 4 GiB Channels: 1 Width: 64-bit Data Rate: 3200 MT/s
Heartbeat CPU 0 instructions: 10000003 cycles: 2500215 heartbeat IPC: 3.99966 cumulative IPC: 3.99966 (Simulation time: 0 hr 0 min 37 sec) 
Heartbeat CPU 0 instructions: 20000004 cycles: 5067711 heartbeat IPC: 3.89485 cumulative IPC: 3.94656 (Simulation time: 0 hr 1 min 16 sec) 
Heartbeat CPU 0 instructions: 30000001 cycles: 8080417 heartbeat IPC: 3.31928 cumulative IPC: 3.71268 (Simulation time: 0 hr 1 min 57 sec) 
Heartbeat CPU 0 instructions: 40000001 cycles: 10589217 heartbeat IPC: 3.98597 cumulative IPC: 3.77743 (Simulation time: 0 hr 2 min 37 sec) 
Heartbeat CPU 0 instructions: 50000000 cycles: 13089294 heartbeat IPC: 3.99988 cumulative IPC: 3.81992 (Simulation time: 0 hr 3 min 17 sec) 
Warmup finished CPU 0 instructions: 50000000 cycles: 13089295 cumulative IPC: 3.81992 (Simulation time: 0 hr 3 min 17 sec) 

Warmup complete CPU 0 instructions: 50000000 cycles: 13089295 (Simulation time: 0 hr 3 min 17 sec) 

Heartbeat CPU 0 instructions: 60000000 cycles: 27285187 heartbeat IPC: 0.70443 cumulative IPC: 0.70443 (Simulation time: 0 hr 4 min 20 sec) 
Heartbeat CPU 0 instructions: 70000003 cycles: 43205224 heartbeat IPC: 0.62814 cumulative IPC: 0.664101 (Simulation time: 0 hr 5 min 27 sec) 
Heartbeat CPU 0 instructions: 80000004 cycles: 57313929 heartbeat IPC: 0.708783 cumulative IPC: 0.678356 (Simulation time: 0 hr 6 min 31 sec) 
Heartbeat CPU 0 instructions: 90000001 cycles: 72565828 heartbeat IPC: 0.655656 cumulative IPC: 0.672535 (Simulation time: 0 hr 7 min 36 sec) 
Heartbeat CPU 0 instructions: 100000000 cycles: 87068088 heartbeat IPC: 0.689548 cumulative IPC: 0.67587 (Simulation time: 0 hr 8 min 40 sec) 
*** Reached end of trace: /gpfs/projects/bsc18/MN4/bsc18/romol/ChampSim/traces/qualcomm_srv/srv224_ap.champsimtrace.xz
Heartbeat CPU 0 instructions: 110000004 cycles: 101933952 heartbeat IPC: 0.672683 cumulative IPC: 0.675337 (Simulation time: 0 hr 9 min 44 sec) 
Heartbeat CPU 0 instructions: 120000002 cycles: 115408285 heartbeat IPC: 0.742152 cumulative IPC: 0.684135 (Simulation time: 0 hr 10 min 46 sec) 
Heartbeat CPU 0 instructions: 130000001 cycles: 123893337 heartbeat IPC: 1.17855 cumulative IPC: 0.721996 (Simulation time: 0 hr 11 min 45 sec) 
Heartbeat CPU 0 instructions: 140000000 cycles: 136202705 heartbeat IPC: 0.81239 cumulative IPC: 0.731034 (Simulation time: 0 hr 12 min 46 sec) 
Heartbeat CPU 0 instructions: 150000002 cycles: 151572788 heartbeat IPC: 0.650615 cumulative IPC: 0.722108 (Simulation time: 0 hr 13 min 51 sec) 
Simulation finished CPU 0 instructions: 100000002 cycles: 138483494 cumulative IPC: 0.722108 (Simulation time: 0 hr 13 min 51 sec) 

Simulation complete CPU 0 instructions: 100000002 cycles: 138483494 (Simulation time: 0 hr 13 min 51 sec) 


ChampSim completed all CPUs

Saving instructions large page distribution to /home/bsc/bsc018186/scratch/itp_asplos25_AE/dump/srv224_ap.pdst...
Saving data large page distribution to /home/bsc/bsc018186/scratch/itp_asplos25_AE/dump/srv224_ap.pdst...
=== Simulation ===
CPU 0 runs /gpfs/projects/bsc18/MN4/bsc18/romol/ChampSim/traces/qualcomm_srv/srv224_ap.champsimtrace.xz

Region of Interest Statistics

CPU 0 cumulative IPC: 0.722108 instructions: 100000002 cycles: 138483494
CPU 0 Branch Prediction Accuracy: 84.847% MPKI: 29.0896 Average ROB Occupancy at Mispredict: 14.1559
Branch type MPKI
BRANCH_DIRECT_JUMP: 0.95753
BRANCH_INDIRECT: 15.2615
BRANCH_CONDITIONAL: 9.36381
BRANCH_DIRECT_CALL: 1.72292
BRANCH_INDIRECT_CALL: 0.54439
BRANCH_RETURN: 1.23953

Instructions large pages: 0
Instructions small pages: 1142
Large page distribution for instructions: 0%

Data large pages: 0
Data small pages: 9342
Large page distribution for data: 0%

cpu0_L1I TOTAL       ACCESS:   34922551  HIT:   27404182  MISS:    7518369  iACCESS:   34922551  iHIT:   27404182  iMISS:    7518369  dACCESS:          0  dHIT:          0  dMISS:          0  itACCESS:          0  itHIT:          0  itMISS:          0  dtACCESS:          0  dtHIT:          0  dtMISS:          0
cpu0_L1I LOAD         ACCESS:    9461228  HIT:    7359117  MISS:    2102111  iACCESS:    9461228  iHIT:    7359117  iMISS:    2102111  dACCESS:          0  dHIT:          0  dMISS:          0  itACCESS:          0  itHIT:          0  itMISS:          0  dtACCESS:          0  dtHIT:          0  dtMISS:          0
cpu0_L1I RFO          ACCESS:          0  HIT:          0  MISS:          0  iACCESS:          0  iHIT:          0  iMISS:          0  dACCESS:          0  dHIT:          0  dMISS:          0  itACCESS:          0  itHIT:          0  itMISS:          0  dtACCESS:          0  dtHIT:          0  dtMISS:          0
cpu0_L1I PREFETCH     ACCESS:   25461323  HIT:   20045065  MISS:    5416258  iACCESS:   25461323  iHIT:   20045065  iMISS:    5416258  dACCESS:          0  dHIT:          0  dMISS:          0  itACCESS:          0  itHIT:          0  itMISS:          0  dtACCESS:          0  dtHIT:          0  dtMISS:          0
cpu0_L1I WRITE        ACCESS:          0  HIT:          0  MISS:          0  iACCESS:          0  iHIT:          0  iMISS:          0  dACCESS:          0  dHIT:          0  dMISS:          0  itACCESS:          0  itHIT:          0  itMISS:          0  dtACCESS:          0  dtHIT:          0  dtMISS:          0
cpu0_L1I TRANSLATION  ACCESS:          0  HIT:          0  MISS:          0  iACCESS:          0  iHIT:          0  iMISS:          0  dACCESS:          0  dHIT:          0  dMISS:          0  itACCESS:          0  itHIT:          0  itMISS:          0  dtACCESS:          0  dtHIT:          0  dtMISS:          0
cpu0_L1I PREFETCH  REQUESTED:   27530219  ISSUED:   27528628  CROSSED:          0  USEFUL:    1743008  USELESS:     565268
cpu0_L1I AVERAGE iMISS LATENCY: 13.8381 cycles
cpu0_L1I AVERAGE dMISS LATENCY: 0 cycles
cpu0_L1I AVERAGE itMISS LATENCY: 0 cycles
cpu0_L1I AVERAGE dtMISS LATENCY: 0 cycles
cpu0_L1I PAGE CROSSINGS (TLB HIT):         0 
cpu0_L1I PAGE CROSSINGS (TLB MISS):         0 
cpu0_L1I AVERAGE MISS LATENCY: 13.8381 cycles
cpu0_ITLB TOTAL       ACCESS:   28989231  HIT:   27271894  MISS:    1717337  iACCESS:   28989231  iHIT:   27271894  iMISS:    1717337  dACCESS:          0  dHIT:          0  dMISS:          0  itACCESS:          0  itHIT:          0  itMISS:          0  dtACCESS:          0  dtHIT:          0  dtMISS:          0
cpu0_ITLB LOAD         ACCESS:   28989231  HIT:   27271894  MISS:    1717337  iACCESS:   28989231  iHIT:   27271894  iMISS:    1717337  dACCESS:          0  dHIT:          0  dMISS:          0  itACCESS:          0  itHIT:          0  itMISS:          0  dtACCESS:          0  dtHIT:          0  dtMISS:          0
cpu0_ITLB RFO          ACCESS:          0  HIT:          0  MISS:          0  iACCESS:          0  iHIT:          0  iMISS:          0  dACCESS:          0  dHIT:          0  dMISS:          0  itACCESS:          0  itHIT:          0  itMISS:          0  dtACCESS:          0  dtHIT:          0  dtMISS:          0
cpu0_ITLB PREFETCH     ACCESS:          0  HIT:          0  MISS:          0  iACCESS:          0  iHIT:          0  iMISS:          0  dACCESS:          0  dHIT:          0  dMISS:          0  itACCESS:          0  itHIT:          0  itMISS:          0  dtACCESS:          0  dtHIT:          0  dtMISS:          0
cpu0_ITLB WRITE        ACCESS:          0  HIT:          0  MISS:          0  iACCESS:          0  iHIT:          0  iMISS:          0  dACCESS:          0  dHIT:          0  dMISS:          0  itACCESS:          0  itHIT:          0  itMISS:          0  dtACCESS:          0  dtHIT:          0  dtMISS:          0
cpu0_ITLB TRANSLATION  ACCESS:          0  HIT:          0  MISS:          0  iACCESS:          0  iHIT:          0  iMISS:          0  dACCESS:          0  dHIT:          0  dMISS:          0  itACCESS:          0  itHIT:          0  itMISS:          0  dtACCESS:          0  dtHIT:          0  dtMISS:          0
cpu0_ITLB PREFETCH  REQUESTED:          0  ISSUED:          0  CROSSED:          0  USEFUL:     285193  USELESS:      57311
cpu0_ITLB AVERAGE iMISS LATENCY: 2.11201 cycles
cpu0_ITLB AVERAGE dMISS LATENCY: 0 cycles
cpu0_ITLB AVERAGE itMISS LATENCY: 0 cycles
cpu0_ITLB AVERAGE dtMISS LATENCY: 0 cycles
cpu0_ITLB PAGE CROSSINGS (TLB HIT):         0 
cpu0_ITLB PAGE CROSSINGS (TLB MISS):         0 
cpu0_ITLB AVERAGE MISS LATENCY: 2.11201 cycles
cpu0_DTLB TOTAL       ACCESS:   29662391  HIT:   25523909  MISS:    4138482  iACCESS:          0  iHIT:          0  iMISS:          0  dACCESS:   29662391  dHIT:   25523909  dMISS:    4138482  itACCESS:          0  itHIT:          0  itMISS:          0  dtACCESS:          0  dtHIT:          0  dtMISS:          0
cpu0_DTLB LOAD         ACCESS:   29662391  HIT:   25523909  MISS:    4138482  iACCESS:          0  iHIT:          0  iMISS:          0  dACCESS:   29662391  dHIT:   25523909  dMISS:    4138482  itACCESS:          0  itHIT:          0  itMISS:          0  dtACCESS:          0  dtHIT:          0  dtMISS:          0
cpu0_DTLB RFO          ACCESS:          0  HIT:          0  MISS:          0  iACCESS:          0  iHIT:          0  iMISS:          0  dACCESS:          0  dHIT:          0  dMISS:          0  itACCESS:          0  itHIT:          0  itMISS:          0  dtACCESS:          0  dtHIT:          0  dtMISS:          0
cpu0_DTLB PREFETCH     ACCESS:          0  HIT:          0  MISS:          0  iACCESS:          0  iHIT:          0  iMISS:          0  dACCESS:          0  dHIT:          0  dMISS:          0  itACCESS:          0  itHIT:          0  itMISS:          0  dtACCESS:          0  dtHIT:          0  dtMISS:          0
cpu0_DTLB WRITE        ACCESS:          0  HIT:          0  MISS:          0  iACCESS:          0  iHIT:          0  iMISS:          0  dACCESS:          0  dHIT:          0  dMISS:          0  itACCESS:          0  itHIT:          0  itMISS:          0  dtACCESS:          0  dtHIT:          0  dtMISS:          0
cpu0_DTLB TRANSLATION  ACCESS:          0  HIT:          0  MISS:          0  iACCESS:          0  iHIT:          0  iMISS:          0  dACCESS:          0  dHIT:          0  dMISS:          0  itACCESS:          0  itHIT:          0  itMISS:          0  dtACCESS:          0  dtHIT:          0  dtMISS:          0
cpu0_DTLB PREFETCH  REQUESTED:          0  ISSUED:          0  CROSSED:          0  USEFUL:          0  USELESS:          0
cpu0_DTLB AVERAGE iMISS LATENCY: 0 cycles
cpu0_DTLB AVERAGE dMISS LATENCY: 7.4247 cycles
cpu0_DTLB AVERAGE itMISS LATENCY: 0 cycles
cpu0_DTLB AVERAGE dtMISS LATENCY: 0 cycles
cpu0_DTLB PAGE CROSSINGS (TLB HIT):         0 
cpu0_DTLB PAGE CROSSINGS (TLB MISS):         0 
cpu0_DTLB AVERAGE MISS LATENCY: 7.4247 cycles
cpu0_STLB TOTAL       ACCESS:    2525733  HIT:    2389235  MISS:     136498  iACCESS:     342522  iHIT:     332154  iMISS:      10368  dACCESS:    2183211  dHIT:    2057081  dMISS:     126130  itACCESS:          0  itHIT:          0  itMISS:          0  dtACCESS:          0  dtHIT:          0  dtMISS:          0
cpu0_STLB LOAD         ACCESS:    2525733  HIT:    2389235  MISS:     136498  iACCESS:     342522  iHIT:     332154  iMISS:      10368  dACCESS:    2183211  dHIT:    2057081  dMISS:     126130  itACCESS:          0  itHIT:          0  itMISS:          0  dtACCESS:          0  dtHIT:          0  dtMISS:          0
cpu0_STLB RFO          ACCESS:          0  HIT:          0  MISS:          0  iACCESS:          0  iHIT:          0  iMISS:          0  dACCESS:          0  dHIT:          0  dMISS:          0  itACCESS:          0  itHIT:          0  itMISS:          0  dtACCESS:          0  dtHIT:          0  dtMISS:          0
cpu0_STLB PREFETCH     ACCESS:          0  HIT:          0  MISS:          0  iACCESS:          0  iHIT:          0  iMISS:          0  dACCESS:          0  dHIT:          0  dMISS:          0  itACCESS:          0  itHIT:          0  itMISS:          0  dtACCESS:          0  dtHIT:          0  dtMISS:          0
cpu0_STLB WRITE        ACCESS:          0  HIT:          0  MISS:          0  iACCESS:          0  iHIT:          0  iMISS:          0  dACCESS:          0  dHIT:          0  dMISS:          0  itACCESS:          0  itHIT:          0  itMISS:          0  dtACCESS:          0  dtHIT:          0  dtMISS:          0
cpu0_STLB TRANSLATION  ACCESS:          0  HIT:          0  MISS:          0  iACCESS:          0  iHIT:          0  iMISS:          0  dACCESS:          0  dHIT:          0  dMISS:          0  itACCESS:          0  itHIT:          0  itMISS:          0  dtACCESS:          0  dtHIT:          0  dtMISS:          0
cpu0_STLB PREFETCH  REQUESTED:          0  ISSUED:          0  CROSSED:          0  USEFUL:          0  USELESS:          0
cpu0_STLB AVERAGE iMISS LATENCY: 7.09353 cycles
cpu0_STLB AVERAGE dMISS LATENCY: 95.962 cycles
cpu0_STLB AVERAGE itMISS LATENCY: 0 cycles
cpu0_STLB AVERAGE dtMISS LATENCY: 0 cycles
cpu0_STLB PAGE CROSSINGS (TLB HIT):         0 
cpu0_STLB PAGE CROSSINGS (TLB MISS):         0 
cpu0_STLB AVERAGE MISS LATENCY: 103.056 cycles
cpu0_L1D TOTAL       ACCESS:   44666306  HIT:   38797315  MISS:    5868991  iACCESS:          0  iHIT:          0  iMISS:          0  dACCESS:   44466837  dHIT:   38784702  dMISS:    5682135  itACCESS:      12212  itHIT:       1091  itMISS:      11121  dtACCESS:     187257  dtHIT:      11522  dtMISS:     175735
cpu0_L1D LOAD         ACCESS:   21581637  HIT:   18262681  MISS:    3318956  iACCESS:          0  iHIT:          0  iMISS:          0  dACCESS:   21581637  dHIT:   18262681  dMISS:    3318956  itACCESS:          0  itHIT:          0  itMISS:          0  dtACCESS:          0  dtHIT:          0  dtMISS:          0
cpu0_L1D RFO          ACCESS:          0  HIT:          0  MISS:          0  iACCESS:          0  iHIT:          0  iMISS:          0  dACCESS:          0  dHIT:          0  dMISS:          0  itACCESS:          0  itHIT:          0  itMISS:          0  dtACCESS:          0  dtHIT:          0  dtMISS:          0
cpu0_L1D PREFETCH     ACCESS:   13056072  HIT:   11089738  MISS:    1966334  iACCESS:          0  iHIT:          0  iMISS:          0  dACCESS:   13056072  dHIT:   11089738  dMISS:    1966334  itACCESS:          0  itHIT:          0  itMISS:          0  dtACCESS:          0  dtHIT:          0  dtMISS:          0
cpu0_L1D WRITE        ACCESS:    9829128  HIT:    9432283  MISS:     396845  iACCESS:          0  iHIT:          0  iMISS:          0  dACCESS:    9829128  dHIT:    9432283  dMISS:     396845  itACCESS:          0  itHIT:          0  itMISS:          0  dtACCESS:          0  dtHIT:          0  dtMISS:          0
cpu0_L1D TRANSLATION  ACCESS:     199469  HIT:      12613  MISS:     186856  iACCESS:          0  iHIT:          0  iMISS:          0  dACCESS:          0  dHIT:          0  dMISS:          0  itACCESS:      12212  itHIT:       1091  itMISS:      11121  dtACCESS:     187257  dtHIT:      11522  dtMISS:     175735
cpu0_L1D PREFETCH  REQUESTED:   21581637  ISSUED:   17297731  CROSSED:          0  USEFUL:     275979  USELESS:     792921
cpu0_L1D AVERAGE iMISS LATENCY: 0 cycles
cpu0_L1D AVERAGE dMISS LATENCY: 23.5168 cycles
cpu0_L1D AVERAGE itMISS LATENCY: 0.146136 cycles
cpu0_L1D AVERAGE dtMISS LATENCY: 1.78816 cycles
cpu0_L1D PAGE CROSSINGS (TLB HIT):         0 
cpu0_L1D PAGE CROSSINGS (TLB MISS):         0 
cpu0_L1D AVERAGE MISS LATENCY: 25.4511 cycles
cpu0_L2C TOTAL       ACCESS:    7964483  HIT:    2421556  MISS:    5542927  iACCESS:    2966425  iHIT:     769350  iMISS:    2197075  dACCESS:    4819760  dHIT:    1559966  dMISS:    3259794  itACCESS:      11121  itHIT:       5333  itMISS:       5788  dtACCESS:     167177  dtHIT:      86907  dtMISS:      80270
cpu0_L2C LOAD         ACCESS:    2988012  HIT:    1074047  MISS:    1913965  iACCESS:     692931  iHIT:     128590  iMISS:     564341  dACCESS:    2295081  dHIT:     945457  dMISS:    1349624  itACCESS:          0  itHIT:          0  itMISS:          0  dtACCESS:          0  dtHIT:          0  dtMISS:          0
cpu0_L2C RFO          ACCESS:     162314  HIT:      54013  MISS:     108301  iACCESS:          0  iHIT:          0  iMISS:          0  dACCESS:     162314  dHIT:      54013  dMISS:     108301  itACCESS:          0  itHIT:          0  itMISS:          0  dtACCESS:          0  dtHIT:          0  dtMISS:          0
cpu0_L2C PREFETCH     ACCESS:    4383296  HIT:    1079666  MISS:    3303630  iACCESS:    2273494  iHIT:     640760  iMISS:    1632734  dACCESS:    2109802  dHIT:     438906  dMISS:    1670896  itACCESS:          0  itHIT:          0  itMISS:          0  dtACCESS:          0  dtHIT:          0  dtMISS:          0
cpu0_L2C WRITE        ACCESS:     252563  HIT:     121590  MISS:     130973  iACCESS:          0  iHIT:          0  iMISS:          0  dACCESS:     252563  dHIT:     121590  dMISS:     130973  itACCESS:          0  itHIT:          0  itMISS:          0  dtACCESS:          0  dtHIT:          0  dtMISS:          0
cpu0_L2C TRANSLATION  ACCESS:     178298  HIT:      92240  MISS:      86058  iACCESS:          0  iHIT:          0  iMISS:          0  dACCESS:          0  dHIT:          0  dMISS:          0  itACCESS:      11121  itHIT:       5333  itMISS:       5788  dtACCESS:     167177  dtHIT:      86907  dtMISS:      80270
cpu0_L2C PREFETCH  REQUESTED:    1275043  ISSUED:    1275043  CROSSED:          0  USEFUL:     371206  USELESS:     346321
cpu0_L2C AVERAGE iMISS LATENCY: 13.7861 cycles
cpu0_L2C AVERAGE dMISS LATENCY: 25.2883 cycles
cpu0_L2C AVERAGE itMISS LATENCY: 0.135579 cycles
cpu0_L2C AVERAGE dtMISS LATENCY: 1.6057 cycles
cpu0_L2C PAGE CROSSINGS (TLB HIT):         0 
cpu0_L2C PAGE CROSSINGS (TLB MISS):         0 
cpu0_L2C AVERAGE MISS LATENCY: 40.8156 cycles
LLC TOTAL       ACCESS:    5422997  HIT:    4630225  MISS:     792772  iACCESS:    2147755  iHIT:    1908937  iMISS:     238818  dACCESS:    3189184  dHIT:    2680110  dMISS:     509074  itACCESS:       5788  itHIT:       2140  itMISS:       3648  dtACCESS:      80270  dtHIT:      39038  dtMISS:      41232
LLC LOAD         ACCESS:    1911557  HIT:    1735461  MISS:     176096  iACCESS:     563090  iHIT:     512237  iMISS:      50853  dACCESS:    1348467  dHIT:    1223224  dMISS:     125243  itACCESS:          0  itHIT:          0  itMISS:          0  dtACCESS:          0  dtHIT:          0  dtMISS:          0
LLC RFO          ACCESS:     108301  HIT:      78563  MISS:      29738  iACCESS:          0  iHIT:          0  iMISS:          0  dACCESS:     108301  dHIT:      78563  dMISS:      29738  itACCESS:          0  itHIT:          0  itMISS:          0  dtACCESS:          0  dtHIT:          0  dtMISS:          0
LLC PREFETCH     ACCESS:    3196096  HIT:    2662869  MISS:     533227  iACCESS:    1584665  iHIT:    1396700  iMISS:     187965  dACCESS:    1611431  dHIT:    1266169  dMISS:     345262  itACCESS:          0  itHIT:          0  itMISS:          0  dtACCESS:          0  dtHIT:          0  dtMISS:          0
LLC WRITE        ACCESS:     120985  HIT:     112154  MISS:       8831  iACCESS:          0  iHIT:          0  iMISS:          0  dACCESS:     120985  dHIT:     112154  dMISS:       8831  itACCESS:          0  itHIT:          0  itMISS:          0  dtACCESS:          0  dtHIT:          0  dtMISS:          0
LLC TRANSLATION  ACCESS:      86058  HIT:      41178  MISS:      44880  iACCESS:          0  iHIT:          0  iMISS:          0  dACCESS:          0  dHIT:          0  dMISS:          0  itACCESS:       5788  itHIT:       2140  itMISS:       3648  dtACCESS:      80270  dtHIT:      39038  dtMISS:      41232
LLC PREFETCH  REQUESTED:          0  ISSUED:          0  CROSSED:          0  USEFUL:          0  USELESS:          0
LLC AVERAGE iMISS LATENCY: 44.1003 cycles
LLC AVERAGE dMISS LATENCY: 102 cycles
LLC AVERAGE itMISS LATENCY: 0.804984 cycles
LLC AVERAGE dtMISS LATENCY: 9.25241 cycles
LLC PAGE CROSSINGS (TLB HIT):         0 
LLC PAGE CROSSINGS (TLB MISS):         0 
LLC AVERAGE MISS LATENCY: 156.158 cycles

PageTableWalker TOTAL       ACCESS:      60973  
PageTableWalker AVERAGE LATENCY: 5.08611 cycles
PageTableWalker TOTAL LATENCY: 310115 cycles

DRAM Statistics
Channel 0
 RQ ROW_BUFFER_HIT:     222378
  ROW_BUFFER_MISS:     560842
 AVG DBUS CONGESTED CYCLE:    3.62616
 WQ ROW_BUFFER_HIT:      14377
  ROW_BUFFER_MISS:      18785  FULL:          0

