last_page:0x200000000000000
VMEM_RES_CAP:0x100000
PAGE_SIZE:4096
LOG2_PAGE_SIZE:12
LOG2_PAGE_TABLE_SIZE:9
page_table_levels:5
WARNING: physical memory size is smaller than virtual memory size
FDiP enabled with aggresivity 16

*** ChampSim Multicore Out-of-Order Simulator ***

Warmup Instructions: 50000000
Simulation Instructions: 100000000
Number of CPUs: 1
Small page size: 4096
Large page size: 2097152

CPU 0 Bimodal branch predictor
Basic BTB sets: 1024 ways: 8 indirect buffer size: 4096 RAS size: 64
Instruction page size distrubution: 0
Loading instruction page size distribution from /home/bsc/bsc018186/scratch/itp_asplos25_AE/dump/srv259_ap.pdst
Data page size distrubution: 0
Loading data page size distribution from /home/bsc/bsc018186/scratch/itp_asplos25_AE/dump/srv259_ap.pdst
cpu0_L2C IP-based stride prefetcher
cpu0_L1D next line prefetcher
CHiRPing...
cpu0_L1I next line prefetcher
Off-chip DRAM Size: 4 GiB Channels: 1 Width: 64-bit Data Rate: 3200 MT/s
Heartbeat CPU 0 instructions: 10000001 cycles: 2500151 heartbeat IPC: 3.99976 cumulative IPC: 3.99976 (Simulation time: 0 hr 0 min 39 sec) 
Heartbeat CPU 0 instructions: 20000003 cycles: 5000198 heartbeat IPC: 3.99993 cumulative IPC: 3.99985 (Simulation time: 0 hr 1 min 20 sec) 
Heartbeat CPU 0 instructions: 30000001 cycles: 7500553 heartbeat IPC: 3.99944 cumulative IPC: 3.99971 (Simulation time: 0 hr 2 min 2 sec) 
Heartbeat CPU 0 instructions: 40000000 cycles: 10000715 heartbeat IPC: 3.99975 cumulative IPC: 3.99972 (Simulation time: 0 hr 2 min 44 sec) 
Heartbeat CPU 0 instructions: 50000002 cycles: 12500826 heartbeat IPC: 3.99983 cumulative IPC: 3.99974 (Simulation time: 0 hr 3 min 26 sec) 
Warmup finished CPU 0 instructions: 50000002 cycles: 12500827 cumulative IPC: 3.99974 (Simulation time: 0 hr 3 min 26 sec) 

Warmup complete CPU 0 instructions: 50000002 cycles: 12500827 (Simulation time: 0 hr 3 min 26 sec) 

Heartbeat CPU 0 instructions: 60000000 cycles: 31054407 heartbeat IPC: 0.53898 cumulative IPC: 0.53898 (Simulation time: 0 hr 4 min 36 sec) 
Heartbeat CPU 0 instructions: 70000000 cycles: 49553063 heartbeat IPC: 0.54058 cumulative IPC: 0.539779 (Simulation time: 0 hr 5 min 47 sec) 
Heartbeat CPU 0 instructions: 80000000 cycles: 67837779 heartbeat IPC: 0.546905 cumulative IPC: 0.542134 (Simulation time: 0 hr 6 min 57 sec) 
Heartbeat CPU 0 instructions: 90000001 cycles: 85865324 heartbeat IPC: 0.554707 cumulative IPC: 0.545223 (Simulation time: 0 hr 8 min 7 sec) 
Heartbeat CPU 0 instructions: 100000004 cycles: 103326516 heartbeat IPC: 0.572699 cumulative IPC: 0.550506 (Simulation time: 0 hr 9 min 16 sec) 
*** Reached end of trace: /gpfs/projects/bsc18/MN4/bsc18/romol/ChampSim/traces/qualcomm_srv/srv259_ap.champsimtrace.xz
Heartbeat CPU 0 instructions: 110000000 cycles: 121337830 heartbeat IPC: 0.555207 cumulative IPC: 0.551284 (Simulation time: 0 hr 10 min 25 sec) 
Heartbeat CPU 0 instructions: 120000000 cycles: 139069069 heartbeat IPC: 0.563977 cumulative IPC: 0.553062 (Simulation time: 0 hr 11 min 33 sec) 
Heartbeat CPU 0 instructions: 130000001 cycles: 157850561 heartbeat IPC: 0.53244 cumulative IPC: 0.550397 (Simulation time: 0 hr 12 min 45 sec) 
Heartbeat CPU 0 instructions: 140000001 cycles: 176489456 heartbeat IPC: 0.536513 cumulative IPC: 0.548819 (Simulation time: 0 hr 13 min 55 sec) 
Heartbeat CPU 0 instructions: 150000002 cycles: 194960238 heartbeat IPC: 0.541396 cumulative IPC: 0.548068 (Simulation time: 0 hr 15 min 5 sec) 
Simulation finished CPU 0 instructions: 100000000 cycles: 182459412 cumulative IPC: 0.548068 (Simulation time: 0 hr 15 min 5 sec) 

Simulation complete CPU 0 instructions: 100000000 cycles: 182459412 (Simulation time: 0 hr 15 min 5 sec) 


ChampSim completed all CPUs

Saving instructions large page distribution to /home/bsc/bsc018186/scratch/itp_asplos25_AE/dump/srv259_ap.pdst...
Saving data large page distribution to /home/bsc/bsc018186/scratch/itp_asplos25_AE/dump/srv259_ap.pdst...
=== Simulation ===
CPU 0 runs /gpfs/projects/bsc18/MN4/bsc18/romol/ChampSim/traces/qualcomm_srv/srv259_ap.champsimtrace.xz

Region of Interest Statistics

CPU 0 cumulative IPC: 0.548068 instructions: 100000000 cycles: 182459412
CPU 0 Branch Prediction Accuracy: 80.0357% MPKI: 36.0161 Average ROB Occupancy at Mispredict: 10.2612
Branch type MPKI
BRANCH_DIRECT_JUMP: 1.37519
BRANCH_INDIRECT: 17.8918
BRANCH_CONDITIONAL: 11.6991
BRANCH_DIRECT_CALL: 2.60437
BRANCH_INDIRECT_CALL: 0.668601
BRANCH_RETURN: 1.77706

Instructions large pages: 0
Instructions small pages: 1161
Large page distribution for instructions: 0%

Data large pages: 0
Data small pages: 4752
Large page distribution for data: 0%

cpu0_L1I TOTAL       ACCESS:   36237919  HIT:   27982867  MISS:    8255052  iACCESS:   36237919  iHIT:   27982867  iMISS:    8255052  dACCESS:          0  dHIT:          0  dMISS:          0  itACCESS:          0  itHIT:          0  itMISS:          0  dtACCESS:          0  dtHIT:          0  dtMISS:          0
cpu0_L1I LOAD         ACCESS:   10571542  HIT:    8321269  MISS:    2250273  iACCESS:   10571542  iHIT:    8321269  iMISS:    2250273  dACCESS:          0  dHIT:          0  dMISS:          0  itACCESS:          0  itHIT:          0  itMISS:          0  dtACCESS:          0  dtHIT:          0  dtMISS:          0
cpu0_L1I RFO          ACCESS:          0  HIT:          0  MISS:          0  iACCESS:          0  iHIT:          0  iMISS:          0  dACCESS:          0  dHIT:          0  dMISS:          0  itACCESS:          0  itHIT:          0  itMISS:          0  dtACCESS:          0  dtHIT:          0  dtMISS:          0
cpu0_L1I PREFETCH     ACCESS:   25666377  HIT:   19661598  MISS:    6004779  iACCESS:   25666377  iHIT:   19661598  iMISS:    6004779  dACCESS:          0  dHIT:          0  dMISS:          0  itACCESS:          0  itHIT:          0  itMISS:          0  dtACCESS:          0  dtHIT:          0  dtMISS:          0
cpu0_L1I WRITE        ACCESS:          0  HIT:          0  MISS:          0  iACCESS:          0  iHIT:          0  iMISS:          0  dACCESS:          0  dHIT:          0  dMISS:          0  itACCESS:          0  itHIT:          0  itMISS:          0  dtACCESS:          0  dtHIT:          0  dtMISS:          0
cpu0_L1I TRANSLATION  ACCESS:          0  HIT:          0  MISS:          0  iACCESS:          0  iHIT:          0  iMISS:          0  dACCESS:          0  dHIT:          0  dMISS:          0  itACCESS:          0  itHIT:          0  itMISS:          0  dtACCESS:          0  dtHIT:          0  dtMISS:          0
cpu0_L1I PREFETCH  REQUESTED:   28042276  ISSUED:   28041169  CROSSED:          0  USEFUL:    1992562  USELESS:     639780
cpu0_L1I AVERAGE iMISS LATENCY: 18.806 cycles
cpu0_L1I AVERAGE dMISS LATENCY: 0 cycles
cpu0_L1I AVERAGE itMISS LATENCY: 0 cycles
cpu0_L1I AVERAGE dtMISS LATENCY: 0 cycles
cpu0_L1I PAGE CROSSINGS (TLB HIT):         0 
cpu0_L1I PAGE CROSSINGS (TLB MISS):         0 
cpu0_L1I AVERAGE MISS LATENCY: 18.806 cycles
cpu0_ITLB TOTAL       ACCESS:   30233754  HIT:   28335250  MISS:    1898504  iACCESS:   30233754  iHIT:   28335250  iMISS:    1898504  dACCESS:          0  dHIT:          0  dMISS:          0  itACCESS:          0  itHIT:          0  itMISS:          0  dtACCESS:          0  dtHIT:          0  dtMISS:          0
cpu0_ITLB LOAD         ACCESS:   30233754  HIT:   28335250  MISS:    1898504  iACCESS:   30233754  iHIT:   28335250  iMISS:    1898504  dACCESS:          0  dHIT:          0  dMISS:          0  itACCESS:          0  itHIT:          0  itMISS:          0  dtACCESS:          0  dtHIT:          0  dtMISS:          0
cpu0_ITLB RFO          ACCESS:          0  HIT:          0  MISS:          0  iACCESS:          0  iHIT:          0  iMISS:          0  dACCESS:          0  dHIT:          0  dMISS:          0  itACCESS:          0  itHIT:          0  itMISS:          0  dtACCESS:          0  dtHIT:          0  dtMISS:          0
cpu0_ITLB PREFETCH     ACCESS:          0  HIT:          0  MISS:          0  iACCESS:          0  iHIT:          0  iMISS:          0  dACCESS:          0  dHIT:          0  dMISS:          0  itACCESS:          0  itHIT:          0  itMISS:          0  dtACCESS:          0  dtHIT:          0  dtMISS:          0
cpu0_ITLB WRITE        ACCESS:          0  HIT:          0  MISS:          0  iACCESS:          0  iHIT:          0  iMISS:          0  dACCESS:          0  dHIT:          0  dMISS:          0  itACCESS:          0  itHIT:          0  itMISS:          0  dtACCESS:          0  dtHIT:          0  dtMISS:          0
cpu0_ITLB TRANSLATION  ACCESS:          0  HIT:          0  MISS:          0  iACCESS:          0  iHIT:          0  iMISS:          0  dACCESS:          0  dHIT:          0  dMISS:          0  itACCESS:          0  itHIT:          0  itMISS:          0  dtACCESS:          0  dtHIT:          0  dtMISS:          0
cpu0_ITLB PREFETCH  REQUESTED:          0  ISSUED:          0  CROSSED:          0  USEFUL:     324356  USELESS:      63967
cpu0_ITLB AVERAGE iMISS LATENCY: 4.30222 cycles
cpu0_ITLB AVERAGE dMISS LATENCY: 0 cycles
cpu0_ITLB AVERAGE itMISS LATENCY: 0 cycles
cpu0_ITLB AVERAGE dtMISS LATENCY: 0 cycles
cpu0_ITLB PAGE CROSSINGS (TLB HIT):         0 
cpu0_ITLB PAGE CROSSINGS (TLB MISS):         0 
cpu0_ITLB AVERAGE MISS LATENCY: 4.30222 cycles
cpu0_DTLB TOTAL       ACCESS:   27901533  HIT:   25920306  MISS:    1981227  iACCESS:          0  iHIT:          0  iMISS:          0  dACCESS:   27901533  dHIT:   25920306  dMISS:    1981227  itACCESS:          0  itHIT:          0  itMISS:          0  dtACCESS:          0  dtHIT:          0  dtMISS:          0
cpu0_DTLB LOAD         ACCESS:   27901533  HIT:   25920306  MISS:    1981227  iACCESS:          0  iHIT:          0  iMISS:          0  dACCESS:   27901533  dHIT:   25920306  dMISS:    1981227  itACCESS:          0  itHIT:          0  itMISS:          0  dtACCESS:          0  dtHIT:          0  dtMISS:          0
cpu0_DTLB RFO          ACCESS:          0  HIT:          0  MISS:          0  iACCESS:          0  iHIT:          0  iMISS:          0  dACCESS:          0  dHIT:          0  dMISS:          0  itACCESS:          0  itHIT:          0  itMISS:          0  dtACCESS:          0  dtHIT:          0  dtMISS:          0
cpu0_DTLB PREFETCH     ACCESS:          0  HIT:          0  MISS:          0  iACCESS:          0  iHIT:          0  iMISS:          0  dACCESS:          0  dHIT:          0  dMISS:          0  itACCESS:          0  itHIT:          0  itMISS:          0  dtACCESS:          0  dtHIT:          0  dtMISS:          0
cpu0_DTLB WRITE        ACCESS:          0  HIT:          0  MISS:          0  iACCESS:          0  iHIT:          0  iMISS:          0  dACCESS:          0  dHIT:          0  dMISS:          0  itACCESS:          0  itHIT:          0  itMISS:          0  dtACCESS:          0  dtHIT:          0  dtMISS:          0
cpu0_DTLB TRANSLATION  ACCESS:          0  HIT:          0  MISS:          0  iACCESS:          0  iHIT:          0  iMISS:          0  dACCESS:          0  dHIT:          0  dMISS:          0  itACCESS:          0  itHIT:          0  itMISS:          0  dtACCESS:          0  dtHIT:          0  dtMISS:          0
cpu0_DTLB PREFETCH  REQUESTED:          0  ISSUED:          0  CROSSED:          0  USEFUL:          0  USELESS:          0
cpu0_DTLB AVERAGE iMISS LATENCY: 0 cycles
cpu0_DTLB AVERAGE dMISS LATENCY: 11.4094 cycles
cpu0_DTLB AVERAGE itMISS LATENCY: 0 cycles
cpu0_DTLB AVERAGE dtMISS LATENCY: 0 cycles
cpu0_DTLB PAGE CROSSINGS (TLB HIT):         0 
cpu0_DTLB PAGE CROSSINGS (TLB MISS):         0 
cpu0_DTLB AVERAGE MISS LATENCY: 11.4094 cycles
cpu0_STLB TOTAL       ACCESS:    1602872  HIT:    1369863  MISS:     233009  iACCESS:     388339  iHIT:     297644  iMISS:      90695  dACCESS:    1214533  dHIT:    1072219  dMISS:     142314  itACCESS:          0  itHIT:          0  itMISS:          0  dtACCESS:          0  dtHIT:          0  dtMISS:          0
cpu0_STLB LOAD         ACCESS:    1602872  HIT:    1369863  MISS:     233009  iACCESS:     388339  iHIT:     297644  iMISS:      90695  dACCESS:    1214533  dHIT:    1072219  dMISS:     142314  itACCESS:          0  itHIT:          0  itMISS:          0  dtACCESS:          0  dtHIT:          0  dtMISS:          0
cpu0_STLB RFO          ACCESS:          0  HIT:          0  MISS:          0  iACCESS:          0  iHIT:          0  iMISS:          0  dACCESS:          0  dHIT:          0  dMISS:          0  itACCESS:          0  itHIT:          0  itMISS:          0  dtACCESS:          0  dtHIT:          0  dtMISS:          0
cpu0_STLB PREFETCH     ACCESS:          0  HIT:          0  MISS:          0  iACCESS:          0  iHIT:          0  iMISS:          0  dACCESS:          0  dHIT:          0  dMISS:          0  itACCESS:          0  itHIT:          0  itMISS:          0  dtACCESS:          0  dtHIT:          0  dtMISS:          0
cpu0_STLB WRITE        ACCESS:          0  HIT:          0  MISS:          0  iACCESS:          0  iHIT:          0  iMISS:          0  dACCESS:          0  dHIT:          0  dMISS:          0  itACCESS:          0  itHIT:          0  itMISS:          0  dtACCESS:          0  dtHIT:          0  dtMISS:          0
cpu0_STLB TRANSLATION  ACCESS:          0  HIT:          0  MISS:          0  iACCESS:          0  iHIT:          0  iMISS:          0  dACCESS:          0  dHIT:          0  dMISS:          0  itACCESS:          0  itHIT:          0  itMISS:          0  dtACCESS:          0  dtHIT:          0  dtMISS:          0
cpu0_STLB PREFETCH  REQUESTED:          0  ISSUED:          0  CROSSED:          0  USEFUL:          0  USELESS:          0
cpu0_STLB AVERAGE iMISS LATENCY: 21.7625 cycles
cpu0_STLB AVERAGE dMISS LATENCY: 55.3699 cycles
cpu0_STLB AVERAGE itMISS LATENCY: 0 cycles
cpu0_STLB AVERAGE dtMISS LATENCY: 0 cycles
cpu0_STLB PAGE CROSSINGS (TLB HIT):         0 
cpu0_STLB PAGE CROSSINGS (TLB MISS):         0 
cpu0_STLB AVERAGE MISS LATENCY: 77.1324 cycles
cpu0_L1D TOTAL       ACCESS:   42632950  HIT:   38517058  MISS:    4115892  iACCESS:          0  iHIT:          0  iMISS:          0  dACCESS:   42341433  dHIT:   38492333  dMISS:    3849100  itACCESS:      96693  itHIT:      13426  itMISS:      83267  dtACCESS:     194824  dtHIT:      11299  dtMISS:     183525
cpu0_L1D LOAD         ACCESS:   19387530  HIT:   17632022  MISS:    1755508  iACCESS:          0  iHIT:          0  iMISS:          0  dACCESS:   19387530  dHIT:   17632022  dMISS:    1755508  itACCESS:          0  itHIT:          0  itMISS:          0  dtACCESS:          0  dtHIT:          0  dtMISS:          0
cpu0_L1D RFO          ACCESS:          0  HIT:          0  MISS:          0  iACCESS:          0  iHIT:          0  iMISS:          0  dACCESS:          0  dHIT:          0  dMISS:          0  itACCESS:          0  itHIT:          0  itMISS:          0  dtACCESS:          0  dtHIT:          0  dtMISS:          0
cpu0_L1D PREFETCH     ACCESS:   12860412  HIT:   11210673  MISS:    1649739  iACCESS:          0  iHIT:          0  iMISS:          0  dACCESS:   12860412  dHIT:   11210673  dMISS:    1649739  itACCESS:          0  itHIT:          0  itMISS:          0  dtACCESS:          0  dtHIT:          0  dtMISS:          0
cpu0_L1D WRITE        ACCESS:   10093491  HIT:    9649638  MISS:     443853  iACCESS:          0  iHIT:          0  iMISS:          0  dACCESS:   10093491  dHIT:    9649638  dMISS:     443853  itACCESS:          0  itHIT:          0  itMISS:          0  dtACCESS:          0  dtHIT:          0  dtMISS:          0
cpu0_L1D TRANSLATION  ACCESS:     291517  HIT:      24725  MISS:     266792  iACCESS:          0  iHIT:          0  iMISS:          0  dACCESS:          0  dHIT:          0  dMISS:          0  itACCESS:      96693  itHIT:      13426  itMISS:      83267  dtACCESS:     194824  dtHIT:      11299  dtMISS:     183525
cpu0_L1D PREFETCH  REQUESTED:   19387530  ISSUED:   17338979  CROSSED:          0  USEFUL:     306459  USELESS:     698183
cpu0_L1D AVERAGE iMISS LATENCY: 0 cycles
cpu0_L1D AVERAGE dMISS LATENCY: 38.6243 cycles
cpu0_L1D AVERAGE itMISS LATENCY: 1.04009 cycles
cpu0_L1D AVERAGE dtMISS LATENCY: 2.66557 cycles
cpu0_L1D PAGE CROSSINGS (TLB HIT):         0 
cpu0_L1D PAGE CROSSINGS (TLB MISS):         0 
cpu0_L1D AVERAGE MISS LATENCY: 42.3299 cycles
cpu0_L2C TOTAL       ACCESS:    7242960  HIT:    1623419  MISS:    5619541  iACCESS:    3343480  iHIT:     824311  iMISS:    2519169  dACCESS:    3638404  dHIT:     639159  dMISS:    2999245  itACCESS:      83261  itHIT:      57153  itMISS:      26108  dtACCESS:     177815  dtHIT:     102796  dtMISS:      75019
cpu0_L2C LOAD         ACCESS:    1689030  HIT:     252352  MISS:    1436678  iACCESS:     749238  iHIT:     129257  iMISS:     619981  dACCESS:     939792  dHIT:     123095  dMISS:     816697  itACCESS:          0  itHIT:          0  itMISS:          0  dtACCESS:          0  dtHIT:          0  dtMISS:          0
cpu0_L2C RFO          ACCESS:     159287  HIT:      40998  MISS:     118289  iACCESS:          0  iHIT:          0  iMISS:          0  dACCESS:     159287  dHIT:      40998  dMISS:     118289  itACCESS:          0  itHIT:          0  itMISS:          0  dtACCESS:          0  dtHIT:          0  dtMISS:          0
cpu0_L2C PREFETCH     ACCESS:    4870392  HIT:    1054737  MISS:    3815655  iACCESS:    2594242  iHIT:     695054  iMISS:    1899188  dACCESS:    2276150  dHIT:     359683  dMISS:    1916467  itACCESS:          0  itHIT:          0  itMISS:          0  dtACCESS:          0  dtHIT:          0  dtMISS:          0
cpu0_L2C WRITE        ACCESS:     263175  HIT:     115383  MISS:     147792  iACCESS:          0  iHIT:          0  iMISS:          0  dACCESS:     263175  dHIT:     115383  dMISS:     147792  itACCESS:          0  itHIT:          0  itMISS:          0  dtACCESS:          0  dtHIT:          0  dtMISS:          0
cpu0_L2C TRANSLATION  ACCESS:     261076  HIT:     159949  MISS:     101127  iACCESS:          0  iHIT:          0  iMISS:          0  dACCESS:          0  dHIT:          0  dMISS:          0  itACCESS:      83261  itHIT:      57153  itMISS:      26108  dtACCESS:     177815  dtHIT:     102796  dtMISS:      75019
cpu0_L2C PREFETCH  REQUESTED:    1542216  ISSUED:    1542178  CROSSED:          0  USEFUL:     437734  USELESS:     432636
cpu0_L2C AVERAGE iMISS LATENCY: 22.3562 cycles
cpu0_L2C AVERAGE dMISS LATENCY: 36.0761 cycles
cpu0_L2C AVERAGE itMISS LATENCY: 0.623428 cycles
cpu0_L2C AVERAGE dtMISS LATENCY: 1.65299 cycles
cpu0_L2C PAGE CROSSINGS (TLB HIT):         0 
cpu0_L2C PAGE CROSSINGS (TLB MISS):         0 
cpu0_L2C AVERAGE MISS LATENCY: 60.7086 cycles
LLC TOTAL       ACCESS:    5432744  HIT:    3898264  MISS:    1534480  iACCESS:    2441129  iHIT:    1901526  iMISS:     539603  dACCESS:    2890488  dHIT:    1955328  dMISS:     935160  itACCESS:      26108  itHIT:       8852  itMISS:      17256  dtACCESS:      75019  dtHIT:      32558  dtMISS:      42461
LLC LOAD         ACCESS:    1429885  HIT:    1090976  MISS:     338909  iACCESS:     618776  iHIT:     504926  iMISS:     113850  dACCESS:     811109  dHIT:     586050  dMISS:     225059  itACCESS:          0  itHIT:          0  itMISS:          0  dtACCESS:          0  dtHIT:          0  dtMISS:          0
LLC RFO          ACCESS:     118285  HIT:      63987  MISS:      54298  iACCESS:          0  iHIT:          0  iMISS:          0  dACCESS:     118285  dHIT:      63987  dMISS:      54298  itACCESS:          0  itHIT:          0  itMISS:          0  dtACCESS:          0  dtHIT:          0  dtMISS:          0
LLC PREFETCH     ACCESS:    3638142  HIT:    2567201  MISS:    1070941  iACCESS:    1822353  iHIT:    1396600  iMISS:     425753  dACCESS:    1815789  dHIT:    1170601  dMISS:     645188  itACCESS:          0  itHIT:          0  itMISS:          0  dtACCESS:          0  dtHIT:          0  dtMISS:          0
LLC WRITE        ACCESS:     145305  HIT:     134690  MISS:      10615  iACCESS:          0  iHIT:          0  iMISS:          0  dACCESS:     145305  dHIT:     134690  dMISS:      10615  itACCESS:          0  itHIT:          0  itMISS:          0  dtACCESS:          0  dtHIT:          0  dtMISS:          0
LLC TRANSLATION  ACCESS:     101127  HIT:      41410  MISS:      59717  iACCESS:          0  iHIT:          0  iMISS:          0  dACCESS:          0  dHIT:          0  dMISS:          0  itACCESS:      26108  itHIT:       8852  itMISS:      17256  dtACCESS:      75019  dtHIT:      32558  dtMISS:      42461
LLC PREFETCH  REQUESTED:          0  ISSUED:          0  CROSSED:          0  USEFUL:          0  USELESS:          0
LLC AVERAGE iMISS LATENCY: 51.0854 cycles
LLC AVERAGE dMISS LATENCY: 98.4654 cycles
LLC AVERAGE itMISS LATENCY: 1.94933 cycles
LLC AVERAGE dtMISS LATENCY: 5.09822 cycles
LLC PAGE CROSSINGS (TLB HIT):         0 
LLC PAGE CROSSINGS (TLB MISS):         0 
LLC AVERAGE MISS LATENCY: 156.599 cycles

PageTableWalker TOTAL       ACCESS:     122397  
PageTableWalker AVERAGE LATENCY: 4.07443 cycles
PageTableWalker TOTAL LATENCY: 498697 cycles

DRAM Statistics
Channel 0
 RQ ROW_BUFFER_HIT:     461937
  ROW_BUFFER_MISS:    1047709
 AVG DBUS CONGESTED CYCLE:    3.63661
 WQ ROW_BUFFER_HIT:      29439
  ROW_BUFFER_MISS:      23506  FULL:          0

