last_page:0x200000000000000
VMEM_RES_CAP:0x100000
PAGE_SIZE:4096
LOG2_PAGE_SIZE:12
LOG2_PAGE_TABLE_SIZE:9
page_table_levels:5
WARNING: physical memory size is smaller than virtual memory size
FDiP enabled with aggresivity 16

*** ChampSim Multicore Out-of-Order Simulator ***

Warmup Instructions: 50000000
Simulation Instructions: 100000000
Number of CPUs: 1
Small page size: 4096
Large page size: 2097152

CPU 0 Bimodal branch predictor
Basic BTB sets: 1024 ways: 8 indirect buffer size: 4096 RAS size: 64
Instruction page size distrubution: 0
Loading instruction page size distribution from /home/bsc/bsc018186/scratch/itp_asplos25_AE/dump/srv259_ap.pdst
Data page size distrubution: 0
Loading data page size distribution from /home/bsc/bsc018186/scratch/itp_asplos25_AE/dump/srv259_ap.pdst
cpu0_L2C IP-based stride prefetcher
cpu0_L2C is using PTP replacement policy:
	TLB_STRESS_THRESHOLD:0
	PTE_EVICTION_RATIO:0
cpu0_L1D next line prefetcher
CHiRPing...
cpu0_L1I next line prefetcher
Off-chip DRAM Size: 4 GiB Channels: 1 Width: 64-bit Data Rate: 3200 MT/s
Heartbeat CPU 0 instructions: 10000003 cycles: 2500159 heartbeat IPC: 3.99975 cumulative IPC: 3.99975 (Simulation time: 0 hr 0 min 39 sec) 
Heartbeat CPU 0 instructions: 20000002 cycles: 5000197 heartbeat IPC: 3.99994 cumulative IPC: 3.99985 (Simulation time: 0 hr 1 min 19 sec) 
Heartbeat CPU 0 instructions: 30000002 cycles: 7500452 heartbeat IPC: 3.9996 cumulative IPC: 3.99976 (Simulation time: 0 hr 2 min 0 sec) 
Heartbeat CPU 0 instructions: 40000002 cycles: 10000604 heartbeat IPC: 3.99976 cumulative IPC: 3.99976 (Simulation time: 0 hr 2 min 41 sec) 
Heartbeat CPU 0 instructions: 50000001 cycles: 12500711 heartbeat IPC: 3.99983 cumulative IPC: 3.99978 (Simulation time: 0 hr 3 min 22 sec) 
Warmup finished CPU 0 instructions: 50000001 cycles: 12500712 cumulative IPC: 3.99978 (Simulation time: 0 hr 3 min 22 sec) 

Warmup complete CPU 0 instructions: 50000001 cycles: 12500712 (Simulation time: 0 hr 3 min 22 sec) 

Heartbeat CPU 0 instructions: 60000002 cycles: 31221381 heartbeat IPC: 0.534169 cumulative IPC: 0.534169 (Simulation time: 0 hr 4 min 32 sec) 
Heartbeat CPU 0 instructions: 70000000 cycles: 49911572 heartbeat IPC: 0.53504 cumulative IPC: 0.534605 (Simulation time: 0 hr 5 min 42 sec) 
Heartbeat CPU 0 instructions: 80000000 cycles: 68691759 heartbeat IPC: 0.532477 cumulative IPC: 0.533893 (Simulation time: 0 hr 6 min 52 sec) 
Heartbeat CPU 0 instructions: 90000001 cycles: 87416624 heartbeat IPC: 0.53405 cumulative IPC: 0.533932 (Simulation time: 0 hr 8 min 2 sec) 
Heartbeat CPU 0 instructions: 100000004 cycles: 105667546 heartbeat IPC: 0.547918 cumulative IPC: 0.536672 (Simulation time: 0 hr 9 min 11 sec) 
*** Reached end of trace: /gpfs/projects/bsc18/MN4/bsc18/romol/ChampSim/traces/qualcomm_srv/srv259_ap.champsimtrace.xz
Heartbeat CPU 0 instructions: 110000000 cycles: 124842804 heartbeat IPC: 0.521506 cumulative IPC: 0.534083 (Simulation time: 0 hr 10 min 21 sec) 
Heartbeat CPU 0 instructions: 120000000 cycles: 144607669 heartbeat IPC: 0.505949 cumulative IPC: 0.529874 (Simulation time: 0 hr 11 min 32 sec) 
Heartbeat CPU 0 instructions: 130000000 cycles: 165525522 heartbeat IPC: 0.478061 cumulative IPC: 0.522792 (Simulation time: 0 hr 12 min 45 sec) 
Heartbeat CPU 0 instructions: 140000001 cycles: 186447898 heartbeat IPC: 0.477958 cumulative IPC: 0.517399 (Simulation time: 0 hr 13 min 58 sec) 
Heartbeat CPU 0 instructions: 150000002 cycles: 207283808 heartbeat IPC: 0.479941 cumulative IPC: 0.513392 (Simulation time: 0 hr 15 min 11 sec) 
Simulation finished CPU 0 instructions: 100000001 cycles: 194783097 cumulative IPC: 0.513392 (Simulation time: 0 hr 15 min 11 sec) 

Simulation complete CPU 0 instructions: 100000001 cycles: 194783097 (Simulation time: 0 hr 15 min 11 sec) 


ChampSim completed all CPUs

Saving instructions large page distribution to /home/bsc/bsc018186/scratch/itp_asplos25_AE/dump/srv259_ap.pdst...
Saving data large page distribution to /home/bsc/bsc018186/scratch/itp_asplos25_AE/dump/srv259_ap.pdst...
=== Simulation ===
CPU 0 runs /gpfs/projects/bsc18/MN4/bsc18/romol/ChampSim/traces/qualcomm_srv/srv259_ap.champsimtrace.xz

Region of Interest Statistics

CPU 0 cumulative IPC: 0.513392 instructions: 100000001 cycles: 194783097
CPU 0 Branch Prediction Accuracy: 80.0357% MPKI: 36.016 Average ROB Occupancy at Mispredict: 10.362
Branch type MPKI
BRANCH_DIRECT_JUMP: 1.37518
BRANCH_INDIRECT: 17.8918
BRANCH_CONDITIONAL: 11.6991
BRANCH_DIRECT_CALL: 2.60436
BRANCH_INDIRECT_CALL: 0.6686
BRANCH_RETURN: 1.77705

Instructions large pages: 0
Instructions small pages: 1161
Large page distribution for instructions: 0%

Data large pages: 0
Data small pages: 4752
Large page distribution for data: 0%

cpu0_L1I TOTAL       ACCESS:   36094703  HIT:   28002394  MISS:    8092309  iACCESS:   36094703  iHIT:   28002394  iMISS:    8092309  dACCESS:          0  dHIT:          0  dMISS:          0  itACCESS:          0  itHIT:          0  itMISS:          0  dtACCESS:          0  dtHIT:          0  dtMISS:          0
cpu0_L1I LOAD         ACCESS:   10531010  HIT:    8327311  MISS:    2203699  iACCESS:   10531010  iHIT:    8327311  iMISS:    2203699  dACCESS:          0  dHIT:          0  dMISS:          0  itACCESS:          0  itHIT:          0  itMISS:          0  dtACCESS:          0  dtHIT:          0  dtMISS:          0
cpu0_L1I RFO          ACCESS:          0  HIT:          0  MISS:          0  iACCESS:          0  iHIT:          0  iMISS:          0  dACCESS:          0  dHIT:          0  dMISS:          0  itACCESS:          0  itHIT:          0  itMISS:          0  dtACCESS:          0  dtHIT:          0  dtMISS:          0
cpu0_L1I PREFETCH     ACCESS:   25563693  HIT:   19675083  MISS:    5888610  iACCESS:   25563693  iHIT:   19675083  iMISS:    5888610  dACCESS:          0  dHIT:          0  dMISS:          0  itACCESS:          0  itHIT:          0  itMISS:          0  dtACCESS:          0  dtHIT:          0  dtMISS:          0
cpu0_L1I WRITE        ACCESS:          0  HIT:          0  MISS:          0  iACCESS:          0  iHIT:          0  iMISS:          0  dACCESS:          0  dHIT:          0  dMISS:          0  itACCESS:          0  itHIT:          0  itMISS:          0  dtACCESS:          0  dtHIT:          0  dtMISS:          0
cpu0_L1I TRANSLATION  ACCESS:          0  HIT:          0  MISS:          0  iACCESS:          0  iHIT:          0  iMISS:          0  dACCESS:          0  dHIT:          0  dMISS:          0  itACCESS:          0  itHIT:          0  itMISS:          0  dtACCESS:          0  dtHIT:          0  dtMISS:          0
cpu0_L1I PREFETCH  REQUESTED:   28004052  ISSUED:   28003446  CROSSED:          0  USEFUL:    1993143  USELESS:     639899
cpu0_L1I AVERAGE iMISS LATENCY: 19.9622 cycles
cpu0_L1I AVERAGE dMISS LATENCY: 0 cycles
cpu0_L1I AVERAGE itMISS LATENCY: 0 cycles
cpu0_L1I AVERAGE dtMISS LATENCY: 0 cycles
cpu0_L1I PAGE CROSSINGS (TLB HIT):         0 
cpu0_L1I PAGE CROSSINGS (TLB MISS):         0 
cpu0_L1I AVERAGE MISS LATENCY: 19.9622 cycles
cpu0_ITLB TOTAL       ACCESS:   30201243  HIT:   28305148  MISS:    1896095  iACCESS:   30201243  iHIT:   28305148  iMISS:    1896095  dACCESS:          0  dHIT:          0  dMISS:          0  itACCESS:          0  itHIT:          0  itMISS:          0  dtACCESS:          0  dtHIT:          0  dtMISS:          0
cpu0_ITLB LOAD         ACCESS:   30201243  HIT:   28305148  MISS:    1896095  iACCESS:   30201243  iHIT:   28305148  iMISS:    1896095  dACCESS:          0  dHIT:          0  dMISS:          0  itACCESS:          0  itHIT:          0  itMISS:          0  dtACCESS:          0  dtHIT:          0  dtMISS:          0
cpu0_ITLB RFO          ACCESS:          0  HIT:          0  MISS:          0  iACCESS:          0  iHIT:          0  iMISS:          0  dACCESS:          0  dHIT:          0  dMISS:          0  itACCESS:          0  itHIT:          0  itMISS:          0  dtACCESS:          0  dtHIT:          0  dtMISS:          0
cpu0_ITLB PREFETCH     ACCESS:          0  HIT:          0  MISS:          0  iACCESS:          0  iHIT:          0  iMISS:          0  dACCESS:          0  dHIT:          0  dMISS:          0  itACCESS:          0  itHIT:          0  itMISS:          0  dtACCESS:          0  dtHIT:          0  dtMISS:          0
cpu0_ITLB WRITE        ACCESS:          0  HIT:          0  MISS:          0  iACCESS:          0  iHIT:          0  iMISS:          0  dACCESS:          0  dHIT:          0  dMISS:          0  itACCESS:          0  itHIT:          0  itMISS:          0  dtACCESS:          0  dtHIT:          0  dtMISS:          0
cpu0_ITLB TRANSLATION  ACCESS:          0  HIT:          0  MISS:          0  iACCESS:          0  iHIT:          0  iMISS:          0  dACCESS:          0  dHIT:          0  dMISS:          0  itACCESS:          0  itHIT:          0  itMISS:          0  dtACCESS:          0  dtHIT:          0  dtMISS:          0
cpu0_ITLB PREFETCH  REQUESTED:          0  ISSUED:          0  CROSSED:          0  USEFUL:     324350  USELESS:      64014
cpu0_ITLB AVERAGE iMISS LATENCY: 5.60621 cycles
cpu0_ITLB AVERAGE dMISS LATENCY: 0 cycles
cpu0_ITLB AVERAGE itMISS LATENCY: 0 cycles
cpu0_ITLB AVERAGE dtMISS LATENCY: 0 cycles
cpu0_ITLB PAGE CROSSINGS (TLB HIT):         0 
cpu0_ITLB PAGE CROSSINGS (TLB MISS):         0 
cpu0_ITLB AVERAGE MISS LATENCY: 5.60621 cycles
cpu0_DTLB TOTAL       ACCESS:   27896819  HIT:   25911963  MISS:    1984856  iACCESS:          0  iHIT:          0  iMISS:          0  dACCESS:   27896819  dHIT:   25911963  dMISS:    1984856  itACCESS:          0  itHIT:          0  itMISS:          0  dtACCESS:          0  dtHIT:          0  dtMISS:          0
cpu0_DTLB LOAD         ACCESS:   27896819  HIT:   25911963  MISS:    1984856  iACCESS:          0  iHIT:          0  iMISS:          0  dACCESS:   27896819  dHIT:   25911963  dMISS:    1984856  itACCESS:          0  itHIT:          0  itMISS:          0  dtACCESS:          0  dtHIT:          0  dtMISS:          0
cpu0_DTLB RFO          ACCESS:          0  HIT:          0  MISS:          0  iACCESS:          0  iHIT:          0  iMISS:          0  dACCESS:          0  dHIT:          0  dMISS:          0  itACCESS:          0  itHIT:          0  itMISS:          0  dtACCESS:          0  dtHIT:          0  dtMISS:          0
cpu0_DTLB PREFETCH     ACCESS:          0  HIT:          0  MISS:          0  iACCESS:          0  iHIT:          0  iMISS:          0  dACCESS:          0  dHIT:          0  dMISS:          0  itACCESS:          0  itHIT:          0  itMISS:          0  dtACCESS:          0  dtHIT:          0  dtMISS:          0
cpu0_DTLB WRITE        ACCESS:          0  HIT:          0  MISS:          0  iACCESS:          0  iHIT:          0  iMISS:          0  dACCESS:          0  dHIT:          0  dMISS:          0  itACCESS:          0  itHIT:          0  itMISS:          0  dtACCESS:          0  dtHIT:          0  dtMISS:          0
cpu0_DTLB TRANSLATION  ACCESS:          0  HIT:          0  MISS:          0  iACCESS:          0  iHIT:          0  iMISS:          0  dACCESS:          0  dHIT:          0  dMISS:          0  itACCESS:          0  itHIT:          0  itMISS:          0  dtACCESS:          0  dtHIT:          0  dtMISS:          0
cpu0_DTLB PREFETCH  REQUESTED:          0  ISSUED:          0  CROSSED:          0  USEFUL:          0  USELESS:          0
cpu0_DTLB AVERAGE iMISS LATENCY: 0 cycles
cpu0_DTLB AVERAGE dMISS LATENCY: 13.8635 cycles
cpu0_DTLB AVERAGE itMISS LATENCY: 0 cycles
cpu0_DTLB AVERAGE dtMISS LATENCY: 0 cycles
cpu0_DTLB PAGE CROSSINGS (TLB HIT):         0 
cpu0_DTLB PAGE CROSSINGS (TLB MISS):         0 
cpu0_DTLB AVERAGE MISS LATENCY: 13.8635 cycles
cpu0_STLB TOTAL       ACCESS:    1602690  HIT:    1369694  MISS:     232996  iACCESS:     388371  iHIT:     297687  iMISS:      90684  dACCESS:    1214319  dHIT:    1072007  dMISS:     142312  itACCESS:          0  itHIT:          0  itMISS:          0  dtACCESS:          0  dtHIT:          0  dtMISS:          0
cpu0_STLB LOAD         ACCESS:    1602690  HIT:    1369694  MISS:     232996  iACCESS:     388371  iHIT:     297687  iMISS:      90684  dACCESS:    1214319  dHIT:    1072007  dMISS:     142312  itACCESS:          0  itHIT:          0  itMISS:          0  dtACCESS:          0  dtHIT:          0  dtMISS:          0
cpu0_STLB RFO          ACCESS:          0  HIT:          0  MISS:          0  iACCESS:          0  iHIT:          0  iMISS:          0  dACCESS:          0  dHIT:          0  dMISS:          0  itACCESS:          0  itHIT:          0  itMISS:          0  dtACCESS:          0  dtHIT:          0  dtMISS:          0
cpu0_STLB PREFETCH     ACCESS:          0  HIT:          0  MISS:          0  iACCESS:          0  iHIT:          0  iMISS:          0  dACCESS:          0  dHIT:          0  dMISS:          0  itACCESS:          0  itHIT:          0  itMISS:          0  dtACCESS:          0  dtHIT:          0  dtMISS:          0
cpu0_STLB WRITE        ACCESS:          0  HIT:          0  MISS:          0  iACCESS:          0  iHIT:          0  iMISS:          0  dACCESS:          0  dHIT:          0  dMISS:          0  itACCESS:          0  itHIT:          0  itMISS:          0  dtACCESS:          0  dtHIT:          0  dtMISS:          0
cpu0_STLB TRANSLATION  ACCESS:          0  HIT:          0  MISS:          0  iACCESS:          0  iHIT:          0  iMISS:          0  dACCESS:          0  dHIT:          0  dMISS:          0  itACCESS:          0  itHIT:          0  itMISS:          0  dtACCESS:          0  dtHIT:          0  dtMISS:          0
cpu0_STLB PREFETCH  REQUESTED:          0  ISSUED:          0  CROSSED:          0  USEFUL:          0  USELESS:          0
cpu0_STLB AVERAGE iMISS LATENCY: 32.3213 cycles
cpu0_STLB AVERAGE dMISS LATENCY: 76.4461 cycles
cpu0_STLB AVERAGE itMISS LATENCY: 0 cycles
cpu0_STLB AVERAGE dtMISS LATENCY: 0 cycles
cpu0_STLB PAGE CROSSINGS (TLB HIT):         0 
cpu0_STLB PAGE CROSSINGS (TLB MISS):         0 
cpu0_STLB AVERAGE MISS LATENCY: 108.768 cycles
cpu0_L1D TOTAL       ACCESS:   42734004  HIT:   38494734  MISS:    4239270  iACCESS:          0  iHIT:          0  iMISS:          0  dACCESS:   42440634  dHIT:   38470167  dMISS:    3970467  itACCESS:      96662  itHIT:      13409  itMISS:      83253  dtACCESS:     196708  dtHIT:      11158  dtMISS:     185550
cpu0_L1D LOAD         ACCESS:   19425136  HIT:   17623222  MISS:    1801914  iACCESS:          0  iHIT:          0  iMISS:          0  dACCESS:   19425136  dHIT:   17623222  dMISS:    1801914  itACCESS:          0  itHIT:          0  itMISS:          0  dtACCESS:          0  dtHIT:          0  dtMISS:          0
cpu0_L1D RFO          ACCESS:          0  HIT:          0  MISS:          0  iACCESS:          0  iHIT:          0  iMISS:          0  dACCESS:          0  dHIT:          0  dMISS:          0  itACCESS:          0  itHIT:          0  itMISS:          0  dtACCESS:          0  dtHIT:          0  dtMISS:          0
cpu0_L1D PREFETCH     ACCESS:   12907810  HIT:   11205571  MISS:    1702239  iACCESS:          0  iHIT:          0  iMISS:          0  dACCESS:   12907810  dHIT:   11205571  dMISS:    1702239  itACCESS:          0  itHIT:          0  itMISS:          0  dtACCESS:          0  dtHIT:          0  dtMISS:          0
cpu0_L1D WRITE        ACCESS:   10107688  HIT:    9641374  MISS:     466314  iACCESS:          0  iHIT:          0  iMISS:          0  dACCESS:   10107688  dHIT:    9641374  dMISS:     466314  itACCESS:          0  itHIT:          0  itMISS:          0  dtACCESS:          0  dtHIT:          0  dtMISS:          0
cpu0_L1D TRANSLATION  ACCESS:     293370  HIT:      24567  MISS:     268803  iACCESS:          0  iHIT:          0  iMISS:          0  dACCESS:          0  dHIT:          0  dMISS:          0  itACCESS:      96662  itHIT:      13409  itMISS:      83253  dtACCESS:     196708  dtHIT:      11158  dtMISS:     185550
cpu0_L1D PREFETCH  REQUESTED:   19425136  ISSUED:   17331760  CROSSED:          0  USEFUL:     305244  USELESS:     699055
cpu0_L1D AVERAGE iMISS LATENCY: 0 cycles
cpu0_L1D AVERAGE dMISS LATENCY: 40.6326 cycles
cpu0_L1D AVERAGE itMISS LATENCY: 1.59018 cycles
cpu0_L1D AVERAGE dtMISS LATENCY: 3.74807 cycles
cpu0_L1D PAGE CROSSINGS (TLB HIT):         0 
cpu0_L1D PAGE CROSSINGS (TLB MISS):         0 
cpu0_L1D AVERAGE MISS LATENCY: 45.9708 cycles
cpu0_L2C TOTAL       ACCESS:    7247553  HIT:    2039833  MISS:    5207720  iACCESS:    3343936  iHIT:    1125228  iMISS:    2218708  dACCESS:    3642489  dHIT:     781285  dMISS:    2861204  itACCESS:      83253  itHIT:      43519  itMISS:      39734  dtACCESS:     177875  dtHIT:      89801  dtMISS:      88074
cpu0_L2C LOAD         ACCESS:    1689854  HIT:     378139  MISS:    1311715  iACCESS:     748709  iHIT:     218180  iMISS:     530529  dACCESS:     941145  dHIT:     159959  dMISS:     781186  itACCESS:          0  itHIT:          0  itMISS:          0  dtACCESS:          0  dtHIT:          0  dtMISS:          0
cpu0_L2C RFO          ACCESS:     159255  HIT:      26601  MISS:     132654  iACCESS:          0  iHIT:          0  iMISS:          0  dACCESS:     159255  dHIT:      26601  dMISS:     132654  itACCESS:          0  itHIT:          0  itMISS:          0  dtACCESS:          0  dtHIT:          0  dtMISS:          0
cpu0_L2C PREFETCH     ACCESS:    4874282  HIT:    1381121  MISS:    3493161  iACCESS:    2595227  iHIT:     907048  iMISS:    1688179  dACCESS:    2279055  dHIT:     474073  dMISS:    1804982  itACCESS:          0  itHIT:          0  itMISS:          0  dtACCESS:          0  dtHIT:          0  dtMISS:          0
cpu0_L2C WRITE        ACCESS:     263034  HIT:     120652  MISS:     142382  iACCESS:          0  iHIT:          0  iMISS:          0  dACCESS:     263034  dHIT:     120652  dMISS:     142382  itACCESS:          0  itHIT:          0  itMISS:          0  dtACCESS:          0  dtHIT:          0  dtMISS:          0
cpu0_L2C TRANSLATION  ACCESS:     261128  HIT:     133320  MISS:     127808  iACCESS:          0  iHIT:          0  iMISS:          0  dACCESS:          0  dHIT:          0  dMISS:          0  itACCESS:      83253  itHIT:      43519  itMISS:      39734  dtACCESS:     177875  dtHIT:      89801  dtMISS:      88074
cpu0_L2C PREFETCH  REQUESTED:    1544762  ISSUED:    1544759  CROSSED:          0  USEFUL:     429625  USELESS:     398407
cpu0_L2C AVERAGE iMISS LATENCY: 25.3509 cycles
cpu0_L2C AVERAGE dMISS LATENCY: 42.4151 cycles
cpu0_L2C AVERAGE itMISS LATENCY: 1.14256 cycles
cpu0_L2C AVERAGE dtMISS LATENCY: 2.72541 cycles
cpu0_L2C PAGE CROSSINGS (TLB HIT):         0 
cpu0_L2C PAGE CROSSINGS (TLB MISS):         0 
cpu0_L2C AVERAGE MISS LATENCY: 71.634 cycles
LLC TOTAL       ACCESS:    5077934  HIT:    3329084  MISS:    1748850  iACCESS:    2136120  iHIT:    1522216  iMISS:     613904  dACCESS:    2814006  dHIT:    1776223  dMISS:    1037783  itACCESS:      39734  itHIT:      10075  itMISS:      29659  dtACCESS:      88074  dtHIT:      20570  dtMISS:      67504
LLC LOAD         ACCESS:    1305295  HIT:     915619  MISS:     389676  iACCESS:     529219  iHIT:     400390  iMISS:     128829  dACCESS:     776076  dHIT:     515229  dMISS:     260847  itACCESS:          0  itHIT:          0  itMISS:          0  dtACCESS:          0  dtHIT:          0  dtMISS:          0
LLC RFO          ACCESS:     132650  HIT:      71040  MISS:      61610  iACCESS:          0  iHIT:          0  iMISS:          0  dACCESS:     132650  dHIT:      71040  dMISS:      61610  itACCESS:          0  itHIT:          0  itMISS:          0  dtACCESS:          0  dtHIT:          0  dtMISS:          0
LLC PREFETCH     ACCESS:    3304985  HIT:    2107188  MISS:    1197797  iACCESS:    1606901  iHIT:    1121826  iMISS:     485075  dACCESS:    1698084  dHIT:     985362  dMISS:     712722  itACCESS:          0  itHIT:          0  itMISS:          0  dtACCESS:          0  dtHIT:          0  dtMISS:          0
LLC WRITE        ACCESS:     207196  HIT:     204592  MISS:       2604  iACCESS:          0  iHIT:          0  iMISS:          0  dACCESS:     207196  dHIT:     204592  dMISS:       2604  itACCESS:          0  itHIT:          0  itMISS:          0  dtACCESS:          0  dtHIT:          0  dtMISS:          0
LLC TRANSLATION  ACCESS:     127808  HIT:      30645  MISS:      97163  iACCESS:          0  iHIT:          0  iMISS:          0  dACCESS:          0  dHIT:          0  dMISS:          0  itACCESS:      39734  itHIT:      10075  itMISS:      29659  dtACCESS:      88074  dtHIT:      20570  dtMISS:      67504
LLC PREFETCH  REQUESTED:          0  ISSUED:          0  CROSSED:          0  USEFUL:          0  USELESS:          0
LLC AVERAGE iMISS LATENCY: 51.7931 cycles
LLC AVERAGE dMISS LATENCY: 98.3408 cycles
LLC AVERAGE itMISS LATENCY: 2.95497 cycles
LLC AVERAGE dtMISS LATENCY: 7.12446 cycles
LLC PAGE CROSSINGS (TLB HIT):         0 
LLC PAGE CROSSINGS (TLB MISS):         0 
LLC AVERAGE MISS LATENCY: 160.214 cycles

PageTableWalker TOTAL       ACCESS:     122406  
PageTableWalker AVERAGE LATENCY: 3.72883 cycles
PageTableWalker TOTAL LATENCY: 456430 cycles

DRAM Statistics
Channel 0
 RQ ROW_BUFFER_HIT:     495722
  ROW_BUFFER_MISS:    1233362
 AVG DBUS CONGESTED CYCLE:    3.64401
 WQ ROW_BUFFER_HIT:      39526
  ROW_BUFFER_MISS:      33935  FULL:          0

