last_page:0x200000000000000
VMEM_RES_CAP:0x100000
PAGE_SIZE:4096
LOG2_PAGE_SIZE:12
LOG2_PAGE_TABLE_SIZE:9
page_table_levels:5
WARNING: physical memory size is smaller than virtual memory size
FDiP enabled with aggresivity 16

*** ChampSim Multicore Out-of-Order Simulator ***

Warmup Instructions: 50000000
Simulation Instructions: 100000000
Number of CPUs: 1
Small page size: 4096
Large page size: 2097152

CPU 0 Bimodal branch predictor
Basic BTB sets: 1024 ways: 8 indirect buffer size: 4096 RAS size: 64
Instruction page size distrubution: 0
Loading instruction page size distribution from /home/bsc/bsc018186/scratch/itp_asplos25_AE/dump/srv255_ap.pdst
Data page size distrubution: 0
Loading data page size distribution from /home/bsc/bsc018186/scratch/itp_asplos25_AE/dump/srv255_ap.pdst
cpu0_L2C IP-based stride prefetcher
cpu0_L2C is using PTP replacement policy:
	TLB_STRESS_THRESHOLD:0
	PTE_EVICTION_RATIO:0
cpu0_L1D next line prefetcher
CHiRPing...
cpu0_L1I next line prefetcher
Off-chip DRAM Size: 4 GiB Channels: 1 Width: 64-bit Data Rate: 3200 MT/s
Heartbeat CPU 0 instructions: 10000002 cycles: 2500163 heartbeat IPC: 3.99975 cumulative IPC: 3.99975 (Simulation time: 0 hr 0 min 38 sec) 
Heartbeat CPU 0 instructions: 20000000 cycles: 5000205 heartbeat IPC: 3.99994 cumulative IPC: 3.99984 (Simulation time: 0 hr 1 min 19 sec) 
Heartbeat CPU 0 instructions: 30000002 cycles: 7500237 heartbeat IPC: 3.99995 cumulative IPC: 3.99988 (Simulation time: 0 hr 2 min 0 sec) 
Heartbeat CPU 0 instructions: 40000000 cycles: 10000265 heartbeat IPC: 3.99996 cumulative IPC: 3.9999 (Simulation time: 0 hr 2 min 42 sec) 
Heartbeat CPU 0 instructions: 50000001 cycles: 12500282 heartbeat IPC: 3.99998 cumulative IPC: 3.99991 (Simulation time: 0 hr 3 min 23 sec) 
Warmup finished CPU 0 instructions: 50000001 cycles: 12500283 cumulative IPC: 3.99991 (Simulation time: 0 hr 3 min 23 sec) 

Warmup complete CPU 0 instructions: 50000001 cycles: 12500283 (Simulation time: 0 hr 3 min 23 sec) 

Heartbeat CPU 0 instructions: 60000000 cycles: 30630581 heartbeat IPC: 0.551563 cumulative IPC: 0.551563 (Simulation time: 0 hr 4 min 34 sec) 
Heartbeat CPU 0 instructions: 70000000 cycles: 48301605 heartbeat IPC: 0.565899 cumulative IPC: 0.558639 (Simulation time: 0 hr 5 min 45 sec) 
Heartbeat CPU 0 instructions: 80000001 cycles: 66689907 heartbeat IPC: 0.543825 cumulative IPC: 0.553612 (Simulation time: 0 hr 6 min 55 sec) 
Heartbeat CPU 0 instructions: 90000002 cycles: 84962646 heartbeat IPC: 0.547264 cumulative IPC: 0.552011 (Simulation time: 0 hr 8 min 6 sec) 
Heartbeat CPU 0 instructions: 100000001 cycles: 103274089 heartbeat IPC: 0.546107 cumulative IPC: 0.55082 (Simulation time: 0 hr 9 min 15 sec) 
*** Reached end of trace: /gpfs/projects/bsc18/MN4/bsc18/romol/ChampSim/traces/qualcomm_srv/srv255_ap.champsimtrace.xz
Heartbeat CPU 0 instructions: 110000003 cycles: 122692794 heartbeat IPC: 0.514968 cumulative IPC: 0.544502 (Simulation time: 0 hr 10 min 28 sec) 
Heartbeat CPU 0 instructions: 120000002 cycles: 142094580 heartbeat IPC: 0.515417 cumulative IPC: 0.540148 (Simulation time: 0 hr 11 min 41 sec) 
Heartbeat CPU 0 instructions: 130000003 cycles: 161627980 heartbeat IPC: 0.511944 cumulative IPC: 0.536454 (Simulation time: 0 hr 12 min 54 sec) 
Heartbeat CPU 0 instructions: 140000002 cycles: 181626123 heartbeat IPC: 0.500047 cumulative IPC: 0.532149 (Simulation time: 0 hr 14 min 8 sec) 
Heartbeat CPU 0 instructions: 150000000 cycles: 201221291 heartbeat IPC: 0.51033 cumulative IPC: 0.529883 (Simulation time: 0 hr 15 min 20 sec) 
Simulation finished CPU 0 instructions: 100000000 cycles: 188721010 cumulative IPC: 0.529883 (Simulation time: 0 hr 15 min 20 sec) 

Simulation complete CPU 0 instructions: 100000000 cycles: 188721010 (Simulation time: 0 hr 15 min 20 sec) 


ChampSim completed all CPUs

Saving instructions large page distribution to /home/bsc/bsc018186/scratch/itp_asplos25_AE/dump/srv255_ap.pdst...
Saving data large page distribution to /home/bsc/bsc018186/scratch/itp_asplos25_AE/dump/srv255_ap.pdst...
=== Simulation ===
CPU 0 runs /gpfs/projects/bsc18/MN4/bsc18/romol/ChampSim/traces/qualcomm_srv/srv255_ap.champsimtrace.xz

Region of Interest Statistics

CPU 0 cumulative IPC: 0.529883 instructions: 100000000 cycles: 188721010
CPU 0 Branch Prediction Accuracy: 80.5354% MPKI: 35.1582 Average ROB Occupancy at Mispredict: 10.5538
Branch type MPKI
BRANCH_DIRECT_JUMP: 1.2894
BRANCH_INDIRECT: 17.6229
BRANCH_CONDITIONAL: 11.4115
BRANCH_DIRECT_CALL: 2.42672
BRANCH_INDIRECT_CALL: 0.697521
BRANCH_RETURN: 1.71029

Instructions large pages: 0
Instructions small pages: 5597
Large page distribution for instructions: 0%

Data large pages: 0
Data small pages: 4546
Large page distribution for data: 0%

cpu0_L1I TOTAL       ACCESS:   35623996  HIT:   27376526  MISS:    8247470  iACCESS:   35623996  iHIT:   27376526  iMISS:    8247470  dACCESS:          0  dHIT:          0  dMISS:          0  itACCESS:          0  itHIT:          0  itMISS:          0  dtACCESS:          0  dtHIT:          0  dtMISS:          0
cpu0_L1I LOAD         ACCESS:   10260614  HIT:    7992043  MISS:    2268571  iACCESS:   10260614  iHIT:    7992043  iMISS:    2268571  dACCESS:          0  dHIT:          0  dMISS:          0  itACCESS:          0  itHIT:          0  itMISS:          0  dtACCESS:          0  dtHIT:          0  dtMISS:          0
cpu0_L1I RFO          ACCESS:          0  HIT:          0  MISS:          0  iACCESS:          0  iHIT:          0  iMISS:          0  dACCESS:          0  dHIT:          0  dMISS:          0  itACCESS:          0  itHIT:          0  itMISS:          0  dtACCESS:          0  dtHIT:          0  dtMISS:          0
cpu0_L1I PREFETCH     ACCESS:   25363382  HIT:   19384483  MISS:    5978899  iACCESS:   25363382  iHIT:   19384483  iMISS:    5978899  dACCESS:          0  dHIT:          0  dMISS:          0  itACCESS:          0  itHIT:          0  itMISS:          0  dtACCESS:          0  dtHIT:          0  dtMISS:          0
cpu0_L1I WRITE        ACCESS:          0  HIT:          0  MISS:          0  iACCESS:          0  iHIT:          0  iMISS:          0  dACCESS:          0  dHIT:          0  dMISS:          0  itACCESS:          0  itHIT:          0  itMISS:          0  dtACCESS:          0  dtHIT:          0  dtMISS:          0
cpu0_L1I TRANSLATION  ACCESS:          0  HIT:          0  MISS:          0  iACCESS:          0  iHIT:          0  iMISS:          0  dACCESS:          0  dHIT:          0  dMISS:          0  itACCESS:          0  itHIT:          0  itMISS:          0  dtACCESS:          0  dtHIT:          0  dtMISS:          0
cpu0_L1I PREFETCH  REQUESTED:   27608073  ISSUED:   27607271  CROSSED:          0  USEFUL:    1969935  USELESS:     657912
cpu0_L1I AVERAGE iMISS LATENCY: 19.0456 cycles
cpu0_L1I AVERAGE dMISS LATENCY: 0 cycles
cpu0_L1I AVERAGE itMISS LATENCY: 0 cycles
cpu0_L1I AVERAGE dtMISS LATENCY: 0 cycles
cpu0_L1I PAGE CROSSINGS (TLB HIT):         0 
cpu0_L1I PAGE CROSSINGS (TLB MISS):         0 
cpu0_L1I AVERAGE MISS LATENCY: 19.0456 cycles
cpu0_ITLB TOTAL       ACCESS:   29873191  HIT:   27920756  MISS:    1952435  iACCESS:   29873191  iHIT:   27920756  iMISS:    1952435  dACCESS:          0  dHIT:          0  dMISS:          0  itACCESS:          0  itHIT:          0  itMISS:          0  dtACCESS:          0  dtHIT:          0  dtMISS:          0
cpu0_ITLB LOAD         ACCESS:   29873191  HIT:   27920756  MISS:    1952435  iACCESS:   29873191  iHIT:   27920756  iMISS:    1952435  dACCESS:          0  dHIT:          0  dMISS:          0  itACCESS:          0  itHIT:          0  itMISS:          0  dtACCESS:          0  dtHIT:          0  dtMISS:          0
cpu0_ITLB RFO          ACCESS:          0  HIT:          0  MISS:          0  iACCESS:          0  iHIT:          0  iMISS:          0  dACCESS:          0  dHIT:          0  dMISS:          0  itACCESS:          0  itHIT:          0  itMISS:          0  dtACCESS:          0  dtHIT:          0  dtMISS:          0
cpu0_ITLB PREFETCH     ACCESS:          0  HIT:          0  MISS:          0  iACCESS:          0  iHIT:          0  iMISS:          0  dACCESS:          0  dHIT:          0  dMISS:          0  itACCESS:          0  itHIT:          0  itMISS:          0  dtACCESS:          0  dtHIT:          0  dtMISS:          0
cpu0_ITLB WRITE        ACCESS:          0  HIT:          0  MISS:          0  iACCESS:          0  iHIT:          0  iMISS:          0  dACCESS:          0  dHIT:          0  dMISS:          0  itACCESS:          0  itHIT:          0  itMISS:          0  dtACCESS:          0  dtHIT:          0  dtMISS:          0
cpu0_ITLB TRANSLATION  ACCESS:          0  HIT:          0  MISS:          0  iACCESS:          0  iHIT:          0  iMISS:          0  dACCESS:          0  dHIT:          0  dMISS:          0  itACCESS:          0  itHIT:          0  itMISS:          0  dtACCESS:          0  dtHIT:          0  dtMISS:          0
cpu0_ITLB PREFETCH  REQUESTED:          0  ISSUED:          0  CROSSED:          0  USEFUL:     330734  USELESS:      62006
cpu0_ITLB AVERAGE iMISS LATENCY: 5.00967 cycles
cpu0_ITLB AVERAGE dMISS LATENCY: 0 cycles
cpu0_ITLB AVERAGE itMISS LATENCY: 0 cycles
cpu0_ITLB AVERAGE dtMISS LATENCY: 0 cycles
cpu0_ITLB PAGE CROSSINGS (TLB HIT):         0 
cpu0_ITLB PAGE CROSSINGS (TLB MISS):         0 
cpu0_ITLB AVERAGE MISS LATENCY: 5.00967 cycles
cpu0_DTLB TOTAL       ACCESS:   28003578  HIT:   26082494  MISS:    1921084  iACCESS:          0  iHIT:          0  iMISS:          0  dACCESS:   28003578  dHIT:   26082494  dMISS:    1921084  itACCESS:          0  itHIT:          0  itMISS:          0  dtACCESS:          0  dtHIT:          0  dtMISS:          0
cpu0_DTLB LOAD         ACCESS:   28003578  HIT:   26082494  MISS:    1921084  iACCESS:          0  iHIT:          0  iMISS:          0  dACCESS:   28003578  dHIT:   26082494  dMISS:    1921084  itACCESS:          0  itHIT:          0  itMISS:          0  dtACCESS:          0  dtHIT:          0  dtMISS:          0
cpu0_DTLB RFO          ACCESS:          0  HIT:          0  MISS:          0  iACCESS:          0  iHIT:          0  iMISS:          0  dACCESS:          0  dHIT:          0  dMISS:          0  itACCESS:          0  itHIT:          0  itMISS:          0  dtACCESS:          0  dtHIT:          0  dtMISS:          0
cpu0_DTLB PREFETCH     ACCESS:          0  HIT:          0  MISS:          0  iACCESS:          0  iHIT:          0  iMISS:          0  dACCESS:          0  dHIT:          0  dMISS:          0  itACCESS:          0  itHIT:          0  itMISS:          0  dtACCESS:          0  dtHIT:          0  dtMISS:          0
cpu0_DTLB WRITE        ACCESS:          0  HIT:          0  MISS:          0  iACCESS:          0  iHIT:          0  iMISS:          0  dACCESS:          0  dHIT:          0  dMISS:          0  itACCESS:          0  itHIT:          0  itMISS:          0  dtACCESS:          0  dtHIT:          0  dtMISS:          0
cpu0_DTLB TRANSLATION  ACCESS:          0  HIT:          0  MISS:          0  iACCESS:          0  iHIT:          0  iMISS:          0  dACCESS:          0  dHIT:          0  dMISS:          0  itACCESS:          0  itHIT:          0  itMISS:          0  dtACCESS:          0  dtHIT:          0  dtMISS:          0
cpu0_DTLB PREFETCH  REQUESTED:          0  ISSUED:          0  CROSSED:          0  USEFUL:          0  USELESS:          0
cpu0_DTLB AVERAGE iMISS LATENCY: 0 cycles
cpu0_DTLB AVERAGE dMISS LATENCY: 13.7445 cycles
cpu0_DTLB AVERAGE itMISS LATENCY: 0 cycles
cpu0_DTLB AVERAGE dtMISS LATENCY: 0 cycles
cpu0_DTLB PAGE CROSSINGS (TLB HIT):         0 
cpu0_DTLB PAGE CROSSINGS (TLB MISS):         0 
cpu0_DTLB AVERAGE MISS LATENCY: 13.7445 cycles
cpu0_STLB TOTAL       ACCESS:    1603930  HIT:    1374345  MISS:     229585  iACCESS:     392742  iHIT:     305962  iMISS:      86780  dACCESS:    1211188  dHIT:    1068383  dMISS:     142805  itACCESS:          0  itHIT:          0  itMISS:          0  dtACCESS:          0  dtHIT:          0  dtMISS:          0
cpu0_STLB LOAD         ACCESS:    1603930  HIT:    1374345  MISS:     229585  iACCESS:     392742  iHIT:     305962  iMISS:      86780  dACCESS:    1211188  dHIT:    1068383  dMISS:     142805  itACCESS:          0  itHIT:          0  itMISS:          0  dtACCESS:          0  dtHIT:          0  dtMISS:          0
cpu0_STLB RFO          ACCESS:          0  HIT:          0  MISS:          0  iACCESS:          0  iHIT:          0  iMISS:          0  dACCESS:          0  dHIT:          0  dMISS:          0  itACCESS:          0  itHIT:          0  itMISS:          0  dtACCESS:          0  dtHIT:          0  dtMISS:          0
cpu0_STLB PREFETCH     ACCESS:          0  HIT:          0  MISS:          0  iACCESS:          0  iHIT:          0  iMISS:          0  dACCESS:          0  dHIT:          0  dMISS:          0  itACCESS:          0  itHIT:          0  itMISS:          0  dtACCESS:          0  dtHIT:          0  dtMISS:          0
cpu0_STLB WRITE        ACCESS:          0  HIT:          0  MISS:          0  iACCESS:          0  iHIT:          0  iMISS:          0  dACCESS:          0  dHIT:          0  dMISS:          0  itACCESS:          0  itHIT:          0  itMISS:          0  dtACCESS:          0  dtHIT:          0  dtMISS:          0
cpu0_STLB TRANSLATION  ACCESS:          0  HIT:          0  MISS:          0  iACCESS:          0  iHIT:          0  iMISS:          0  dACCESS:          0  dHIT:          0  dMISS:          0  itACCESS:          0  itHIT:          0  itMISS:          0  dtACCESS:          0  dtHIT:          0  dtMISS:          0
cpu0_STLB PREFETCH  REQUESTED:          0  ISSUED:          0  CROSSED:          0  USEFUL:          0  USELESS:          0
cpu0_STLB AVERAGE iMISS LATENCY: 28.9601 cycles
cpu0_STLB AVERAGE dMISS LATENCY: 72.8446 cycles
cpu0_STLB AVERAGE itMISS LATENCY: 0 cycles
cpu0_STLB AVERAGE dtMISS LATENCY: 0 cycles
cpu0_STLB PAGE CROSSINGS (TLB HIT):         0 
cpu0_STLB PAGE CROSSINGS (TLB MISS):         0 
cpu0_STLB AVERAGE MISS LATENCY: 101.805 cycles
cpu0_L1D TOTAL       ACCESS:   42606760  HIT:   38475699  MISS:    4131061  iACCESS:          0  iHIT:          0  iMISS:          0  dACCESS:   42315842  dHIT:   38448899  dMISS:    3866943  itACCESS:      93050  itHIT:      14881  itMISS:      78169  dtACCESS:     197868  dtHIT:      11919  dtMISS:     185949
cpu0_L1D LOAD         ACCESS:   19361791  HIT:   17612317  MISS:    1749474  iACCESS:          0  iHIT:          0  iMISS:          0  dACCESS:   19361791  dHIT:   17612317  dMISS:    1749474  itACCESS:          0  itHIT:          0  itMISS:          0  dtACCESS:          0  dtHIT:          0  dtMISS:          0
cpu0_L1D RFO          ACCESS:          0  HIT:          0  MISS:          0  iACCESS:          0  iHIT:          0  iMISS:          0  dACCESS:          0  dHIT:          0  dMISS:          0  itACCESS:          0  itHIT:          0  itMISS:          0  dtACCESS:          0  dtHIT:          0  dtMISS:          0
cpu0_L1D PREFETCH     ACCESS:   12758823  HIT:   11123534  MISS:    1635289  iACCESS:          0  iHIT:          0  iMISS:          0  dACCESS:   12758823  dHIT:   11123534  dMISS:    1635289  itACCESS:          0  itHIT:          0  itMISS:          0  dtACCESS:          0  dtHIT:          0  dtMISS:          0
cpu0_L1D WRITE        ACCESS:   10195228  HIT:    9713048  MISS:     482180  iACCESS:          0  iHIT:          0  iMISS:          0  dACCESS:   10195228  dHIT:    9713048  dMISS:     482180  itACCESS:          0  itHIT:          0  itMISS:          0  dtACCESS:          0  dtHIT:          0  dtMISS:          0
cpu0_L1D TRANSLATION  ACCESS:     290918  HIT:      26800  MISS:     264118  iACCESS:          0  iHIT:          0  iMISS:          0  dACCESS:          0  dHIT:          0  dMISS:          0  itACCESS:      93050  itHIT:      14881  itMISS:      78169  dtACCESS:     197868  dtHIT:      11919  dtMISS:     185949
cpu0_L1D PREFETCH  REQUESTED:   19361791  ISSUED:   17264134  CROSSED:          0  USEFUL:     309473  USELESS:     698857
cpu0_L1D AVERAGE iMISS LATENCY: 0 cycles
cpu0_L1D AVERAGE dMISS LATENCY: 40.4608 cycles
cpu0_L1D AVERAGE itMISS LATENCY: 1.42961 cycles
cpu0_L1D AVERAGE dtMISS LATENCY: 3.58419 cycles
cpu0_L1D PAGE CROSSINGS (TLB HIT):         0 
cpu0_L1D PAGE CROSSINGS (TLB MISS):         0 
cpu0_L1D AVERAGE MISS LATENCY: 45.4746 cycles
cpu0_L2C TOTAL       ACCESS:    7229900  HIT:    2024040  MISS:    5205860  iACCESS:    3362349  iHIT:    1106562  iMISS:    2255787  dACCESS:    3610796  dHIT:     777071  dMISS:    2833725  itACCESS:      78169  itHIT:      43872  itMISS:      34297  dtACCESS:     178586  dtHIT:      96535  dtMISS:      82051
cpu0_L2C LOAD         ACCESS:    1712547  HIT:     371851  MISS:    1340696  iACCESS:     771322  iHIT:     215747  iMISS:     555575  dACCESS:     941225  dHIT:     156104  dMISS:     785121  itACCESS:          0  itHIT:          0  itMISS:          0  dtACCESS:          0  dtHIT:          0  dtMISS:          0
cpu0_L2C RFO          ACCESS:     164850  HIT:      24773  MISS:     140077  iACCESS:          0  iHIT:          0  iMISS:          0  dACCESS:     164850  dHIT:      24773  dMISS:     140077  itACCESS:          0  itHIT:          0  itMISS:          0  dtACCESS:          0  dtHIT:          0  dtMISS:          0
cpu0_L2C PREFETCH     ACCESS:    4822619  HIT:    1363177  MISS:    3459442  iACCESS:    2591027  iHIT:     890815  iMISS:    1700212  dACCESS:    2231592  dHIT:     472362  dMISS:    1759230  itACCESS:          0  itHIT:          0  itMISS:          0  dtACCESS:          0  dtHIT:          0  dtMISS:          0
cpu0_L2C WRITE        ACCESS:     273129  HIT:     123832  MISS:     149297  iACCESS:          0  iHIT:          0  iMISS:          0  dACCESS:     273129  dHIT:     123832  dMISS:     149297  itACCESS:          0  itHIT:          0  itMISS:          0  dtACCESS:          0  dtHIT:          0  dtMISS:          0
cpu0_L2C TRANSLATION  ACCESS:     256755  HIT:     140407  MISS:     116348  iACCESS:          0  iHIT:          0  iMISS:          0  dACCESS:          0  dHIT:          0  dMISS:          0  itACCESS:      78169  itHIT:      43872  itMISS:      34297  dtACCESS:     178586  dtHIT:      96535  dtMISS:      82051
cpu0_L2C PREFETCH  REQUESTED:    1477972  ISSUED:    1477964  CROSSED:          0  USEFUL:     397611  USELESS:     393010
cpu0_L2C AVERAGE iMISS LATENCY: 24.3918 cycles
cpu0_L2C AVERAGE dMISS LATENCY: 40.578 cycles
cpu0_L2C AVERAGE itMISS LATENCY: 0.992246 cycles
cpu0_L2C AVERAGE dtMISS LATENCY: 2.51824 cycles
cpu0_L2C PAGE CROSSINGS (TLB HIT):         0 
cpu0_L2C PAGE CROSSINGS (TLB MISS):         0 
cpu0_L2C AVERAGE MISS LATENCY: 68.4801 cycles
LLC TOTAL       ACCESS:    5090000  HIT:    3434169  MISS:    1655831  iACCESS:    2178897  iHIT:    1600183  iMISS:     578714  dACCESS:    2794755  dHIT:    1805415  dMISS:     989340  itACCESS:      34297  itHIT:       8286  itMISS:      26011  dtACCESS:      82051  dtHIT:      20285  dtMISS:      61766
LLC LOAD         ACCESS:    1334664  HIT:     962064  MISS:     372600  iACCESS:     554063  iHIT:     433076  iMISS:     120987  dACCESS:     780601  dHIT:     528988  dMISS:     251613  itACCESS:          0  itHIT:          0  itMISS:          0  dtACCESS:          0  dtHIT:          0  dtMISS:          0
LLC RFO          ACCESS:     140063  HIT:      78970  MISS:      61093  iACCESS:          0  iHIT:          0  iMISS:          0  dACCESS:     140063  dHIT:      78970  dMISS:      61093  itACCESS:          0  itHIT:          0  itMISS:          0  dtACCESS:          0  dtHIT:          0  dtMISS:          0
LLC PREFETCH     ACCESS:    3284968  HIT:    2153412  MISS:    1131556  iACCESS:    1624834  iHIT:    1167107  iMISS:     457727  dACCESS:    1660134  dHIT:     986305  dMISS:     673829  itACCESS:          0  itHIT:          0  itMISS:          0  dtACCESS:          0  dtHIT:          0  dtMISS:          0
LLC WRITE        ACCESS:     213957  HIT:     211152  MISS:       2805  iACCESS:          0  iHIT:          0  iMISS:          0  dACCESS:     213957  dHIT:     211152  dMISS:       2805  itACCESS:          0  itHIT:          0  itMISS:          0  dtACCESS:          0  dtHIT:          0  dtMISS:          0
LLC TRANSLATION  ACCESS:     116348  HIT:      28571  MISS:      87777  iACCESS:          0  iHIT:          0  iMISS:          0  dACCESS:          0  dHIT:          0  dMISS:          0  itACCESS:      34297  itHIT:       8286  itMISS:      26011  dtACCESS:      82051  dtHIT:      20285  dtMISS:      61766
LLC PREFETCH  REQUESTED:          0  ISSUED:          0  CROSSED:          0  USEFUL:          0  USELESS:          0
LLC AVERAGE iMISS LATENCY: 51.1732 cycles
LLC AVERAGE dMISS LATENCY: 98.1647 cycles
LLC AVERAGE itMISS LATENCY: 2.71162 cycles
LLC AVERAGE dtMISS LATENCY: 6.94231 cycles
LLC PAGE CROSSINGS (TLB HIT):         0 
LLC PAGE CROSSINGS (TLB MISS):         0 
LLC AVERAGE MISS LATENCY: 158.992 cycles

PageTableWalker TOTAL       ACCESS:     114580  
PageTableWalker AVERAGE LATENCY: 3.78329 cycles
PageTableWalker TOTAL LATENCY: 433489 cycles

DRAM Statistics
Channel 0
 RQ ROW_BUFFER_HIT:     485205
  ROW_BUFFER_MISS:    1156112
 AVG DBUS CONGESTED CYCLE:    3.63901
 WQ ROW_BUFFER_HIT:      39115
  ROW_BUFFER_MISS:      32358  FULL:          0

