last_page:0x200000000000000
VMEM_RES_CAP:0x100000
PAGE_SIZE:4096
LOG2_PAGE_SIZE:12
LOG2_PAGE_TABLE_SIZE:9
page_table_levels:5
WARNING: physical memory size is smaller than virtual memory size
FDiP enabled with aggresivity 16

*** ChampSim Multicore Out-of-Order Simulator ***

Warmup Instructions: 50000000
Simulation Instructions: 100000000
Number of CPUs: 1
Small page size: 4096
Large page size: 2097152

CPU 0 Bimodal branch predictor
Basic BTB sets: 1024 ways: 8 indirect buffer size: 4096 RAS size: 64
Instruction page size distrubution: 0
Loading instruction page size distribution from /home/bsc/bsc018186/scratch/itp_asplos25_AE/dump/srv222_ap.pdst
Data page size distrubution: 0
Loading data page size distribution from /home/bsc/bsc018186/scratch/itp_asplos25_AE/dump/srv222_ap.pdst
cpu0_L2C IP-based stride prefetcher
cpu0_L1D next line prefetcher
cpu0_STLB using iTP with max lru@8
cpu0_STLB using iTP with instr@0 and data@2
Init sat counter with 3 bits (max:50).
cpu0_L1I next line prefetcher
Off-chip DRAM Size: 4 GiB Channels: 1 Width: 64-bit Data Rate: 3200 MT/s
Heartbeat CPU 0 instructions: 10000003 cycles: 2500241 heartbeat IPC: 3.99962 cumulative IPC: 3.99962 (Simulation time: 0 hr 0 min 37 sec) 
Heartbeat CPU 0 instructions: 20000003 cycles: 5000241 heartbeat IPC: 4 cumulative IPC: 3.99981 (Simulation time: 0 hr 1 min 16 sec) 
Heartbeat CPU 0 instructions: 30000001 cycles: 7500299 heartbeat IPC: 3.99991 cumulative IPC: 3.99985 (Simulation time: 0 hr 1 min 55 sec) 
Heartbeat CPU 0 instructions: 40000002 cycles: 10000332 heartbeat IPC: 3.99995 cumulative IPC: 3.99987 (Simulation time: 0 hr 2 min 35 sec) 
Heartbeat CPU 0 instructions: 50000002 cycles: 12500334 heartbeat IPC: 4 cumulative IPC: 3.9999 (Simulation time: 0 hr 3 min 15 sec) 
Warmup finished CPU 0 instructions: 50000002 cycles: 12500335 cumulative IPC: 3.9999 (Simulation time: 0 hr 3 min 15 sec) 

Warmup complete CPU 0 instructions: 50000002 cycles: 12500335 (Simulation time: 0 hr 3 min 15 sec) 

Heartbeat CPU 0 instructions: 60000000 cycles: 32948466 heartbeat IPC: 0.489043 cumulative IPC: 0.489043 (Simulation time: 0 hr 4 min 26 sec) 
Heartbeat CPU 0 instructions: 70000004 cycles: 53449456 heartbeat IPC: 0.487782 cumulative IPC: 0.488412 (Simulation time: 0 hr 5 min 37 sec) 
Heartbeat CPU 0 instructions: 80000000 cycles: 73031393 heartbeat IPC: 0.510675 cumulative IPC: 0.495614 (Simulation time: 0 hr 6 min 47 sec) 
Heartbeat CPU 0 instructions: 90000000 cycles: 93991825 heartbeat IPC: 0.47709 cumulative IPC: 0.490849 (Simulation time: 0 hr 7 min 59 sec) 
Heartbeat CPU 0 instructions: 100000000 cycles: 114228784 heartbeat IPC: 0.494146 cumulative IPC: 0.491505 (Simulation time: 0 hr 9 min 11 sec) 
*** Reached end of trace: /gpfs/projects/bsc18/MN4/bsc18/romol/ChampSim/traces/qualcomm_srv/srv222_ap.champsimtrace.xz
Heartbeat CPU 0 instructions: 110000000 cycles: 133944451 heartbeat IPC: 0.507211 cumulative IPC: 0.494055 (Simulation time: 0 hr 10 min 21 sec) 
Heartbeat CPU 0 instructions: 120000003 cycles: 154517015 heartbeat IPC: 0.486085 cumulative IPC: 0.4929 (Simulation time: 0 hr 11 min 32 sec) 
Heartbeat CPU 0 instructions: 130000000 cycles: 175137778 heartbeat IPC: 0.484948 cumulative IPC: 0.491892 (Simulation time: 0 hr 12 min 43 sec) 
Heartbeat CPU 0 instructions: 140000001 cycles: 194826874 heartbeat IPC: 0.507896 cumulative IPC: 0.49362 (Simulation time: 0 hr 13 min 53 sec) 
Heartbeat CPU 0 instructions: 150000000 cycles: 215049103 heartbeat IPC: 0.494506 cumulative IPC: 0.493709 (Simulation time: 0 hr 15 min 4 sec) 
Simulation finished CPU 0 instructions: 100000002 cycles: 202548770 cumulative IPC: 0.493709 (Simulation time: 0 hr 15 min 4 sec) 

Simulation complete CPU 0 instructions: 100000002 cycles: 202548770 (Simulation time: 0 hr 15 min 4 sec) 


ChampSim completed all CPUs

Saving instructions large page distribution to /home/bsc/bsc018186/scratch/itp_asplos25_AE/dump/srv222_ap.pdst...
Saving data large page distribution to /home/bsc/bsc018186/scratch/itp_asplos25_AE/dump/srv222_ap.pdst...
=== Simulation ===
CPU 0 runs /gpfs/projects/bsc18/MN4/bsc18/romol/ChampSim/traces/qualcomm_srv/srv222_ap.champsimtrace.xz

Region of Interest Statistics

CPU 0 cumulative IPC: 0.493709 instructions: 100000002 cycles: 202548770
CPU 0 Branch Prediction Accuracy: 80.1337% MPKI: 35.8772 Average ROB Occupancy at Mispredict: 10.7999
Branch type MPKI
BRANCH_DIRECT_JUMP: 1.34829
BRANCH_INDIRECT: 17.9544
BRANCH_CONDITIONAL: 11.6356
BRANCH_DIRECT_CALL: 2.54634
BRANCH_INDIRECT_CALL: 0.66241
BRANCH_RETURN: 1.73014

Instructions large pages: 0
Instructions small pages: 1201
Large page distribution for instructions: 0%

Data large pages: 0
Data small pages: 5008
Large page distribution for data: 0%

cpu0_L1I TOTAL       ACCESS:   36051858  HIT:   28106266  MISS:    7945592  iACCESS:   36051858  iHIT:   28106266  iMISS:    7945592  dACCESS:          0  dHIT:          0  dMISS:          0  itACCESS:          0  itHIT:          0  itMISS:          0  dtACCESS:          0  dtHIT:          0  dtMISS:          0
cpu0_L1I LOAD         ACCESS:   10551508  HIT:    8370484  MISS:    2181024  iACCESS:   10551508  iHIT:    8370484  iMISS:    2181024  dACCESS:          0  dHIT:          0  dMISS:          0  itACCESS:          0  itHIT:          0  itMISS:          0  dtACCESS:          0  dtHIT:          0  dtMISS:          0
cpu0_L1I RFO          ACCESS:          0  HIT:          0  MISS:          0  iACCESS:          0  iHIT:          0  iMISS:          0  dACCESS:          0  dHIT:          0  dMISS:          0  itACCESS:          0  itHIT:          0  itMISS:          0  dtACCESS:          0  dtHIT:          0  dtMISS:          0
cpu0_L1I PREFETCH     ACCESS:   25500350  HIT:   19735782  MISS:    5764568  iACCESS:   25500350  iHIT:   19735782  iMISS:    5764568  dACCESS:          0  dHIT:          0  dMISS:          0  itACCESS:          0  itHIT:          0  itMISS:          0  dtACCESS:          0  dtHIT:          0  dtMISS:          0
cpu0_L1I WRITE        ACCESS:          0  HIT:          0  MISS:          0  iACCESS:          0  iHIT:          0  iMISS:          0  dACCESS:          0  dHIT:          0  dMISS:          0  itACCESS:          0  itHIT:          0  itMISS:          0  dtACCESS:          0  dtHIT:          0  dtMISS:          0
cpu0_L1I TRANSLATION  ACCESS:          0  HIT:          0  MISS:          0  iACCESS:          0  iHIT:          0  iMISS:          0  dACCESS:          0  dHIT:          0  dMISS:          0  itACCESS:          0  itHIT:          0  itMISS:          0  dtACCESS:          0  dtHIT:          0  dtMISS:          0
cpu0_L1I PREFETCH  REQUESTED:   28064981  ISSUED:   28064981  CROSSED:          0  USEFUL:    2009220  USELESS:     652304
cpu0_L1I AVERAGE iMISS LATENCY: 19.0927 cycles
cpu0_L1I AVERAGE dMISS LATENCY: 0 cycles
cpu0_L1I AVERAGE itMISS LATENCY: 0 cycles
cpu0_L1I AVERAGE dtMISS LATENCY: 0 cycles
cpu0_L1I PAGE CROSSINGS (TLB HIT):         0 
cpu0_L1I PAGE CROSSINGS (TLB MISS):         0 
cpu0_L1I AVERAGE MISS LATENCY: 19.0927 cycles
cpu0_ITLB TOTAL       ACCESS:   30274028  HIT:   28333160  MISS:    1940868  iACCESS:   30274028  iHIT:   28333160  iMISS:    1940868  dACCESS:          0  dHIT:          0  dMISS:          0  itACCESS:          0  itHIT:          0  itMISS:          0  dtACCESS:          0  dtHIT:          0  dtMISS:          0
cpu0_ITLB LOAD         ACCESS:   30274028  HIT:   28333160  MISS:    1940868  iACCESS:   30274028  iHIT:   28333160  iMISS:    1940868  dACCESS:          0  dHIT:          0  dMISS:          0  itACCESS:          0  itHIT:          0  itMISS:          0  dtACCESS:          0  dtHIT:          0  dtMISS:          0
cpu0_ITLB RFO          ACCESS:          0  HIT:          0  MISS:          0  iACCESS:          0  iHIT:          0  iMISS:          0  dACCESS:          0  dHIT:          0  dMISS:          0  itACCESS:          0  itHIT:          0  itMISS:          0  dtACCESS:          0  dtHIT:          0  dtMISS:          0
cpu0_ITLB PREFETCH     ACCESS:          0  HIT:          0  MISS:          0  iACCESS:          0  iHIT:          0  iMISS:          0  dACCESS:          0  dHIT:          0  dMISS:          0  itACCESS:          0  itHIT:          0  itMISS:          0  dtACCESS:          0  dtHIT:          0  dtMISS:          0
cpu0_ITLB WRITE        ACCESS:          0  HIT:          0  MISS:          0  iACCESS:          0  iHIT:          0  iMISS:          0  dACCESS:          0  dHIT:          0  dMISS:          0  itACCESS:          0  itHIT:          0  itMISS:          0  dtACCESS:          0  dtHIT:          0  dtMISS:          0
cpu0_ITLB TRANSLATION  ACCESS:          0  HIT:          0  MISS:          0  iACCESS:          0  iHIT:          0  iMISS:          0  dACCESS:          0  dHIT:          0  dMISS:          0  itACCESS:          0  itHIT:          0  itMISS:          0  dtACCESS:          0  dtHIT:          0  dtMISS:          0
cpu0_ITLB PREFETCH  REQUESTED:          0  ISSUED:          0  CROSSED:          0  USEFUL:     328119  USELESS:      65595
cpu0_ITLB AVERAGE iMISS LATENCY: 3.99907 cycles
cpu0_ITLB AVERAGE dMISS LATENCY: 0 cycles
cpu0_ITLB AVERAGE itMISS LATENCY: 0 cycles
cpu0_ITLB AVERAGE dtMISS LATENCY: 0 cycles
cpu0_ITLB PAGE CROSSINGS (TLB HIT):         0 
cpu0_ITLB PAGE CROSSINGS (TLB MISS):         0 
cpu0_ITLB AVERAGE MISS LATENCY: 3.99907 cycles
cpu0_DTLB TOTAL       ACCESS:   27904722  HIT:   25872722  MISS:    2032000  iACCESS:          0  iHIT:          0  iMISS:          0  dACCESS:   27904722  dHIT:   25872722  dMISS:    2032000  itACCESS:          0  itHIT:          0  itMISS:          0  dtACCESS:          0  dtHIT:          0  dtMISS:          0
cpu0_DTLB LOAD         ACCESS:   27904722  HIT:   25872722  MISS:    2032000  iACCESS:          0  iHIT:          0  iMISS:          0  dACCESS:   27904722  dHIT:   25872722  dMISS:    2032000  itACCESS:          0  itHIT:          0  itMISS:          0  dtACCESS:          0  dtHIT:          0  dtMISS:          0
cpu0_DTLB RFO          ACCESS:          0  HIT:          0  MISS:          0  iACCESS:          0  iHIT:          0  iMISS:          0  dACCESS:          0  dHIT:          0  dMISS:          0  itACCESS:          0  itHIT:          0  itMISS:          0  dtACCESS:          0  dtHIT:          0  dtMISS:          0
cpu0_DTLB PREFETCH     ACCESS:          0  HIT:          0  MISS:          0  iACCESS:          0  iHIT:          0  iMISS:          0  dACCESS:          0  dHIT:          0  dMISS:          0  itACCESS:          0  itHIT:          0  itMISS:          0  dtACCESS:          0  dtHIT:          0  dtMISS:          0
cpu0_DTLB WRITE        ACCESS:          0  HIT:          0  MISS:          0  iACCESS:          0  iHIT:          0  iMISS:          0  dACCESS:          0  dHIT:          0  dMISS:          0  itACCESS:          0  itHIT:          0  itMISS:          0  dtACCESS:          0  dtHIT:          0  dtMISS:          0
cpu0_DTLB TRANSLATION  ACCESS:          0  HIT:          0  MISS:          0  iACCESS:          0  iHIT:          0  iMISS:          0  dACCESS:          0  dHIT:          0  dMISS:          0  itACCESS:          0  itHIT:          0  itMISS:          0  dtACCESS:          0  dtHIT:          0  dtMISS:          0
cpu0_DTLB PREFETCH  REQUESTED:          0  ISSUED:          0  CROSSED:          0  USEFUL:          0  USELESS:          0
cpu0_DTLB AVERAGE iMISS LATENCY: 0 cycles
cpu0_DTLB AVERAGE dMISS LATENCY: 22.6419 cycles
cpu0_DTLB AVERAGE itMISS LATENCY: 0 cycles
cpu0_DTLB AVERAGE dtMISS LATENCY: 0 cycles
cpu0_DTLB PAGE CROSSINGS (TLB HIT):         0 
cpu0_DTLB PAGE CROSSINGS (TLB MISS):         0 
cpu0_DTLB AVERAGE MISS LATENCY: 22.6419 cycles
cpu0_STLB TOTAL       ACCESS:    1610293  HIT:    1400463  MISS:     209830  iACCESS:     393718  iHIT:     365658  iMISS:      28060  dACCESS:    1216575  dHIT:    1034805  dMISS:     181770  itACCESS:          0  itHIT:          0  itMISS:          0  dtACCESS:          0  dtHIT:          0  dtMISS:          0
cpu0_STLB LOAD         ACCESS:    1610293  HIT:    1400463  MISS:     209830  iACCESS:     393718  iHIT:     365658  iMISS:      28060  dACCESS:    1216575  dHIT:    1034805  dMISS:     181770  itACCESS:          0  itHIT:          0  itMISS:          0  dtACCESS:          0  dtHIT:          0  dtMISS:          0
cpu0_STLB RFO          ACCESS:          0  HIT:          0  MISS:          0  iACCESS:          0  iHIT:          0  iMISS:          0  dACCESS:          0  dHIT:          0  dMISS:          0  itACCESS:          0  itHIT:          0  itMISS:          0  dtACCESS:          0  dtHIT:          0  dtMISS:          0
cpu0_STLB PREFETCH     ACCESS:          0  HIT:          0  MISS:          0  iACCESS:          0  iHIT:          0  iMISS:          0  dACCESS:          0  dHIT:          0  dMISS:          0  itACCESS:          0  itHIT:          0  itMISS:          0  dtACCESS:          0  dtHIT:          0  dtMISS:          0
cpu0_STLB WRITE        ACCESS:          0  HIT:          0  MISS:          0  iACCESS:          0  iHIT:          0  iMISS:          0  dACCESS:          0  dHIT:          0  dMISS:          0  itACCESS:          0  itHIT:          0  itMISS:          0  dtACCESS:          0  dtHIT:          0  dtMISS:          0
cpu0_STLB TRANSLATION  ACCESS:          0  HIT:          0  MISS:          0  iACCESS:          0  iHIT:          0  iMISS:          0  dACCESS:          0  dHIT:          0  dMISS:          0  itACCESS:          0  itHIT:          0  itMISS:          0  dtACCESS:          0  dtHIT:          0  dtMISS:          0
cpu0_STLB PREFETCH  REQUESTED:          0  ISSUED:          0  CROSSED:          0  USEFUL:          0  USELESS:          0
cpu0_STLB AVERAGE iMISS LATENCY: 22.3408 cycles
cpu0_STLB AVERAGE dMISS LATENCY: 172.695 cycles
cpu0_STLB AVERAGE itMISS LATENCY: 0 cycles
cpu0_STLB AVERAGE dtMISS LATENCY: 0 cycles
cpu0_STLB PAGE CROSSINGS (TLB HIT):         0 
cpu0_STLB PAGE CROSSINGS (TLB MISS):         0 
cpu0_STLB AVERAGE MISS LATENCY: 195.036 cycles
cpu0_L1D TOTAL       ACCESS:   42617693  HIT:   38482649  MISS:    4135044  iACCESS:          0  iHIT:          0  iMISS:          0  dACCESS:   42331748  dHIT:   38465593  dMISS:    3866155  itACCESS:      31770  itHIT:       2735  itMISS:      29035  dtACCESS:     254175  dtHIT:      14321  dtMISS:     239854
cpu0_L1D LOAD         ACCESS:   19363202  HIT:   17592855  MISS:    1770347  iACCESS:          0  iHIT:          0  iMISS:          0  dACCESS:   19363202  dHIT:   17592855  dMISS:    1770347  itACCESS:          0  itHIT:          0  itMISS:          0  dtACCESS:          0  dtHIT:          0  dtMISS:          0
cpu0_L1D RFO          ACCESS:          0  HIT:          0  MISS:          0  iACCESS:          0  iHIT:          0  iMISS:          0  dACCESS:          0  dHIT:          0  dMISS:          0  itACCESS:          0  itHIT:          0  itMISS:          0  dtACCESS:          0  dtHIT:          0  dtMISS:          0
cpu0_L1D PREFETCH     ACCESS:   12851122  HIT:   11197763  MISS:    1653359  iACCESS:          0  iHIT:          0  iMISS:          0  dACCESS:   12851122  dHIT:   11197763  dMISS:    1653359  itACCESS:          0  itHIT:          0  itMISS:          0  dtACCESS:          0  dtHIT:          0  dtMISS:          0
cpu0_L1D WRITE        ACCESS:   10117424  HIT:    9674975  MISS:     442449  iACCESS:          0  iHIT:          0  iMISS:          0  dACCESS:   10117424  dHIT:    9674975  dMISS:     442449  itACCESS:          0  itHIT:          0  itMISS:          0  dtACCESS:          0  dtHIT:          0  dtMISS:          0
cpu0_L1D TRANSLATION  ACCESS:     285945  HIT:      17056  MISS:     268889  iACCESS:          0  iHIT:          0  iMISS:          0  dACCESS:          0  dHIT:          0  dMISS:          0  itACCESS:      31770  itHIT:       2735  itMISS:      29035  dtACCESS:     254175  dtHIT:      14321  dtMISS:     239854
cpu0_L1D PREFETCH  REQUESTED:   19363202  ISSUED:   17318970  CROSSED:          0  USEFUL:     309600  USELESS:     703081
cpu0_L1D AVERAGE iMISS LATENCY: 0 cycles
cpu0_L1D AVERAGE dMISS LATENCY: 40.2874 cycles
cpu0_L1D AVERAGE itMISS LATENCY: 1.0662 cycles
cpu0_L1D AVERAGE dtMISS LATENCY: 8.16531 cycles
cpu0_L1D PAGE CROSSINGS (TLB HIT):         0 
cpu0_L1D PAGE CROSSINGS (TLB MISS):         0 
cpu0_L1D AVERAGE MISS LATENCY: 49.5189 cycles
cpu0_L2C TOTAL       ACCESS:    7312776  HIT:    3713683  MISS:    3599093  iACCESS:    3397799  iHIT:    2055361  iMISS:    1342438  dACCESS:    3654902  dHIT:    1619348  dMISS:    2035554  itACCESS:      29035  itHIT:       4163  itMISS:      24872  dtACCESS:     231040  dtHIT:      34811  dtMISS:     196229
cpu0_L2C LOAD         ACCESS:    1723188  HIT:     906543  MISS:     816645  iACCESS:     775068  iHIT:     494702  iMISS:     280366  dACCESS:     948120  dHIT:     411841  dMISS:     536279  itACCESS:          0  itHIT:          0  itMISS:          0  dtACCESS:          0  dtHIT:          0  dtMISS:          0
cpu0_L2C RFO          ACCESS:     159641  HIT:      62450  MISS:      97191  iACCESS:          0  iHIT:          0  iMISS:          0  dACCESS:     159641  dHIT:      62450  dMISS:      97191  itACCESS:          0  itHIT:          0  itMISS:          0  dtACCESS:          0  dtHIT:          0  dtMISS:          0
cpu0_L2C PREFETCH     ACCESS:    4897500  HIT:    2434692  MISS:    2462808  iACCESS:    2622731  iHIT:    1560659  iMISS:    1062072  dACCESS:    2274769  dHIT:     874033  dMISS:    1400736  itACCESS:          0  itHIT:          0  itMISS:          0  dtACCESS:          0  dtHIT:          0  dtMISS:          0
cpu0_L2C WRITE        ACCESS:     272372  HIT:     271024  MISS:       1348  iACCESS:          0  iHIT:          0  iMISS:          0  dACCESS:     272372  dHIT:     271024  dMISS:       1348  itACCESS:          0  itHIT:          0  itMISS:          0  dtACCESS:          0  dtHIT:          0  dtMISS:          0
cpu0_L2C TRANSLATION  ACCESS:     260075  HIT:      38974  MISS:     221101  iACCESS:          0  iHIT:          0  iMISS:          0  dACCESS:          0  dHIT:          0  dMISS:          0  itACCESS:      29035  itHIT:       4163  itMISS:      24872  dtACCESS:     231040  dtHIT:      34811  dtMISS:     196229
cpu0_L2C PREFETCH  REQUESTED:    1532289  ISSUED:    1532288  CROSSED:          0  USEFUL:     380093  USELESS:     298847
cpu0_L2C AVERAGE iMISS LATENCY: 34.0164 cycles
cpu0_L2C AVERAGE dMISS LATENCY: 59.3763 cycles
cpu0_L2C AVERAGE itMISS LATENCY: 1.1452 cycles
cpu0_L2C AVERAGE dtMISS LATENCY: 8.74508 cycles
cpu0_L2C PAGE CROSSINGS (TLB HIT):         0 
cpu0_L2C PAGE CROSSINGS (TLB MISS):         0 
cpu0_L2C AVERAGE MISS LATENCY: 103.283 cycles
LLC TOTAL       ACCESS:    3558004  HIT:    1646723  MISS:    1911281  iACCESS:    1263642  iHIT:     602276  iMISS:     661366  dACCESS:    2073261  dHIT:     991447  dMISS:    1081814  itACCESS:      24872  itHIT:       4333  itMISS:      20539  dtACCESS:     196229  dtHIT:      48667  dtMISS:     147562
LLC LOAD         ACCESS:     810458  HIT:     399001  MISS:     411457  iACCESS:     279138  iHIT:     140565  iMISS:     138573  dACCESS:     531320  dHIT:     258436  dMISS:     272884  itACCESS:          0  itHIT:          0  itMISS:          0  dtACCESS:          0  dtHIT:          0  dtMISS:          0
LLC RFO          ACCESS:      97174  HIT:      37495  MISS:      59679  iACCESS:          0  iHIT:          0  iMISS:          0  dACCESS:      97174  dHIT:      37495  dMISS:      59679  itACCESS:          0  itHIT:          0  itMISS:          0  dtACCESS:          0  dtHIT:          0  dtMISS:          0
LLC PREFETCH     ACCESS:    2282808  HIT:    1019634  MISS:    1263174  iACCESS:     984504  iHIT:     461711  iMISS:     522793  dACCESS:    1298304  dHIT:     557923  dMISS:     740381  itACCESS:          0  itHIT:          0  itMISS:          0  dtACCESS:          0  dtHIT:          0  dtMISS:          0
LLC WRITE        ACCESS:     146463  HIT:     137593  MISS:       8870  iACCESS:          0  iHIT:          0  iMISS:          0  dACCESS:     146463  dHIT:     137593  dMISS:       8870  itACCESS:          0  itHIT:          0  itMISS:          0  dtACCESS:          0  dtHIT:          0  dtMISS:          0
LLC TRANSLATION  ACCESS:     221101  HIT:      53000  MISS:     168101  iACCESS:          0  iHIT:          0  iMISS:          0  dACCESS:          0  dHIT:          0  dMISS:          0  itACCESS:      24872  itHIT:       4333  itMISS:      20539  dtACCESS:     196229  dtHIT:      48667  dtMISS:     147562
LLC PREFETCH  REQUESTED:          0  ISSUED:          0  CROSSED:          0  USEFUL:          0  USELESS:          0
LLC AVERAGE iMISS LATENCY: 51.1292 cycles
LLC AVERAGE dMISS LATENCY: 93.0048 cycles
LLC AVERAGE itMISS LATENCY: 1.89948 cycles
LLC AVERAGE dtMISS LATENCY: 14.4481 cycles
LLC PAGE CROSSINGS (TLB HIT):         0 
LLC PAGE CROSSINGS (TLB MISS):         0 
LLC AVERAGE MISS LATENCY: 160.482 cycles

PageTableWalker TOTAL       ACCESS:      98185  
PageTableWalker AVERAGE LATENCY: 5.28422 cycles
PageTableWalker TOTAL LATENCY: 518831 cycles

DRAM Statistics
Channel 0
 RQ ROW_BUFFER_HIT:     528709
  ROW_BUFFER_MISS:    1359271
 AVG DBUS CONGESTED CYCLE:    3.63517
 WQ ROW_BUFFER_HIT:      36758
  ROW_BUFFER_MISS:      25940  FULL:          0

