last_page:0x200000000000000
VMEM_RES_CAP:0x100000
PAGE_SIZE:4096
LOG2_PAGE_SIZE:12
LOG2_PAGE_TABLE_SIZE:9
page_table_levels:5
WARNING: physical memory size is smaller than virtual memory size
FDiP enabled with aggresivity 16

*** ChampSim Multicore Out-of-Order Simulator ***

Warmup Instructions: 50000000
Simulation Instructions: 100000000
Number of CPUs: 1
Small page size: 4096
Large page size: 2097152

CPU 0 Bimodal branch predictor
Basic BTB sets: 1024 ways: 8 indirect buffer size: 4096 RAS size: 64
Instruction page size distrubution: 0
Loading instruction page size distribution from /home/bsc/bsc018186/scratch/itp_asplos25_AE/dump/srv228_ap.pdst
Data page size distrubution: 0
Loading data page size distribution from /home/bsc/bsc018186/scratch/itp_asplos25_AE/dump/srv228_ap.pdst
cpu0_L2C IP-based stride prefetcher
cpu0_L2C is using PTP replacement policy:
	TLB_STRESS_THRESHOLD:0
	PTE_EVICTION_RATIO:0
cpu0_L1D next line prefetcher
cpu0_STLB using iTP with max lru@8
cpu0_STLB using iTP with instr@0 and data@2
Init sat counter with 3 bits (max:50).
cpu0_L1I next line prefetcher
Off-chip DRAM Size: 4 GiB Channels: 1 Width: 64-bit Data Rate: 3200 MT/s
Heartbeat CPU 0 instructions: 10000001 cycles: 2500174 heartbeat IPC: 3.99973 cumulative IPC: 3.99973 (Simulation time: 0 hr 0 min 37 sec) 
Heartbeat CPU 0 instructions: 20000001 cycles: 5000188 heartbeat IPC: 3.99998 cumulative IPC: 3.99985 (Simulation time: 0 hr 1 min 17 sec) 
Heartbeat CPU 0 instructions: 30000001 cycles: 7500227 heartbeat IPC: 3.99994 cumulative IPC: 3.99988 (Simulation time: 0 hr 1 min 56 sec) 
Heartbeat CPU 0 instructions: 40000001 cycles: 10000228 heartbeat IPC: 4 cumulative IPC: 3.99991 (Simulation time: 0 hr 2 min 41 sec) 
Heartbeat CPU 0 instructions: 50000001 cycles: 12500228 heartbeat IPC: 4 cumulative IPC: 3.99993 (Simulation time: 0 hr 3 min 25 sec) 
Warmup finished CPU 0 instructions: 50000001 cycles: 12500229 cumulative IPC: 3.99993 (Simulation time: 0 hr 3 min 25 sec) 

Warmup complete CPU 0 instructions: 50000001 cycles: 12500229 (Simulation time: 0 hr 3 min 25 sec) 

Heartbeat CPU 0 instructions: 60000000 cycles: 27554545 heartbeat IPC: 0.664262 cumulative IPC: 0.664262 (Simulation time: 0 hr 4 min 35 sec) 
Heartbeat CPU 0 instructions: 70000003 cycles: 42370383 heartbeat IPC: 0.674954 cumulative IPC: 0.669565 (Simulation time: 0 hr 5 min 45 sec) 
Heartbeat CPU 0 instructions: 80000002 cycles: 56814278 heartbeat IPC: 0.692334 cumulative IPC: 0.676987 (Simulation time: 0 hr 6 min 55 sec) 
Heartbeat CPU 0 instructions: 90000004 cycles: 71388134 heartbeat IPC: 0.686161 cumulative IPC: 0.679257 (Simulation time: 0 hr 8 min 5 sec) 
Heartbeat CPU 0 instructions: 100000001 cycles: 86055735 heartbeat IPC: 0.681775 cumulative IPC: 0.679759 (Simulation time: 0 hr 9 min 13 sec) 
*** Reached end of trace: /gpfs/projects/bsc18/MN4/bsc18/romol/ChampSim/traces/qualcomm_srv/srv228_ap.champsimtrace.xz
Heartbeat CPU 0 instructions: 110000000 cycles: 100956941 heartbeat IPC: 0.671087 cumulative IPC: 0.678298 (Simulation time: 0 hr 10 min 16 sec) 
Heartbeat CPU 0 instructions: 120000000 cycles: 115722734 heartbeat IPC: 0.677241 cumulative IPC: 0.678147 (Simulation time: 0 hr 11 min 25 sec) 
Heartbeat CPU 0 instructions: 130000004 cycles: 129732606 heartbeat IPC: 0.713783 cumulative IPC: 0.682406 (Simulation time: 0 hr 12 min 30 sec) 
Heartbeat CPU 0 instructions: 140000002 cycles: 144698411 heartbeat IPC: 0.66819 cumulative IPC: 0.680797 (Simulation time: 0 hr 13 min 34 sec) 
Heartbeat CPU 0 instructions: 150000000 cycles: 158941642 heartbeat IPC: 0.702088 cumulative IPC: 0.682867 (Simulation time: 0 hr 14 min 37 sec) 
Simulation finished CPU 0 instructions: 100000000 cycles: 146441415 cumulative IPC: 0.682867 (Simulation time: 0 hr 14 min 37 sec) 

Simulation complete CPU 0 instructions: 100000000 cycles: 146441415 (Simulation time: 0 hr 14 min 37 sec) 


ChampSim completed all CPUs

Saving instructions large page distribution to /home/bsc/bsc018186/scratch/itp_asplos25_AE/dump/srv228_ap.pdst...
Saving data large page distribution to /home/bsc/bsc018186/scratch/itp_asplos25_AE/dump/srv228_ap.pdst...
=== Simulation ===
CPU 0 runs /gpfs/projects/bsc18/MN4/bsc18/romol/ChampSim/traces/qualcomm_srv/srv228_ap.champsimtrace.xz

Region of Interest Statistics

CPU 0 cumulative IPC: 0.682867 instructions: 100000000 cycles: 146441415
CPU 0 Branch Prediction Accuracy: 82.6742% MPKI: 30.9851 Average ROB Occupancy at Mispredict: 12.0809
Branch type MPKI
BRANCH_DIRECT_JUMP: 1.06742
BRANCH_INDIRECT: 15.7828
BRANCH_CONDITIONAL: 10.2852
BRANCH_DIRECT_CALL: 1.93596
BRANCH_INDIRECT_CALL: 0.525361
BRANCH_RETURN: 1.3884

Instructions large pages: 0
Instructions small pages: 10544
Large page distribution for instructions: 0%

Data large pages: 0
Data small pages: 9583
Large page distribution for data: 0%

cpu0_L1I TOTAL       ACCESS:   35629550  HIT:   27097074  MISS:    8532476  iACCESS:   35629550  iHIT:   27097074  iMISS:    8532476  dACCESS:          0  dHIT:          0  dMISS:          0  itACCESS:          0  itHIT:          0  itMISS:          0  dtACCESS:          0  dtHIT:          0  dtMISS:          0
cpu0_L1I LOAD         ACCESS:   10434684  HIT:    8052309  MISS:    2382375  iACCESS:   10434684  iHIT:    8052309  iMISS:    2382375  dACCESS:          0  dHIT:          0  dMISS:          0  itACCESS:          0  itHIT:          0  itMISS:          0  dtACCESS:          0  dtHIT:          0  dtMISS:          0
cpu0_L1I RFO          ACCESS:          0  HIT:          0  MISS:          0  iACCESS:          0  iHIT:          0  iMISS:          0  dACCESS:          0  dHIT:          0  dMISS:          0  itACCESS:          0  itHIT:          0  itMISS:          0  dtACCESS:          0  dtHIT:          0  dtMISS:          0
cpu0_L1I PREFETCH     ACCESS:   25194866  HIT:   19044765  MISS:    6150101  iACCESS:   25194866  iHIT:   19044765  iMISS:    6150101  dACCESS:          0  dHIT:          0  dMISS:          0  itACCESS:          0  itHIT:          0  itMISS:          0  dtACCESS:          0  dtHIT:          0  dtMISS:          0
cpu0_L1I WRITE        ACCESS:          0  HIT:          0  MISS:          0  iACCESS:          0  iHIT:          0  iMISS:          0  dACCESS:          0  dHIT:          0  dMISS:          0  itACCESS:          0  itHIT:          0  itMISS:          0  dtACCESS:          0  dtHIT:          0  dtMISS:          0
cpu0_L1I TRANSLATION  ACCESS:          0  HIT:          0  MISS:          0  iACCESS:          0  iHIT:          0  iMISS:          0  dACCESS:          0  dHIT:          0  dMISS:          0  itACCESS:          0  itHIT:          0  itMISS:          0  dtACCESS:          0  dtHIT:          0  dtMISS:          0
cpu0_L1I PREFETCH  REQUESTED:   27463715  ISSUED:   27461867  CROSSED:          0  USEFUL:    1955754  USELESS:     630655
cpu0_L1I AVERAGE iMISS LATENCY: 14.2431 cycles
cpu0_L1I AVERAGE dMISS LATENCY: 0 cycles
cpu0_L1I AVERAGE itMISS LATENCY: 0 cycles
cpu0_L1I AVERAGE dtMISS LATENCY: 0 cycles
cpu0_L1I PAGE CROSSINGS (TLB HIT):         0 
cpu0_L1I PAGE CROSSINGS (TLB MISS):         0 
cpu0_L1I AVERAGE MISS LATENCY: 14.2431 cycles
cpu0_ITLB TOTAL       ACCESS:   29453186  HIT:   27528637  MISS:    1924549  iACCESS:   29453186  iHIT:   27528637  iMISS:    1924549  dACCESS:          0  dHIT:          0  dMISS:          0  itACCESS:          0  itHIT:          0  itMISS:          0  dtACCESS:          0  dtHIT:          0  dtMISS:          0
cpu0_ITLB LOAD         ACCESS:   29453186  HIT:   27528637  MISS:    1924549  iACCESS:   29453186  iHIT:   27528637  iMISS:    1924549  dACCESS:          0  dHIT:          0  dMISS:          0  itACCESS:          0  itHIT:          0  itMISS:          0  dtACCESS:          0  dtHIT:          0  dtMISS:          0
cpu0_ITLB RFO          ACCESS:          0  HIT:          0  MISS:          0  iACCESS:          0  iHIT:          0  iMISS:          0  dACCESS:          0  dHIT:          0  dMISS:          0  itACCESS:          0  itHIT:          0  itMISS:          0  dtACCESS:          0  dtHIT:          0  dtMISS:          0
cpu0_ITLB PREFETCH     ACCESS:          0  HIT:          0  MISS:          0  iACCESS:          0  iHIT:          0  iMISS:          0  dACCESS:          0  dHIT:          0  dMISS:          0  itACCESS:          0  itHIT:          0  itMISS:          0  dtACCESS:          0  dtHIT:          0  dtMISS:          0
cpu0_ITLB WRITE        ACCESS:          0  HIT:          0  MISS:          0  iACCESS:          0  iHIT:          0  iMISS:          0  dACCESS:          0  dHIT:          0  dMISS:          0  itACCESS:          0  itHIT:          0  itMISS:          0  dtACCESS:          0  dtHIT:          0  dtMISS:          0
cpu0_ITLB TRANSLATION  ACCESS:          0  HIT:          0  MISS:          0  iACCESS:          0  iHIT:          0  iMISS:          0  dACCESS:          0  dHIT:          0  dMISS:          0  itACCESS:          0  itHIT:          0  itMISS:          0  dtACCESS:          0  dtHIT:          0  dtMISS:          0
cpu0_ITLB PREFETCH  REQUESTED:          0  ISSUED:          0  CROSSED:          0  USEFUL:     319278  USELESS:      63256
cpu0_ITLB AVERAGE iMISS LATENCY: 1.99874 cycles
cpu0_ITLB AVERAGE dMISS LATENCY: 0 cycles
cpu0_ITLB AVERAGE itMISS LATENCY: 0 cycles
cpu0_ITLB AVERAGE dtMISS LATENCY: 0 cycles
cpu0_ITLB PAGE CROSSINGS (TLB HIT):         0 
cpu0_ITLB PAGE CROSSINGS (TLB MISS):         0 
cpu0_ITLB AVERAGE MISS LATENCY: 1.99874 cycles
cpu0_DTLB TOTAL       ACCESS:   27761535  HIT:   25659535  MISS:    2102000  iACCESS:          0  iHIT:          0  iMISS:          0  dACCESS:   27761535  dHIT:   25659535  dMISS:    2102000  itACCESS:          0  itHIT:          0  itMISS:          0  dtACCESS:          0  dtHIT:          0  dtMISS:          0
cpu0_DTLB LOAD         ACCESS:   27761535  HIT:   25659535  MISS:    2102000  iACCESS:          0  iHIT:          0  iMISS:          0  dACCESS:   27761535  dHIT:   25659535  dMISS:    2102000  itACCESS:          0  itHIT:          0  itMISS:          0  dtACCESS:          0  dtHIT:          0  dtMISS:          0
cpu0_DTLB RFO          ACCESS:          0  HIT:          0  MISS:          0  iACCESS:          0  iHIT:          0  iMISS:          0  dACCESS:          0  dHIT:          0  dMISS:          0  itACCESS:          0  itHIT:          0  itMISS:          0  dtACCESS:          0  dtHIT:          0  dtMISS:          0
cpu0_DTLB PREFETCH     ACCESS:          0  HIT:          0  MISS:          0  iACCESS:          0  iHIT:          0  iMISS:          0  dACCESS:          0  dHIT:          0  dMISS:          0  itACCESS:          0  itHIT:          0  itMISS:          0  dtACCESS:          0  dtHIT:          0  dtMISS:          0
cpu0_DTLB WRITE        ACCESS:          0  HIT:          0  MISS:          0  iACCESS:          0  iHIT:          0  iMISS:          0  dACCESS:          0  dHIT:          0  dMISS:          0  itACCESS:          0  itHIT:          0  itMISS:          0  dtACCESS:          0  dtHIT:          0  dtMISS:          0
cpu0_DTLB TRANSLATION  ACCESS:          0  HIT:          0  MISS:          0  iACCESS:          0  iHIT:          0  iMISS:          0  dACCESS:          0  dHIT:          0  dMISS:          0  itACCESS:          0  itHIT:          0  itMISS:          0  dtACCESS:          0  dtHIT:          0  dtMISS:          0
cpu0_DTLB PREFETCH  REQUESTED:          0  ISSUED:          0  CROSSED:          0  USEFUL:          0  USELESS:          0
cpu0_DTLB AVERAGE iMISS LATENCY: 0 cycles
cpu0_DTLB AVERAGE dMISS LATENCY: 10.02 cycles
cpu0_DTLB AVERAGE itMISS LATENCY: 0 cycles
cpu0_DTLB AVERAGE dtMISS LATENCY: 0 cycles
cpu0_DTLB PAGE CROSSINGS (TLB HIT):         0 
cpu0_DTLB PAGE CROSSINGS (TLB MISS):         0 
cpu0_DTLB AVERAGE MISS LATENCY: 10.02 cycles
cpu0_STLB TOTAL       ACCESS:    1639159  HIT:    1492960  MISS:     146199  iACCESS:     382572  iHIT:     373610  iMISS:       8962  dACCESS:    1256587  dHIT:    1119350  dMISS:     137237  itACCESS:          0  itHIT:          0  itMISS:          0  dtACCESS:          0  dtHIT:          0  dtMISS:          0
cpu0_STLB LOAD         ACCESS:    1639159  HIT:    1492960  MISS:     146199  iACCESS:     382572  iHIT:     373610  iMISS:       8962  dACCESS:    1256587  dHIT:    1119350  dMISS:     137237  itACCESS:          0  itHIT:          0  itMISS:          0  dtACCESS:          0  dtHIT:          0  dtMISS:          0
cpu0_STLB RFO          ACCESS:          0  HIT:          0  MISS:          0  iACCESS:          0  iHIT:          0  iMISS:          0  dACCESS:          0  dHIT:          0  dMISS:          0  itACCESS:          0  itHIT:          0  itMISS:          0  dtACCESS:          0  dtHIT:          0  dtMISS:          0
cpu0_STLB PREFETCH     ACCESS:          0  HIT:          0  MISS:          0  iACCESS:          0  iHIT:          0  iMISS:          0  dACCESS:          0  dHIT:          0  dMISS:          0  itACCESS:          0  itHIT:          0  itMISS:          0  dtACCESS:          0  dtHIT:          0  dtMISS:          0
cpu0_STLB WRITE        ACCESS:          0  HIT:          0  MISS:          0  iACCESS:          0  iHIT:          0  iMISS:          0  dACCESS:          0  dHIT:          0  dMISS:          0  itACCESS:          0  itHIT:          0  itMISS:          0  dtACCESS:          0  dtHIT:          0  dtMISS:          0
cpu0_STLB TRANSLATION  ACCESS:          0  HIT:          0  MISS:          0  iACCESS:          0  iHIT:          0  iMISS:          0  dACCESS:          0  dHIT:          0  dMISS:          0  itACCESS:          0  itHIT:          0  itMISS:          0  dtACCESS:          0  dtHIT:          0  dtMISS:          0
cpu0_STLB PREFETCH  REQUESTED:          0  ISSUED:          0  CROSSED:          0  USEFUL:          0  USELESS:          0
cpu0_STLB AVERAGE iMISS LATENCY: 6.01714 cycles
cpu0_STLB AVERAGE dMISS LATENCY: 75.4656 cycles
cpu0_STLB AVERAGE itMISS LATENCY: 0 cycles
cpu0_STLB AVERAGE dtMISS LATENCY: 0 cycles
cpu0_STLB PAGE CROSSINGS (TLB HIT):         0 
cpu0_STLB PAGE CROSSINGS (TLB MISS):         0 
cpu0_STLB AVERAGE MISS LATENCY: 81.4827 cycles
cpu0_L1D TOTAL       ACCESS:   41620542  HIT:   38076011  MISS:    3544531  iACCESS:          0  iHIT:          0  iMISS:          0  dACCESS:   41403868  dHIT:   38062177  dMISS:    3341691  itACCESS:      10387  itHIT:       1222  itMISS:       9165  dtACCESS:     206287  dtHIT:      12612  dtMISS:     193675
cpu0_L1D LOAD         ACCESS:   18964021  HIT:   17453738  MISS:    1510283  iACCESS:          0  iHIT:          0  iMISS:          0  dACCESS:   18964021  dHIT:   17453738  dMISS:    1510283  itACCESS:          0  itHIT:          0  itMISS:          0  dtACCESS:          0  dtHIT:          0  dtMISS:          0
cpu0_L1D RFO          ACCESS:          0  HIT:          0  MISS:          0  iACCESS:          0  iHIT:          0  iMISS:          0  dACCESS:          0  dHIT:          0  dMISS:          0  itACCESS:          0  itHIT:          0  itMISS:          0  dtACCESS:          0  dtHIT:          0  dtMISS:          0
cpu0_L1D PREFETCH     ACCESS:   12254116  HIT:   10869328  MISS:    1384788  iACCESS:          0  iHIT:          0  iMISS:          0  dACCESS:   12254116  dHIT:   10869328  dMISS:    1384788  itACCESS:          0  itHIT:          0  itMISS:          0  dtACCESS:          0  dtHIT:          0  dtMISS:          0
cpu0_L1D WRITE        ACCESS:   10185731  HIT:    9739111  MISS:     446620  iACCESS:          0  iHIT:          0  iMISS:          0  dACCESS:   10185731  dHIT:    9739111  dMISS:     446620  itACCESS:          0  itHIT:          0  itMISS:          0  dtACCESS:          0  dtHIT:          0  dtMISS:          0
cpu0_L1D TRANSLATION  ACCESS:     216674  HIT:      13834  MISS:     202840  iACCESS:          0  iHIT:          0  iMISS:          0  dACCESS:          0  dHIT:          0  dMISS:          0  itACCESS:      10387  itHIT:       1222  itMISS:       9165  dtACCESS:     206287  dtHIT:      12612  dtMISS:     193675
cpu0_L1D PREFETCH  REQUESTED:   18964021  ISSUED:   17095677  CROSSED:          0  USEFUL:     307582  USELESS:     707448
cpu0_L1D AVERAGE iMISS LATENCY: 0 cycles
cpu0_L1D AVERAGE dMISS LATENCY: 36.1957 cycles
cpu0_L1D AVERAGE itMISS LATENCY: 0.220355 cycles
cpu0_L1D AVERAGE dtMISS LATENCY: 2.37556 cycles
cpu0_L1D PAGE CROSSINGS (TLB HIT):         0 
cpu0_L1D PAGE CROSSINGS (TLB MISS):         0 
cpu0_L1D AVERAGE MISS LATENCY: 38.7916 cycles
cpu0_L2C TOTAL       ACCESS:    7041719  HIT:    1238267  MISS:    5803452  iACCESS:    3322004  iHIT:     702437  iMISS:    2619567  dACCESS:    3528199  dHIT:     393478  dMISS:    3134721  itACCESS:       9165  itHIT:       3740  itMISS:       5425  dtACCESS:     182351  dtHIT:     138612  dtMISS:      43739
cpu0_L2C LOAD         ACCESS:    1709594  HIT:     140011  MISS:    1569583  iACCESS:     774047  iHIT:      96826  iMISS:     677221  dACCESS:     935547  dHIT:      43185  dMISS:     892362  itACCESS:          0  itHIT:          0  itMISS:          0  dtACCESS:          0  dtHIT:          0  dtMISS:          0
cpu0_L2C RFO          ACCESS:     159128  HIT:       8144  MISS:     150984  iACCESS:          0  iHIT:          0  iMISS:          0  dACCESS:     159128  dHIT:       8144  dMISS:     150984  itACCESS:          0  itHIT:          0  itMISS:          0  dtACCESS:          0  dtHIT:          0  dtMISS:          0
cpu0_L2C PREFETCH     ACCESS:    4698952  HIT:     890118  MISS:    3808834  iACCESS:    2547957  iHIT:     605611  iMISS:    1942346  dACCESS:    2150995  dHIT:     284507  dMISS:    1866488  itACCESS:          0  itHIT:          0  itMISS:          0  dtACCESS:          0  dtHIT:          0  dtMISS:          0
cpu0_L2C WRITE        ACCESS:     282529  HIT:      57642  MISS:     224887  iACCESS:          0  iHIT:          0  iMISS:          0  dACCESS:     282529  dHIT:      57642  dMISS:     224887  itACCESS:          0  itHIT:          0  itMISS:          0  dtACCESS:          0  dtHIT:          0  dtMISS:          0
cpu0_L2C TRANSLATION  ACCESS:     191516  HIT:     142352  MISS:      49164  iACCESS:          0  iHIT:          0  iMISS:          0  dACCESS:          0  dHIT:          0  dMISS:          0  itACCESS:       9165  itHIT:       3740  itMISS:       5425  dtACCESS:     182351  dtHIT:     138612  dtMISS:      43739
cpu0_L2C PREFETCH  REQUESTED:    1400364  ISSUED:    1400364  CROSSED:          0  USEFUL:     431351  USELESS:     395128
cpu0_L2C AVERAGE iMISS LATENCY: 15.528 cycles
cpu0_L2C AVERAGE dMISS LATENCY: 26.159 cycles
cpu0_L2C AVERAGE itMISS LATENCY: 0.119403 cycles
cpu0_L2C AVERAGE dtMISS LATENCY: 1.15899 cycles
cpu0_L2C PAGE CROSSINGS (TLB HIT):         0 
cpu0_L2C PAGE CROSSINGS (TLB MISS):         0 
cpu0_L2C AVERAGE MISS LATENCY: 42.9653 cycles
LLC TOTAL       ACCESS:    5716042  HIT:    4810161  MISS:     905881  iACCESS:    2561021  iHIT:    2283569  iMISS:     277452  dACCESS:    3105857  dHIT:    2513905  dMISS:     591952  itACCESS:       5425  itHIT:       2051  itMISS:       3374  dtACCESS:      43739  dtHIT:      10636  dtMISS:      33103
LLC LOAD         ACCESS:    1567452  HIT:    1362076  MISS:     205376  iACCESS:     675510  iHIT:     616435  iMISS:      59075  dACCESS:     891942  dHIT:     745641  dMISS:     146301  itACCESS:          0  itHIT:          0  itMISS:          0  dtACCESS:          0  dtHIT:          0  dtMISS:          0
LLC RFO          ACCESS:     150983  HIT:     108455  MISS:      42528  iACCESS:          0  iHIT:          0  iMISS:          0  dACCESS:     150983  dHIT:     108455  dMISS:      42528  itACCESS:          0  itHIT:          0  itMISS:          0  dtACCESS:          0  dtHIT:          0  dtMISS:          0
LLC PREFETCH     ACCESS:    3691903  HIT:    3070404  MISS:     621499  iACCESS:    1885511  iHIT:    1667134  iMISS:     218377  dACCESS:    1806392  dHIT:    1403270  dMISS:     403122  itACCESS:          0  itHIT:          0  itMISS:          0  dtACCESS:          0  dtHIT:          0  dtMISS:          0
LLC WRITE        ACCESS:     256540  HIT:     256539  MISS:          1  iACCESS:          0  iHIT:          0  iMISS:          0  dACCESS:     256540  dHIT:     256539  dMISS:          1  itACCESS:          0  itHIT:          0  itMISS:          0  dtACCESS:          0  dtHIT:          0  dtMISS:          0
LLC TRANSLATION  ACCESS:      49164  HIT:      12687  MISS:      36477  iACCESS:          0  iHIT:          0  iMISS:          0  dACCESS:          0  dHIT:          0  dMISS:          0  itACCESS:       5425  itHIT:       2051  itMISS:       3374  dtACCESS:      43739  dtHIT:      10636  dtMISS:      33103
LLC PREFETCH  REQUESTED:          0  ISSUED:          0  CROSSED:          0  USEFUL:          0  USELESS:          0
LLC AVERAGE iMISS LATENCY: 44.8955 cycles
LLC AVERAGE dMISS LATENCY: 106.873 cycles
LLC AVERAGE itMISS LATENCY: 0.647715 cycles
LLC AVERAGE dtMISS LATENCY: 6.47434 cycles
LLC PAGE CROSSINGS (TLB HIT):         0 
LLC PAGE CROSSINGS (TLB MISS):         0 
LLC AVERAGE MISS LATENCY: 158.89 cycles

PageTableWalker TOTAL       ACCESS:      71301  
PageTableWalker AVERAGE LATENCY: 4.73211 cycles
PageTableWalker TOTAL LATENCY: 337404 cycles

DRAM Statistics
Channel 0
 RQ ROW_BUFFER_HIT:     251975
  ROW_BUFFER_MISS:     653817
 AVG DBUS CONGESTED CYCLE:    3.63455
 WQ ROW_BUFFER_HIT:      23954
  ROW_BUFFER_MISS:      31099  FULL:          0

