last_page:0x200000000000000
VMEM_RES_CAP:0x100000
PAGE_SIZE:4096
LOG2_PAGE_SIZE:12
LOG2_PAGE_TABLE_SIZE:9
page_table_levels:5
WARNING: physical memory size is smaller than virtual memory size
FDiP enabled with aggresivity 16

*** ChampSim Multicore Out-of-Order Simulator ***

Warmup Instructions: 50000000
Simulation Instructions: 100000000
Number of CPUs: 1
Small page size: 4096
Large page size: 2097152

CPU 0 Bimodal branch predictor
Basic BTB sets: 1024 ways: 8 indirect buffer size: 4096 RAS size: 64
Instruction page size distrubution: 0
Loading instruction page size distribution from /home/bsc/bsc018186/scratch/itp_asplos25_AE/dump/srv228_ap.pdst
Data page size distrubution: 0
Loading data page size distribution from /home/bsc/bsc018186/scratch/itp_asplos25_AE/dump/srv228_ap.pdst
cpu0_L2C IP-based stride prefetcher
cpu0_L1D next line prefetcher
CHiRPing...
cpu0_L1I next line prefetcher
Off-chip DRAM Size: 4 GiB Channels: 1 Width: 64-bit Data Rate: 3200 MT/s
Heartbeat CPU 0 instructions: 10000002 cycles: 2500184 heartbeat IPC: 3.99971 cumulative IPC: 3.99971 (Simulation time: 0 hr 0 min 38 sec) 
Heartbeat CPU 0 instructions: 20000001 cycles: 5000244 heartbeat IPC: 3.99991 cumulative IPC: 3.99981 (Simulation time: 0 hr 1 min 18 sec) 
Heartbeat CPU 0 instructions: 30000002 cycles: 7500274 heartbeat IPC: 3.99996 cumulative IPC: 3.99986 (Simulation time: 0 hr 1 min 58 sec) 
Heartbeat CPU 0 instructions: 40000003 cycles: 10000332 heartbeat IPC: 3.99991 cumulative IPC: 3.99987 (Simulation time: 0 hr 2 min 39 sec) 
Heartbeat CPU 0 instructions: 50000002 cycles: 12500332 heartbeat IPC: 4 cumulative IPC: 3.9999 (Simulation time: 0 hr 3 min 20 sec) 
Warmup finished CPU 0 instructions: 50000002 cycles: 12500333 cumulative IPC: 3.9999 (Simulation time: 0 hr 3 min 20 sec) 

Warmup complete CPU 0 instructions: 50000002 cycles: 12500333 (Simulation time: 0 hr 3 min 20 sec) 

Heartbeat CPU 0 instructions: 60000000 cycles: 28418534 heartbeat IPC: 0.628212 cumulative IPC: 0.628212 (Simulation time: 0 hr 4 min 26 sec) 
Heartbeat CPU 0 instructions: 70000003 cycles: 44114688 heartbeat IPC: 0.637099 cumulative IPC: 0.632625 (Simulation time: 0 hr 5 min 32 sec) 
Heartbeat CPU 0 instructions: 80000002 cycles: 59361478 heartbeat IPC: 0.655876 cumulative IPC: 0.64019 (Simulation time: 0 hr 6 min 38 sec) 
Heartbeat CPU 0 instructions: 90000004 cycles: 74657654 heartbeat IPC: 0.653759 cumulative IPC: 0.643529 (Simulation time: 0 hr 7 min 44 sec) 
Heartbeat CPU 0 instructions: 100000000 cycles: 90078841 heartbeat IPC: 0.648459 cumulative IPC: 0.644509 (Simulation time: 0 hr 8 min 51 sec) 
*** Reached end of trace: /gpfs/projects/bsc18/MN4/bsc18/romol/ChampSim/traces/qualcomm_srv/srv228_ap.champsimtrace.xz
Heartbeat CPU 0 instructions: 110000000 cycles: 105992671 heartbeat IPC: 0.628385 cumulative IPC: 0.641764 (Simulation time: 0 hr 9 min 58 sec) 
Heartbeat CPU 0 instructions: 120000000 cycles: 121698954 heartbeat IPC: 0.636688 cumulative IPC: 0.641034 (Simulation time: 0 hr 11 min 4 sec) 
Heartbeat CPU 0 instructions: 130000004 cycles: 136313471 heartbeat IPC: 0.684252 cumulative IPC: 0.646136 (Simulation time: 0 hr 12 min 10 sec) 
Heartbeat CPU 0 instructions: 140000001 cycles: 152235625 heartbeat IPC: 0.628056 cumulative IPC: 0.644075 (Simulation time: 0 hr 13 min 20 sec) 
Heartbeat CPU 0 instructions: 150000000 cycles: 167134519 heartbeat IPC: 0.671191 cumulative IPC: 0.646688 (Simulation time: 0 hr 14 min 27 sec) 
Simulation finished CPU 0 instructions: 100000001 cycles: 154634189 cumulative IPC: 0.646688 (Simulation time: 0 hr 14 min 27 sec) 

Simulation complete CPU 0 instructions: 100000001 cycles: 154634189 (Simulation time: 0 hr 14 min 27 sec) 


ChampSim completed all CPUs

Saving instructions large page distribution to /home/bsc/bsc018186/scratch/itp_asplos25_AE/dump/srv228_ap.pdst...
Saving data large page distribution to /home/bsc/bsc018186/scratch/itp_asplos25_AE/dump/srv228_ap.pdst...
=== Simulation ===
CPU 0 runs /gpfs/projects/bsc18/MN4/bsc18/romol/ChampSim/traces/qualcomm_srv/srv228_ap.champsimtrace.xz

Region of Interest Statistics

CPU 0 cumulative IPC: 0.646688 instructions: 100000001 cycles: 154634189
CPU 0 Branch Prediction Accuracy: 82.6742% MPKI: 30.9851 Average ROB Occupancy at Mispredict: 12.4222
Branch type MPKI
BRANCH_DIRECT_JUMP: 1.06741
BRANCH_INDIRECT: 15.7828
BRANCH_CONDITIONAL: 10.2852
BRANCH_DIRECT_CALL: 1.93595
BRANCH_INDIRECT_CALL: 0.52536
BRANCH_RETURN: 1.38839

Instructions large pages: 0
Instructions small pages: 10544
Large page distribution for instructions: 0%

Data large pages: 0
Data small pages: 9583
Large page distribution for data: 0%

cpu0_L1I TOTAL       ACCESS:   35094538  HIT:   27232172  MISS:    7862366  iACCESS:   35094538  iHIT:   27232172  iMISS:    7862366  dACCESS:          0  dHIT:          0  dMISS:          0  itACCESS:          0  itHIT:          0  itMISS:          0  dtACCESS:          0  dtHIT:          0  dtMISS:          0
cpu0_L1I LOAD         ACCESS:   10298134  HIT:    8092483  MISS:    2205651  iACCESS:   10298134  iHIT:    8092483  iMISS:    2205651  dACCESS:          0  dHIT:          0  dMISS:          0  itACCESS:          0  itHIT:          0  itMISS:          0  dtACCESS:          0  dtHIT:          0  dtMISS:          0
cpu0_L1I RFO          ACCESS:          0  HIT:          0  MISS:          0  iACCESS:          0  iHIT:          0  iMISS:          0  dACCESS:          0  dHIT:          0  dMISS:          0  itACCESS:          0  itHIT:          0  itMISS:          0  dtACCESS:          0  dtHIT:          0  dtMISS:          0
cpu0_L1I PREFETCH     ACCESS:   24796404  HIT:   19139689  MISS:    5656715  iACCESS:   24796404  iHIT:   19139689  iMISS:    5656715  dACCESS:          0  dHIT:          0  dMISS:          0  itACCESS:          0  itHIT:          0  itMISS:          0  dtACCESS:          0  dtHIT:          0  dtMISS:          0
cpu0_L1I WRITE        ACCESS:          0  HIT:          0  MISS:          0  iACCESS:          0  iHIT:          0  iMISS:          0  dACCESS:          0  dHIT:          0  dMISS:          0  itACCESS:          0  itHIT:          0  itMISS:          0  dtACCESS:          0  dtHIT:          0  dtMISS:          0
cpu0_L1I TRANSLATION  ACCESS:          0  HIT:          0  MISS:          0  iACCESS:          0  iHIT:          0  iMISS:          0  dACCESS:          0  dHIT:          0  dMISS:          0  itACCESS:          0  itHIT:          0  itMISS:          0  dtACCESS:          0  dtHIT:          0  dtMISS:          0
cpu0_L1I PREFETCH  REQUESTED:   27333952  ISSUED:   27333952  CROSSED:          0  USEFUL:    1943109  USELESS:     630794
cpu0_L1I AVERAGE iMISS LATENCY: 12.7241 cycles
cpu0_L1I AVERAGE dMISS LATENCY: 0 cycles
cpu0_L1I AVERAGE itMISS LATENCY: 0 cycles
cpu0_L1I AVERAGE dtMISS LATENCY: 0 cycles
cpu0_L1I PAGE CROSSINGS (TLB HIT):         0 
cpu0_L1I PAGE CROSSINGS (TLB MISS):         0 
cpu0_L1I AVERAGE MISS LATENCY: 12.7241 cycles
cpu0_ITLB TOTAL       ACCESS:   29326261  HIT:   27372884  MISS:    1953377  iACCESS:   29326261  iHIT:   27372884  iMISS:    1953377  dACCESS:          0  dHIT:          0  dMISS:          0  itACCESS:          0  itHIT:          0  itMISS:          0  dtACCESS:          0  dtHIT:          0  dtMISS:          0
cpu0_ITLB LOAD         ACCESS:   29326261  HIT:   27372884  MISS:    1953377  iACCESS:   29326261  iHIT:   27372884  iMISS:    1953377  dACCESS:          0  dHIT:          0  dMISS:          0  itACCESS:          0  itHIT:          0  itMISS:          0  dtACCESS:          0  dtHIT:          0  dtMISS:          0
cpu0_ITLB RFO          ACCESS:          0  HIT:          0  MISS:          0  iACCESS:          0  iHIT:          0  iMISS:          0  dACCESS:          0  dHIT:          0  dMISS:          0  itACCESS:          0  itHIT:          0  itMISS:          0  dtACCESS:          0  dtHIT:          0  dtMISS:          0
cpu0_ITLB PREFETCH     ACCESS:          0  HIT:          0  MISS:          0  iACCESS:          0  iHIT:          0  iMISS:          0  dACCESS:          0  dHIT:          0  dMISS:          0  itACCESS:          0  itHIT:          0  itMISS:          0  dtACCESS:          0  dtHIT:          0  dtMISS:          0
cpu0_ITLB WRITE        ACCESS:          0  HIT:          0  MISS:          0  iACCESS:          0  iHIT:          0  iMISS:          0  dACCESS:          0  dHIT:          0  dMISS:          0  itACCESS:          0  itHIT:          0  itMISS:          0  dtACCESS:          0  dtHIT:          0  dtMISS:          0
cpu0_ITLB TRANSLATION  ACCESS:          0  HIT:          0  MISS:          0  iACCESS:          0  iHIT:          0  iMISS:          0  dACCESS:          0  dHIT:          0  dMISS:          0  itACCESS:          0  itHIT:          0  itMISS:          0  dtACCESS:          0  dtHIT:          0  dtMISS:          0
cpu0_ITLB PREFETCH  REQUESTED:          0  ISSUED:          0  CROSSED:          0  USEFUL:     317660  USELESS:      64923
cpu0_ITLB AVERAGE iMISS LATENCY: 5.32003 cycles
cpu0_ITLB AVERAGE dMISS LATENCY: 0 cycles
cpu0_ITLB AVERAGE itMISS LATENCY: 0 cycles
cpu0_ITLB AVERAGE dtMISS LATENCY: 0 cycles
cpu0_ITLB PAGE CROSSINGS (TLB HIT):         0 
cpu0_ITLB PAGE CROSSINGS (TLB MISS):         0 
cpu0_ITLB AVERAGE MISS LATENCY: 5.32003 cycles
cpu0_DTLB TOTAL       ACCESS:   27730766  HIT:   25615037  MISS:    2115729  iACCESS:          0  iHIT:          0  iMISS:          0  dACCESS:   27730766  dHIT:   25615037  dMISS:    2115729  itACCESS:          0  itHIT:          0  itMISS:          0  dtACCESS:          0  dtHIT:          0  dtMISS:          0
cpu0_DTLB LOAD         ACCESS:   27730766  HIT:   25615037  MISS:    2115729  iACCESS:          0  iHIT:          0  iMISS:          0  dACCESS:   27730766  dHIT:   25615037  dMISS:    2115729  itACCESS:          0  itHIT:          0  itMISS:          0  dtACCESS:          0  dtHIT:          0  dtMISS:          0
cpu0_DTLB RFO          ACCESS:          0  HIT:          0  MISS:          0  iACCESS:          0  iHIT:          0  iMISS:          0  dACCESS:          0  dHIT:          0  dMISS:          0  itACCESS:          0  itHIT:          0  itMISS:          0  dtACCESS:          0  dtHIT:          0  dtMISS:          0
cpu0_DTLB PREFETCH     ACCESS:          0  HIT:          0  MISS:          0  iACCESS:          0  iHIT:          0  iMISS:          0  dACCESS:          0  dHIT:          0  dMISS:          0  itACCESS:          0  itHIT:          0  itMISS:          0  dtACCESS:          0  dtHIT:          0  dtMISS:          0
cpu0_DTLB WRITE        ACCESS:          0  HIT:          0  MISS:          0  iACCESS:          0  iHIT:          0  iMISS:          0  dACCESS:          0  dHIT:          0  dMISS:          0  itACCESS:          0  itHIT:          0  itMISS:          0  dtACCESS:          0  dtHIT:          0  dtMISS:          0
cpu0_DTLB TRANSLATION  ACCESS:          0  HIT:          0  MISS:          0  iACCESS:          0  iHIT:          0  iMISS:          0  dACCESS:          0  dHIT:          0  dMISS:          0  itACCESS:          0  itHIT:          0  itMISS:          0  dtACCESS:          0  dtHIT:          0  dtMISS:          0
cpu0_DTLB PREFETCH  REQUESTED:          0  ISSUED:          0  CROSSED:          0  USEFUL:          0  USELESS:          0
cpu0_DTLB AVERAGE iMISS LATENCY: 0 cycles
cpu0_DTLB AVERAGE dMISS LATENCY: 14.4595 cycles
cpu0_DTLB AVERAGE itMISS LATENCY: 0 cycles
cpu0_DTLB AVERAGE dtMISS LATENCY: 0 cycles
cpu0_DTLB PAGE CROSSINGS (TLB HIT):         0 
cpu0_DTLB PAGE CROSSINGS (TLB MISS):         0 
cpu0_DTLB AVERAGE MISS LATENCY: 14.4595 cycles
cpu0_STLB TOTAL       ACCESS:    1638958  HIT:    1466380  MISS:     172578  iACCESS:     382583  iHIT:     322137  iMISS:      60446  dACCESS:    1256375  dHIT:    1144243  dMISS:     112132  itACCESS:          0  itHIT:          0  itMISS:          0  dtACCESS:          0  dtHIT:          0  dtMISS:          0
cpu0_STLB LOAD         ACCESS:    1638958  HIT:    1466380  MISS:     172578  iACCESS:     382583  iHIT:     322137  iMISS:      60446  dACCESS:    1256375  dHIT:    1144243  dMISS:     112132  itACCESS:          0  itHIT:          0  itMISS:          0  dtACCESS:          0  dtHIT:          0  dtMISS:          0
cpu0_STLB RFO          ACCESS:          0  HIT:          0  MISS:          0  iACCESS:          0  iHIT:          0  iMISS:          0  dACCESS:          0  dHIT:          0  dMISS:          0  itACCESS:          0  itHIT:          0  itMISS:          0  dtACCESS:          0  dtHIT:          0  dtMISS:          0
cpu0_STLB PREFETCH     ACCESS:          0  HIT:          0  MISS:          0  iACCESS:          0  iHIT:          0  iMISS:          0  dACCESS:          0  dHIT:          0  dMISS:          0  itACCESS:          0  itHIT:          0  itMISS:          0  dtACCESS:          0  dtHIT:          0  dtMISS:          0
cpu0_STLB WRITE        ACCESS:          0  HIT:          0  MISS:          0  iACCESS:          0  iHIT:          0  iMISS:          0  dACCESS:          0  dHIT:          0  dMISS:          0  itACCESS:          0  itHIT:          0  itMISS:          0  dtACCESS:          0  dtHIT:          0  dtMISS:          0
cpu0_STLB TRANSLATION  ACCESS:          0  HIT:          0  MISS:          0  iACCESS:          0  iHIT:          0  iMISS:          0  dACCESS:          0  dHIT:          0  dMISS:          0  itACCESS:          0  itHIT:          0  itMISS:          0  dtACCESS:          0  dtHIT:          0  dtMISS:          0
cpu0_STLB PREFETCH  REQUESTED:          0  ISSUED:          0  CROSSED:          0  USEFUL:          0  USELESS:          0
cpu0_STLB AVERAGE iMISS LATENCY: 42.6839 cycles
cpu0_STLB AVERAGE dMISS LATENCY: 119.244 cycles
cpu0_STLB AVERAGE itMISS LATENCY: 0 cycles
cpu0_STLB AVERAGE dtMISS LATENCY: 0 cycles
cpu0_STLB PAGE CROSSINGS (TLB HIT):         0 
cpu0_STLB PAGE CROSSINGS (TLB MISS):         0 
cpu0_STLB AVERAGE MISS LATENCY: 161.927 cycles
cpu0_L1D TOTAL       ACCESS:   41538746  HIT:   38071381  MISS:    3467365  iACCESS:          0  iHIT:          0  iMISS:          0  dACCESS:   41304795  dHIT:   38050464  dMISS:    3254331  itACCESS:      65541  itHIT:       9543  itMISS:      55998  dtACCESS:     168410  dtHIT:      11374  dtMISS:     157036
cpu0_L1D LOAD         ACCESS:   18932265  HIT:   17445211  MISS:    1487054  iACCESS:          0  iHIT:          0  iMISS:          0  dACCESS:   18932265  dHIT:   17445211  dMISS:    1487054  itACCESS:          0  itHIT:          0  itMISS:          0  dtACCESS:          0  dtHIT:          0  dtMISS:          0
cpu0_L1D RFO          ACCESS:          0  HIT:          0  MISS:          0  iACCESS:          0  iHIT:          0  iMISS:          0  dACCESS:          0  dHIT:          0  dMISS:          0  itACCESS:          0  itHIT:          0  itMISS:          0  dtACCESS:          0  dtHIT:          0  dtMISS:          0
cpu0_L1D PREFETCH     ACCESS:   12192428  HIT:   10858133  MISS:    1334295  iACCESS:          0  iHIT:          0  iMISS:          0  dACCESS:   12192428  dHIT:   10858133  dMISS:    1334295  itACCESS:          0  itHIT:          0  itMISS:          0  dtACCESS:          0  dtHIT:          0  dtMISS:          0
cpu0_L1D WRITE        ACCESS:   10180102  HIT:    9747120  MISS:     432982  iACCESS:          0  iHIT:          0  iMISS:          0  dACCESS:   10180102  dHIT:    9747120  dMISS:     432982  itACCESS:          0  itHIT:          0  itMISS:          0  dtACCESS:          0  dtHIT:          0  dtMISS:          0
cpu0_L1D TRANSLATION  ACCESS:     233951  HIT:      20917  MISS:     213034  iACCESS:          0  iHIT:          0  iMISS:          0  dACCESS:          0  dHIT:          0  dMISS:          0  itACCESS:      65541  itHIT:       9543  itMISS:      55998  dtACCESS:     168410  dtHIT:      11374  dtMISS:     157036
cpu0_L1D PREFETCH  REQUESTED:   18932265  ISSUED:   17054587  CROSSED:          0  USEFUL:     306058  USELESS:     708688
cpu0_L1D AVERAGE iMISS LATENCY: 0 cycles
cpu0_L1D AVERAGE dMISS LATENCY: 32.9449 cycles
cpu0_L1D AVERAGE itMISS LATENCY: 1.97359 cycles
cpu0_L1D AVERAGE dtMISS LATENCY: 5.24731 cycles
cpu0_L1D PAGE CROSSINGS (TLB HIT):         0 
cpu0_L1D PAGE CROSSINGS (TLB MISS):         0 
cpu0_L1D AVERAGE MISS LATENCY: 40.1658 cycles
cpu0_L2C TOTAL       ACCESS:    7046142  HIT:    4068397  MISS:    2977745  iACCESS:    3320993  iHIT:    2208871  iMISS:    1112122  dACCESS:    3521925  dHIT:    1828832  dMISS:    1693093  itACCESS:      55998  itHIT:      10178  itMISS:      45820  dtACCESS:     147226  dtHIT:      20516  dtMISS:     126710
cpu0_L2C LOAD         ACCESS:    1726000  HIT:    1036614  MISS:     689386  iACCESS:     787649  iHIT:     549051  iMISS:     238598  dACCESS:     938351  dHIT:     487563  dMISS:     450788  itACCESS:          0  itHIT:          0  itMISS:          0  dtACCESS:          0  dtHIT:          0  dtMISS:          0
cpu0_L2C RFO          ACCESS:     159069  HIT:      73846  MISS:      85223  iACCESS:          0  iHIT:          0  iMISS:          0  dACCESS:     159069  dHIT:      73846  dMISS:      85223  itACCESS:          0  itHIT:          0  itMISS:          0  dtACCESS:          0  dtHIT:          0  dtMISS:          0
cpu0_L2C PREFETCH     ACCESS:    4674207  HIT:    2644538  MISS:    2029669  iACCESS:    2533344  iHIT:    1659820  iMISS:     873524  dACCESS:    2140863  dHIT:     984718  dMISS:    1156145  itACCESS:          0  itHIT:          0  itMISS:          0  dtACCESS:          0  dtHIT:          0  dtMISS:          0
cpu0_L2C WRITE        ACCESS:     283642  HIT:     282705  MISS:        937  iACCESS:          0  iHIT:          0  iMISS:          0  dACCESS:     283642  dHIT:     282705  dMISS:        937  itACCESS:          0  itHIT:          0  itMISS:          0  dtACCESS:          0  dtHIT:          0  dtMISS:          0
cpu0_L2C TRANSLATION  ACCESS:     203224  HIT:      30694  MISS:     172530  iACCESS:          0  iHIT:          0  iMISS:          0  dACCESS:          0  dHIT:          0  dMISS:          0  itACCESS:      55998  itHIT:      10178  itMISS:      45820  dtACCESS:     147226  dtHIT:      20516  dtMISS:     126710
cpu0_L2C PREFETCH  REQUESTED:    1384720  ISSUED:    1384720  CROSSED:          0  USEFUL:     333573  USELESS:     238930
cpu0_L2C AVERAGE iMISS LATENCY: 23.5036 cycles
cpu0_L2C AVERAGE dMISS LATENCY: 44.877 cycles
cpu0_L2C AVERAGE itMISS LATENCY: 2.11294 cycles
cpu0_L2C AVERAGE dtMISS LATENCY: 5.61878 cycles
cpu0_L2C PAGE CROSSINGS (TLB HIT):         0 
cpu0_L2C PAGE CROSSINGS (TLB MISS):         0 
cpu0_L2C AVERAGE MISS LATENCY: 76.1124 cycles
LLC TOTAL       ACCESS:    3001072  HIT:    1922476  MISS:    1078596  iACCESS:    1058033  iHIT:     722244  iMISS:     335789  dACCESS:    1770509  dHIT:    1138910  dMISS:     631599  itACCESS:      45820  itHIT:      14333  itMISS:      31487  dtACCESS:     126710  dtHIT:      46989  dtMISS:      79721
LLC LOAD         ACCESS:     687670  HIT:     454060  MISS:     233610  iACCESS:     237191  iHIT:     162971  iMISS:      74220  dACCESS:     450479  dHIT:     291089  dMISS:     159390  itACCESS:          0  itHIT:          0  itMISS:          0  dtACCESS:          0  dtHIT:          0  dtMISS:          0
LLC RFO          ACCESS:      85220  HIT:      45913  MISS:      39307  iACCESS:          0  iHIT:          0  iMISS:          0  dACCESS:      85220  dHIT:      45913  dMISS:      39307  itACCESS:          0  itHIT:          0  itMISS:          0  dtACCESS:          0  dtHIT:          0  dtMISS:          0
LLC PREFETCH     ACCESS:    1924095  HIT:    1235184  MISS:     688911  iACCESS:     820842  iHIT:     559273  iMISS:     261569  dACCESS:    1103253  dHIT:     675911  dMISS:     427342  itACCESS:          0  itHIT:          0  itMISS:          0  dtACCESS:          0  dtHIT:          0  dtMISS:          0
LLC WRITE        ACCESS:     131557  HIT:     125997  MISS:       5560  iACCESS:          0  iHIT:          0  iMISS:          0  dACCESS:     131557  dHIT:     125997  dMISS:       5560  itACCESS:          0  itHIT:          0  itMISS:          0  dtACCESS:          0  dtHIT:          0  dtMISS:          0
LLC TRANSLATION  ACCESS:     172530  HIT:      61322  MISS:     111208  iACCESS:          0  iHIT:          0  iMISS:          0  dACCESS:          0  dHIT:          0  dMISS:          0  itACCESS:      45820  itHIT:      14333  itMISS:      31487  dtACCESS:     126710  dtHIT:      46989  dtMISS:      79721
LLC PREFETCH  REQUESTED:          0  ISSUED:          0  CROSSED:          0  USEFUL:          0  USELESS:          0
LLC AVERAGE iMISS LATENCY: 45.8242 cycles
LLC AVERAGE dMISS LATENCY: 94.463 cycles
LLC AVERAGE itMISS LATENCY: 4.99924 cycles
LLC AVERAGE dtMISS LATENCY: 13.2128 cycles
LLC PAGE CROSSINGS (TLB HIT):         0 
LLC PAGE CROSSINGS (TLB MISS):         0 
LLC AVERAGE MISS LATENCY: 158.5 cycles

PageTableWalker TOTAL       ACCESS:      85964  
PageTableWalker AVERAGE LATENCY: 5.20834 cycles
PageTableWalker TOTAL LATENCY: 447729 cycles

DRAM Statistics
Channel 0
 RQ ROW_BUFFER_HIT:     275103
  ROW_BUFFER_MISS:     797883
 AVG DBUS CONGESTED CYCLE:    3.61614
 WQ ROW_BUFFER_HIT:      20848
  ROW_BUFFER_MISS:      20690  FULL:          0

