last_page:0x200000000000000
VMEM_RES_CAP:0x100000
PAGE_SIZE:4096
LOG2_PAGE_SIZE:12
LOG2_PAGE_TABLE_SIZE:9
page_table_levels:5
WARNING: physical memory size is smaller than virtual memory size
FDiP enabled with aggresivity 16

*** ChampSim Multicore Out-of-Order Simulator ***

Warmup Instructions: 50000000
Simulation Instructions: 100000000
Number of CPUs: 1
Small page size: 4096
Large page size: 2097152

CPU 0 Bimodal branch predictor
Basic BTB sets: 1024 ways: 8 indirect buffer size: 4096 RAS size: 64
Instruction page size distrubution: 0
Loading instruction page size distribution from /home/bsc/bsc018186/scratch/itp_asplos25_AE/dump/srv228_ap.pdst
Data page size distrubution: 0
Loading data page size distribution from /home/bsc/bsc018186/scratch/itp_asplos25_AE/dump/srv228_ap.pdst
cpu0_L2C IP-based stride prefetcher
cpu0_L2C is using xPTP/LRU
	TLB_LOWER_STRESS_THRESHOLD:1
	TLB_UPPER_STRESS_THRESHOLD:9
	MIN_EVICTION_POSITION:4
cpu0_L1D next line prefetcher
cpu0_STLB using iTP with max lru@8
cpu0_STLB using iTP with instr@0 and data@2
Init sat counter with 3 bits (max:50).
cpu0_L1I next line prefetcher
Off-chip DRAM Size: 4 GiB Channels: 1 Width: 64-bit Data Rate: 3200 MT/s
Heartbeat CPU 0 instructions: 10000003 cycles: 2500215 heartbeat IPC: 3.99966 cumulative IPC: 3.99966 (Simulation time: 0 hr 0 min 39 sec) 
Heartbeat CPU 0 instructions: 20000001 cycles: 5000221 heartbeat IPC: 3.99999 cumulative IPC: 3.99983 (Simulation time: 0 hr 1 min 19 sec) 
Heartbeat CPU 0 instructions: 30000000 cycles: 7500247 heartbeat IPC: 3.99996 cumulative IPC: 3.99987 (Simulation time: 0 hr 1 min 59 sec) 
Heartbeat CPU 0 instructions: 40000000 cycles: 10000247 heartbeat IPC: 4 cumulative IPC: 3.99991 (Simulation time: 0 hr 2 min 40 sec) 
Heartbeat CPU 0 instructions: 50000000 cycles: 12500247 heartbeat IPC: 4 cumulative IPC: 3.99993 (Simulation time: 0 hr 3 min 23 sec) 
Warmup finished CPU 0 instructions: 50000000 cycles: 12500248 cumulative IPC: 3.99993 (Simulation time: 0 hr 3 min 23 sec) 

Warmup complete CPU 0 instructions: 50000000 cycles: 12500248 (Simulation time: 0 hr 3 min 23 sec) 

Heartbeat CPU 0 instructions: 60000000 cycles: 26073587 heartbeat IPC: 0.736739 cumulative IPC: 0.736739 (Simulation time: 0 hr 4 min 33 sec) 
Heartbeat CPU 0 instructions: 70000001 cycles: 39385448 heartbeat IPC: 0.75121 cumulative IPC: 0.743904 (Simulation time: 0 hr 5 min 41 sec) 
Heartbeat CPU 0 instructions: 80000002 cycles: 52319638 heartbeat IPC: 0.773145 cumulative IPC: 0.753402 (Simulation time: 0 hr 6 min 50 sec) 
Heartbeat CPU 0 instructions: 90000004 cycles: 65476453 heartbeat IPC: 0.760063 cumulative IPC: 0.755057 (Simulation time: 0 hr 7 min 58 sec) 
Heartbeat CPU 0 instructions: 100000000 cycles: 78567931 heartbeat IPC: 0.763856 cumulative IPC: 0.7568 (Simulation time: 0 hr 9 min 7 sec) 
*** Reached end of trace: /gpfs/projects/bsc18/MN4/bsc18/romol/ChampSim/traces/qualcomm_srv/srv228_ap.champsimtrace.xz
Heartbeat CPU 0 instructions: 110000000 cycles: 92024823 heartbeat IPC: 0.743114 cumulative IPC: 0.754484 (Simulation time: 0 hr 10 min 13 sec) 
Heartbeat CPU 0 instructions: 120000000 cycles: 105419554 heartbeat IPC: 0.746563 cumulative IPC: 0.753342 (Simulation time: 0 hr 11 min 16 sec) 
Heartbeat CPU 0 instructions: 130000004 cycles: 117968526 heartbeat IPC: 0.796879 cumulative IPC: 0.758522 (Simulation time: 0 hr 12 min 22 sec) 
Heartbeat CPU 0 instructions: 140000001 cycles: 131468297 heartbeat IPC: 0.740754 cumulative IPC: 0.756506 (Simulation time: 0 hr 13 min 27 sec) 
Heartbeat CPU 0 instructions: 150000000 cycles: 144129355 heartbeat IPC: 0.789824 cumulative IPC: 0.759711 (Simulation time: 0 hr 14 min 29 sec) 
Simulation finished CPU 0 instructions: 100000000 cycles: 131629108 cumulative IPC: 0.759711 (Simulation time: 0 hr 14 min 29 sec) 

Simulation complete CPU 0 instructions: 100000000 cycles: 131629108 (Simulation time: 0 hr 14 min 29 sec) 


ChampSim completed all CPUs

Saving instructions large page distribution to /home/bsc/bsc018186/scratch/itp_asplos25_AE/dump/srv228_ap.pdst...
Saving data large page distribution to /home/bsc/bsc018186/scratch/itp_asplos25_AE/dump/srv228_ap.pdst...
=== Simulation ===
CPU 0 runs /gpfs/projects/bsc18/MN4/bsc18/romol/ChampSim/traces/qualcomm_srv/srv228_ap.champsimtrace.xz

Region of Interest Statistics

CPU 0 cumulative IPC: 0.759711 instructions: 100000000 cycles: 131629108
CPU 0 Branch Prediction Accuracy: 82.6742% MPKI: 30.9851 Average ROB Occupancy at Mispredict: 12.0616
Branch type MPKI
BRANCH_DIRECT_JUMP: 1.06742
BRANCH_INDIRECT: 15.7828
BRANCH_CONDITIONAL: 10.2852
BRANCH_DIRECT_CALL: 1.93596
BRANCH_INDIRECT_CALL: 0.525361
BRANCH_RETURN: 1.3884

Instructions large pages: 0
Instructions small pages: 10544
Large page distribution for instructions: 0%

Data large pages: 0
Data small pages: 9583
Large page distribution for data: 0%

cpu0_L1I TOTAL       ACCESS:   35283778  HIT:   27222502  MISS:    8061276  iACCESS:   35283778  iHIT:   27222502  iMISS:    8061276  dACCESS:          0  dHIT:          0  dMISS:          0  itACCESS:          0  itHIT:          0  itMISS:          0  dtACCESS:          0  dtHIT:          0  dtMISS:          0
cpu0_L1I LOAD         ACCESS:   10345774  HIT:    8096168  MISS:    2249606  iACCESS:   10345774  iHIT:    8096168  iMISS:    2249606  dACCESS:          0  dHIT:          0  dMISS:          0  itACCESS:          0  itHIT:          0  itMISS:          0  dtACCESS:          0  dtHIT:          0  dtMISS:          0
cpu0_L1I RFO          ACCESS:          0  HIT:          0  MISS:          0  iACCESS:          0  iHIT:          0  iMISS:          0  dACCESS:          0  dHIT:          0  dMISS:          0  itACCESS:          0  itHIT:          0  itMISS:          0  dtACCESS:          0  dtHIT:          0  dtMISS:          0
cpu0_L1I PREFETCH     ACCESS:   24938004  HIT:   19126334  MISS:    5811670  iACCESS:   24938004  iHIT:   19126334  iMISS:    5811670  dACCESS:          0  dHIT:          0  dMISS:          0  itACCESS:          0  itHIT:          0  itMISS:          0  dtACCESS:          0  dtHIT:          0  dtMISS:          0
cpu0_L1I WRITE        ACCESS:          0  HIT:          0  MISS:          0  iACCESS:          0  iHIT:          0  iMISS:          0  dACCESS:          0  dHIT:          0  dMISS:          0  itACCESS:          0  itHIT:          0  itMISS:          0  dtACCESS:          0  dtHIT:          0  dtMISS:          0
cpu0_L1I TRANSLATION  ACCESS:          0  HIT:          0  MISS:          0  iACCESS:          0  iHIT:          0  iMISS:          0  dACCESS:          0  dHIT:          0  dMISS:          0  itACCESS:          0  itHIT:          0  itMISS:          0  dtACCESS:          0  dtHIT:          0  dtMISS:          0
cpu0_L1I PREFETCH  REQUESTED:   27376351  ISSUED:   27376313  CROSSED:          0  USEFUL:    1956283  USELESS:     630748
cpu0_L1I AVERAGE iMISS LATENCY: 11.1406 cycles
cpu0_L1I AVERAGE dMISS LATENCY: 0 cycles
cpu0_L1I AVERAGE itMISS LATENCY: 0 cycles
cpu0_L1I AVERAGE dtMISS LATENCY: 0 cycles
cpu0_L1I PAGE CROSSINGS (TLB HIT):         0 
cpu0_L1I PAGE CROSSINGS (TLB MISS):         0 
cpu0_L1I AVERAGE MISS LATENCY: 11.1406 cycles
cpu0_ITLB TOTAL       ACCESS:   29385152  HIT:   27461594  MISS:    1923558  iACCESS:   29385152  iHIT:   27461594  iMISS:    1923558  dACCESS:          0  dHIT:          0  dMISS:          0  itACCESS:          0  itHIT:          0  itMISS:          0  dtACCESS:          0  dtHIT:          0  dtMISS:          0
cpu0_ITLB LOAD         ACCESS:   29385152  HIT:   27461594  MISS:    1923558  iACCESS:   29385152  iHIT:   27461594  iMISS:    1923558  dACCESS:          0  dHIT:          0  dMISS:          0  itACCESS:          0  itHIT:          0  itMISS:          0  dtACCESS:          0  dtHIT:          0  dtMISS:          0
cpu0_ITLB RFO          ACCESS:          0  HIT:          0  MISS:          0  iACCESS:          0  iHIT:          0  iMISS:          0  dACCESS:          0  dHIT:          0  dMISS:          0  itACCESS:          0  itHIT:          0  itMISS:          0  dtACCESS:          0  dtHIT:          0  dtMISS:          0
cpu0_ITLB PREFETCH     ACCESS:          0  HIT:          0  MISS:          0  iACCESS:          0  iHIT:          0  iMISS:          0  dACCESS:          0  dHIT:          0  dMISS:          0  itACCESS:          0  itHIT:          0  itMISS:          0  dtACCESS:          0  dtHIT:          0  dtMISS:          0
cpu0_ITLB WRITE        ACCESS:          0  HIT:          0  MISS:          0  iACCESS:          0  iHIT:          0  iMISS:          0  dACCESS:          0  dHIT:          0  dMISS:          0  itACCESS:          0  itHIT:          0  itMISS:          0  dtACCESS:          0  dtHIT:          0  dtMISS:          0
cpu0_ITLB TRANSLATION  ACCESS:          0  HIT:          0  MISS:          0  iACCESS:          0  iHIT:          0  iMISS:          0  dACCESS:          0  dHIT:          0  dMISS:          0  itACCESS:          0  itHIT:          0  itMISS:          0  dtACCESS:          0  dtHIT:          0  dtMISS:          0
cpu0_ITLB PREFETCH  REQUESTED:          0  ISSUED:          0  CROSSED:          0  USEFUL:     319174  USELESS:      63396
cpu0_ITLB AVERAGE iMISS LATENCY: 2.02417 cycles
cpu0_ITLB AVERAGE dMISS LATENCY: 0 cycles
cpu0_ITLB AVERAGE itMISS LATENCY: 0 cycles
cpu0_ITLB AVERAGE dtMISS LATENCY: 0 cycles
cpu0_ITLB PAGE CROSSINGS (TLB HIT):         0 
cpu0_ITLB PAGE CROSSINGS (TLB MISS):         0 
cpu0_ITLB AVERAGE MISS LATENCY: 2.02417 cycles
cpu0_DTLB TOTAL       ACCESS:   27760660  HIT:   25658734  MISS:    2101926  iACCESS:          0  iHIT:          0  iMISS:          0  dACCESS:   27760660  dHIT:   25658734  dMISS:    2101926  itACCESS:          0  itHIT:          0  itMISS:          0  dtACCESS:          0  dtHIT:          0  dtMISS:          0
cpu0_DTLB LOAD         ACCESS:   27760660  HIT:   25658734  MISS:    2101926  iACCESS:          0  iHIT:          0  iMISS:          0  dACCESS:   27760660  dHIT:   25658734  dMISS:    2101926  itACCESS:          0  itHIT:          0  itMISS:          0  dtACCESS:          0  dtHIT:          0  dtMISS:          0
cpu0_DTLB RFO          ACCESS:          0  HIT:          0  MISS:          0  iACCESS:          0  iHIT:          0  iMISS:          0  dACCESS:          0  dHIT:          0  dMISS:          0  itACCESS:          0  itHIT:          0  itMISS:          0  dtACCESS:          0  dtHIT:          0  dtMISS:          0
cpu0_DTLB PREFETCH     ACCESS:          0  HIT:          0  MISS:          0  iACCESS:          0  iHIT:          0  iMISS:          0  dACCESS:          0  dHIT:          0  dMISS:          0  itACCESS:          0  itHIT:          0  itMISS:          0  dtACCESS:          0  dtHIT:          0  dtMISS:          0
cpu0_DTLB WRITE        ACCESS:          0  HIT:          0  MISS:          0  iACCESS:          0  iHIT:          0  iMISS:          0  dACCESS:          0  dHIT:          0  dMISS:          0  itACCESS:          0  itHIT:          0  itMISS:          0  dtACCESS:          0  dtHIT:          0  dtMISS:          0
cpu0_DTLB TRANSLATION  ACCESS:          0  HIT:          0  MISS:          0  iACCESS:          0  iHIT:          0  iMISS:          0  dACCESS:          0  dHIT:          0  dMISS:          0  itACCESS:          0  itHIT:          0  itMISS:          0  dtACCESS:          0  dtHIT:          0  dtMISS:          0
cpu0_DTLB PREFETCH  REQUESTED:          0  ISSUED:          0  CROSSED:          0  USEFUL:          0  USELESS:          0
cpu0_DTLB AVERAGE iMISS LATENCY: 0 cycles
cpu0_DTLB AVERAGE dMISS LATENCY: 10.79 cycles
cpu0_DTLB AVERAGE itMISS LATENCY: 0 cycles
cpu0_DTLB AVERAGE dtMISS LATENCY: 0 cycles
cpu0_DTLB PAGE CROSSINGS (TLB HIT):         0 
cpu0_DTLB PAGE CROSSINGS (TLB MISS):         0 
cpu0_DTLB AVERAGE MISS LATENCY: 10.79 cycles
cpu0_STLB TOTAL       ACCESS:    1639149  HIT:    1492911  MISS:     146238  iACCESS:     382570  iHIT:     373593  iMISS:       8977  dACCESS:    1256579  dHIT:    1119318  dMISS:     137261  itACCESS:          0  itHIT:          0  itMISS:          0  dtACCESS:          0  dtHIT:          0  dtMISS:          0
cpu0_STLB LOAD         ACCESS:    1639149  HIT:    1492911  MISS:     146238  iACCESS:     382570  iHIT:     373593  iMISS:       8977  dACCESS:    1256579  dHIT:    1119318  dMISS:     137261  itACCESS:          0  itHIT:          0  itMISS:          0  dtACCESS:          0  dtHIT:          0  dtMISS:          0
cpu0_STLB RFO          ACCESS:          0  HIT:          0  MISS:          0  iACCESS:          0  iHIT:          0  iMISS:          0  dACCESS:          0  dHIT:          0  dMISS:          0  itACCESS:          0  itHIT:          0  itMISS:          0  dtACCESS:          0  dtHIT:          0  dtMISS:          0
cpu0_STLB PREFETCH     ACCESS:          0  HIT:          0  MISS:          0  iACCESS:          0  iHIT:          0  iMISS:          0  dACCESS:          0  dHIT:          0  dMISS:          0  itACCESS:          0  itHIT:          0  itMISS:          0  dtACCESS:          0  dtHIT:          0  dtMISS:          0
cpu0_STLB WRITE        ACCESS:          0  HIT:          0  MISS:          0  iACCESS:          0  iHIT:          0  iMISS:          0  dACCESS:          0  dHIT:          0  dMISS:          0  itACCESS:          0  itHIT:          0  itMISS:          0  dtACCESS:          0  dtHIT:          0  dtMISS:          0
cpu0_STLB TRANSLATION  ACCESS:          0  HIT:          0  MISS:          0  iACCESS:          0  iHIT:          0  iMISS:          0  dACCESS:          0  dHIT:          0  dMISS:          0  itACCESS:          0  itHIT:          0  itMISS:          0  dtACCESS:          0  dtHIT:          0  dtMISS:          0
cpu0_STLB PREFETCH  REQUESTED:          0  ISSUED:          0  CROSSED:          0  USEFUL:          0  USELESS:          0
cpu0_STLB AVERAGE iMISS LATENCY: 6.33662 cycles
cpu0_STLB AVERAGE dMISS LATENCY: 86.4873 cycles
cpu0_STLB AVERAGE itMISS LATENCY: 0 cycles
cpu0_STLB AVERAGE dtMISS LATENCY: 0 cycles
cpu0_STLB PAGE CROSSINGS (TLB HIT):         0 
cpu0_STLB PAGE CROSSINGS (TLB MISS):         0 
cpu0_STLB AVERAGE MISS LATENCY: 92.8239 cycles
cpu0_L1D TOTAL       ACCESS:   41561602  HIT:   38100095  MISS:    3461507  iACCESS:          0  iHIT:          0  iMISS:          0  dACCESS:   41345107  dHIT:   38086261  dMISS:    3258846  itACCESS:      10395  itHIT:       1219  itMISS:       9176  dtACCESS:     206100  dtHIT:      12615  dtMISS:     193485
cpu0_L1D LOAD         ACCESS:   18951595  HIT:   17467493  MISS:    1484102  iACCESS:          0  iHIT:          0  iMISS:          0  dACCESS:   18951595  dHIT:   17467493  dMISS:    1484102  itACCESS:          0  itHIT:          0  itMISS:          0  dtACCESS:          0  dtHIT:          0  dtMISS:          0
cpu0_L1D RFO          ACCESS:          0  HIT:          0  MISS:          0  iACCESS:          0  iHIT:          0  iMISS:          0  dACCESS:          0  dHIT:          0  dMISS:          0  itACCESS:          0  itHIT:          0  itMISS:          0  dtACCESS:          0  dtHIT:          0  dtMISS:          0
cpu0_L1D PREFETCH     ACCESS:   12214384  HIT:   10874203  MISS:    1340181  iACCESS:          0  iHIT:          0  iMISS:          0  dACCESS:   12214384  dHIT:   10874203  dMISS:    1340181  itACCESS:          0  itHIT:          0  itMISS:          0  dtACCESS:          0  dtHIT:          0  dtMISS:          0
cpu0_L1D WRITE        ACCESS:   10179128  HIT:    9744565  MISS:     434563  iACCESS:          0  iHIT:          0  iMISS:          0  dACCESS:   10179128  dHIT:    9744565  dMISS:     434563  itACCESS:          0  itHIT:          0  itMISS:          0  dtACCESS:          0  dtHIT:          0  dtMISS:          0
cpu0_L1D TRANSLATION  ACCESS:     216495  HIT:      13834  MISS:     202661  iACCESS:          0  iHIT:          0  iMISS:          0  dACCESS:          0  dHIT:          0  dMISS:          0  itACCESS:      10395  itHIT:       1219  itMISS:       9176  dtACCESS:     206100  dtHIT:      12615  dtMISS:     193485
cpu0_L1D PREFETCH  REQUESTED:   18951595  ISSUED:   17094888  CROSSED:          0  USEFUL:     307568  USELESS:     707748
cpu0_L1D AVERAGE iMISS LATENCY: 0 cycles
cpu0_L1D AVERAGE dMISS LATENCY: 29.0011 cycles
cpu0_L1D AVERAGE itMISS LATENCY: 0.239187 cycles
cpu0_L1D AVERAGE dtMISS LATENCY: 2.89607 cycles
cpu0_L1D PAGE CROSSINGS (TLB HIT):         0 
cpu0_L1D PAGE CROSSINGS (TLB MISS):         0 
cpu0_L1D AVERAGE MISS LATENCY: 32.1364 cycles
cpu0_L2C TOTAL       ACCESS:    7032558  HIT:    2651715  MISS:    4380843  iACCESS:    3321090  iHIT:    1455500  iMISS:    1865590  dACCESS:    3519951  dHIT:    1068247  dMISS:    2451704  itACCESS:       9176  itHIT:       3132  itMISS:       6044  dtACCESS:     182341  dtHIT:     124836  dtMISS:      57505
cpu0_L2C LOAD         ACCESS:    1709314  HIT:     573852  MISS:    1135462  iACCESS:     773605  iHIT:     305539  iMISS:     468066  dACCESS:     935709  dHIT:     268313  dMISS:     667396  itACCESS:          0  itHIT:          0  itMISS:          0  dtACCESS:          0  dtHIT:          0  dtMISS:          0
cpu0_L2C RFO          ACCESS:     159029  HIT:      35247  MISS:     123782  iACCESS:          0  iHIT:          0  iMISS:          0  dACCESS:     159029  dHIT:      35247  dMISS:     123782  itACCESS:          0  itHIT:          0  itMISS:          0  dtACCESS:          0  dtHIT:          0  dtMISS:          0
cpu0_L2C PREFETCH     ACCESS:    4690993  HIT:    1786078  MISS:    2904915  iACCESS:    2547485  iHIT:    1149961  iMISS:    1397524  dACCESS:    2143508  dHIT:     636117  dMISS:    1507391  itACCESS:          0  itHIT:          0  itMISS:          0  dtACCESS:          0  dtHIT:          0  dtMISS:          0
cpu0_L2C WRITE        ACCESS:     281705  HIT:     128570  MISS:     153135  iACCESS:          0  iHIT:          0  iMISS:          0  dACCESS:     281705  dHIT:     128570  dMISS:     153135  itACCESS:          0  itHIT:          0  itMISS:          0  dtACCESS:          0  dtHIT:          0  dtMISS:          0
cpu0_L2C TRANSLATION  ACCESS:     191517  HIT:     127968  MISS:      63549  iACCESS:          0  iHIT:          0  iMISS:          0  dACCESS:          0  dHIT:          0  dMISS:          0  itACCESS:       9176  itHIT:       3132  itMISS:       6044  dtACCESS:     182341  dtHIT:     124836  dtMISS:      57505
cpu0_L2C PREFETCH  REQUESTED:    1390818  ISSUED:    1390818  CROSSED:          0  USEFUL:     366196  USELESS:     325799
cpu0_L2C AVERAGE iMISS LATENCY: 13.4541 cycles
cpu0_L2C AVERAGE dMISS LATENCY: 25.4971 cycles
cpu0_L2C AVERAGE itMISS LATENCY: 0.1687 cycles
cpu0_L2C AVERAGE dtMISS LATENCY: 1.89829 cycles
cpu0_L2C PAGE CROSSINGS (TLB HIT):         0 
cpu0_L2C PAGE CROSSINGS (TLB MISS):         0 
cpu0_L2C AVERAGE MISS LATENCY: 41.0181 cycles
LLC TOTAL       ACCESS:    4337911  HIT:    3715754  MISS:     622157  iACCESS:    1822521  iHIT:    1664809  iMISS:     157712  dACCESS:    2451841  dHIT:    2032281  dMISS:     419560  itACCESS:       6044  itHIT:       2421  itMISS:       3623  dtACCESS:      57505  dtHIT:      16243  dtMISS:      41262
LLC LOAD         ACCESS:    1133655  HIT:     999031  MISS:     134624  iACCESS:     466756  iHIT:     433988  iMISS:      32768  dACCESS:     666899  dHIT:     565043  dMISS:     101856  itACCESS:          0  itHIT:          0  itMISS:          0  dtACCESS:          0  dtHIT:          0  dtMISS:          0
LLC RFO          ACCESS:     123773  HIT:      90910  MISS:      32863  iACCESS:          0  iHIT:          0  iMISS:          0  dACCESS:     123773  dHIT:      90910  dMISS:      32863  itACCESS:          0  itHIT:          0  itMISS:          0  dtACCESS:          0  dtHIT:          0  dtMISS:          0
LLC PREFETCH     ACCESS:    2820727  HIT:    2412589  MISS:     408138  iACCESS:    1355765  iHIT:    1230821  iMISS:     124944  dACCESS:    1464962  dHIT:    1181768  dMISS:     283194  itACCESS:          0  itHIT:          0  itMISS:          0  dtACCESS:          0  dtHIT:          0  dtMISS:          0
LLC WRITE        ACCESS:     196207  HIT:     194560  MISS:       1647  iACCESS:          0  iHIT:          0  iMISS:          0  dACCESS:     196207  dHIT:     194560  dMISS:       1647  itACCESS:          0  itHIT:          0  itMISS:          0  dtACCESS:          0  dtHIT:          0  dtMISS:          0
LLC TRANSLATION  ACCESS:      63549  HIT:      18664  MISS:      44885  iACCESS:          0  iHIT:          0  iMISS:          0  dACCESS:          0  dHIT:          0  dMISS:          0  itACCESS:       6044  itHIT:       2421  itMISS:       3623  dtACCESS:      57505  dtHIT:      16243  dtMISS:      41262
LLC PREFETCH  REQUESTED:          0  ISSUED:          0  CROSSED:          0  USEFUL:          0  USELESS:          0
LLC AVERAGE iMISS LATENCY: 38.2784 cycles
LLC AVERAGE dMISS LATENCY: 109.541 cycles
LLC AVERAGE itMISS LATENCY: 0.997913 cycles
LLC AVERAGE dtMISS LATENCY: 11.5488 cycles
LLC PAGE CROSSINGS (TLB HIT):         0 
LLC PAGE CROSSINGS (TLB MISS):         0 
LLC AVERAGE MISS LATENCY: 160.366 cycles

PageTableWalker TOTAL       ACCESS:      71306  
PageTableWalker AVERAGE LATENCY: 4.83605 cycles
PageTableWalker TOTAL LATENCY: 344839 cycles

DRAM Statistics
Channel 0
 RQ ROW_BUFFER_HIT:     154556
  ROW_BUFFER_MISS:     465889
 AVG DBUS CONGESTED CYCLE:    3.64947
 WQ ROW_BUFFER_HIT:      14795
  ROW_BUFFER_MISS:      27284  FULL:          0

