last_page:0x200000000000000
VMEM_RES_CAP:0x100000
PAGE_SIZE:4096
LOG2_PAGE_SIZE:12
LOG2_PAGE_TABLE_SIZE:9
page_table_levels:5
WARNING: physical memory size is smaller than virtual memory size
FDiP enabled with aggresivity 16

*** ChampSim Multicore Out-of-Order Simulator ***

Warmup Instructions: 50000000
Simulation Instructions: 100000000
Number of CPUs: 1
Small page size: 4096
Large page size: 2097152

CPU 0 Bimodal branch predictor
Basic BTB sets: 1024 ways: 8 indirect buffer size: 4096 RAS size: 64
Instruction page size distrubution: 0
Loading instruction page size distribution from /home/bsc/bsc018186/scratch/itp_asplos25_AE/dump/srv276_ap.pdst
Data page size distrubution: 0
Loading data page size distribution from /home/bsc/bsc018186/scratch/itp_asplos25_AE/dump/srv276_ap.pdst
cpu0_L2C IP-based stride prefetcher
cpu0_L1D next line prefetcher
cpu0_L1I next line prefetcher
Off-chip DRAM Size: 4 GiB Channels: 1 Width: 64-bit Data Rate: 3200 MT/s
Heartbeat CPU 0 instructions: 10000001 cycles: 2509896 heartbeat IPC: 3.98423 cumulative IPC: 3.98423 (Simulation time: 0 hr 0 min 34 sec) 
Heartbeat CPU 0 instructions: 20000001 cycles: 5010444 heartbeat IPC: 3.99913 cumulative IPC: 3.99167 (Simulation time: 0 hr 1 min 11 sec) 
Heartbeat CPU 0 instructions: 30000000 cycles: 7511087 heartbeat IPC: 3.99898 cumulative IPC: 3.9941 (Simulation time: 0 hr 1 min 48 sec) 
Heartbeat CPU 0 instructions: 40000000 cycles: 10014477 heartbeat IPC: 3.99459 cumulative IPC: 3.99422 (Simulation time: 0 hr 2 min 25 sec) 
Heartbeat CPU 0 instructions: 50000003 cycles: 12515208 heartbeat IPC: 3.99884 cumulative IPC: 3.99514 (Simulation time: 0 hr 3 min 2 sec) 
Warmup finished CPU 0 instructions: 50000003 cycles: 12515209 cumulative IPC: 3.99514 (Simulation time: 0 hr 3 min 2 sec) 

Warmup complete CPU 0 instructions: 50000003 cycles: 12515209 (Simulation time: 0 hr 3 min 2 sec) 

Heartbeat CPU 0 instructions: 60000000 cycles: 37758609 heartbeat IPC: 0.396144 cumulative IPC: 0.396144 (Simulation time: 0 hr 4 min 15 sec) 
Heartbeat CPU 0 instructions: 70000001 cycles: 61978173 heartbeat IPC: 0.41289 cumulative IPC: 0.404343 (Simulation time: 0 hr 5 min 26 sec) 
Heartbeat CPU 0 instructions: 80000000 cycles: 82638194 heartbeat IPC: 0.484027 cumulative IPC: 0.42782 (Simulation time: 0 hr 6 min 34 sec) 
Heartbeat CPU 0 instructions: 90000000 cycles: 88894391 heartbeat IPC: 1.59842 cumulative IPC: 0.523703 (Simulation time: 0 hr 7 min 23 sec) 
Heartbeat CPU 0 instructions: 100000002 cycles: 99073797 heartbeat IPC: 0.982376 cumulative IPC: 0.577644 (Simulation time: 0 hr 8 min 11 sec) 
*** Reached end of trace: /gpfs/projects/bsc18/MN4/bsc18/romol/ChampSim/traces/qualcomm_srv/srv276_ap.champsimtrace.xz
Heartbeat CPU 0 instructions: 110000001 cycles: 122719386 heartbeat IPC: 0.422912 cumulative IPC: 0.544444 (Simulation time: 0 hr 9 min 23 sec) 
Heartbeat CPU 0 instructions: 120000003 cycles: 148311673 heartbeat IPC: 0.390743 cumulative IPC: 0.515478 (Simulation time: 0 hr 10 min 37 sec) 
Heartbeat CPU 0 instructions: 130000000 cycles: 173873600 heartbeat IPC: 0.391207 cumulative IPC: 0.495791 (Simulation time: 0 hr 11 min 51 sec) 
Heartbeat CPU 0 instructions: 140000003 cycles: 198033690 heartbeat IPC: 0.413906 cumulative IPC: 0.485127 (Simulation time: 0 hr 13 min 3 sec) 
Heartbeat CPU 0 instructions: 150000002 cycles: 221290181 heartbeat IPC: 0.429988 cumulative IPC: 0.478985 (Simulation time: 0 hr 14 min 13 sec) 
Simulation finished CPU 0 instructions: 100000000 cycles: 208774985 cumulative IPC: 0.478985 (Simulation time: 0 hr 14 min 13 sec) 

Simulation complete CPU 0 instructions: 100000000 cycles: 208774985 (Simulation time: 0 hr 14 min 13 sec) 


ChampSim completed all CPUs

Saving instructions large page distribution to /home/bsc/bsc018186/scratch/itp_asplos25_AE/dump/srv276_ap.pdst...
Saving data large page distribution to /home/bsc/bsc018186/scratch/itp_asplos25_AE/dump/srv276_ap.pdst...
=== Simulation ===
CPU 0 runs /gpfs/projects/bsc18/MN4/bsc18/romol/ChampSim/traces/qualcomm_srv/srv276_ap.champsimtrace.xz

Region of Interest Statistics

CPU 0 cumulative IPC: 0.478985 instructions: 100000000 cycles: 208774985
CPU 0 Branch Prediction Accuracy: 83.3312% MPKI: 32.6245 Average ROB Occupancy at Mispredict: 12.2907
Branch type MPKI
BRANCH_DIRECT_JUMP: 0.994901
BRANCH_INDIRECT: 16.1841
BRANCH_CONDITIONAL: 11.102
BRANCH_DIRECT_CALL: 1.82731
BRANCH_INDIRECT_CALL: 1.13042
BRANCH_RETURN: 1.38584

Instructions large pages: 0
Instructions small pages: 1471
Large page distribution for instructions: 0%

Data large pages: 0
Data small pages: 5292
Large page distribution for data: 0%

cpu0_L1I TOTAL       ACCESS:   30559410  HIT:   24947022  MISS:    5612388  iACCESS:   30559410  iHIT:   24947022  iMISS:    5612388  dACCESS:          0  dHIT:          0  dMISS:          0  itACCESS:          0  itHIT:          0  itMISS:          0  dtACCESS:          0  dtHIT:          0  dtMISS:          0
cpu0_L1I LOAD         ACCESS:    7058950  HIT:    5499051  MISS:    1559899  iACCESS:    7058950  iHIT:    5499051  iMISS:    1559899  dACCESS:          0  dHIT:          0  dMISS:          0  itACCESS:          0  itHIT:          0  itMISS:          0  dtACCESS:          0  dtHIT:          0  dtMISS:          0
cpu0_L1I RFO          ACCESS:          0  HIT:          0  MISS:          0  iACCESS:          0  iHIT:          0  iMISS:          0  dACCESS:          0  dHIT:          0  dMISS:          0  itACCESS:          0  itHIT:          0  itMISS:          0  dtACCESS:          0  dtHIT:          0  dtMISS:          0
cpu0_L1I PREFETCH     ACCESS:   23500460  HIT:   19447971  MISS:    4052489  iACCESS:   23500460  iHIT:   19447971  iMISS:    4052489  dACCESS:          0  dHIT:          0  dMISS:          0  itACCESS:          0  itHIT:          0  itMISS:          0  dtACCESS:          0  dtHIT:          0  dtMISS:          0
cpu0_L1I WRITE        ACCESS:          0  HIT:          0  MISS:          0  iACCESS:          0  iHIT:          0  iMISS:          0  dACCESS:          0  dHIT:          0  dMISS:          0  itACCESS:          0  itHIT:          0  itMISS:          0  dtACCESS:          0  dtHIT:          0  dtMISS:          0
cpu0_L1I TRANSLATION  ACCESS:          0  HIT:          0  MISS:          0  iACCESS:          0  iHIT:          0  iMISS:          0  dACCESS:          0  dHIT:          0  dMISS:          0  itACCESS:          0  itHIT:          0  itMISS:          0  dtACCESS:          0  dtHIT:          0  dtMISS:          0
cpu0_L1I PREFETCH  REQUESTED:   25072972  ISSUED:   25072932  CROSSED:          0  USEFUL:    1384693  USELESS:     502497
cpu0_L1I AVERAGE iMISS LATENCY: 25.0784 cycles
cpu0_L1I AVERAGE dMISS LATENCY: 0 cycles
cpu0_L1I AVERAGE itMISS LATENCY: 0 cycles
cpu0_L1I AVERAGE dtMISS LATENCY: 0 cycles
cpu0_L1I PAGE CROSSINGS (TLB HIT):         0 
cpu0_L1I PAGE CROSSINGS (TLB MISS):         0 
cpu0_L1I AVERAGE MISS LATENCY: 25.0784 cycles
cpu0_ITLB TOTAL       ACCESS:   26274203  HIT:   24903485  MISS:    1370718  iACCESS:   26274203  iHIT:   24903485  iMISS:    1370718  dACCESS:          0  dHIT:          0  dMISS:          0  itACCESS:          0  itHIT:          0  itMISS:          0  dtACCESS:          0  dtHIT:          0  dtMISS:          0
cpu0_ITLB LOAD         ACCESS:   26274203  HIT:   24903485  MISS:    1370718  iACCESS:   26274203  iHIT:   24903485  iMISS:    1370718  dACCESS:          0  dHIT:          0  dMISS:          0  itACCESS:          0  itHIT:          0  itMISS:          0  dtACCESS:          0  dtHIT:          0  dtMISS:          0
cpu0_ITLB RFO          ACCESS:          0  HIT:          0  MISS:          0  iACCESS:          0  iHIT:          0  iMISS:          0  dACCESS:          0  dHIT:          0  dMISS:          0  itACCESS:          0  itHIT:          0  itMISS:          0  dtACCESS:          0  dtHIT:          0  dtMISS:          0
cpu0_ITLB PREFETCH     ACCESS:          0  HIT:          0  MISS:          0  iACCESS:          0  iHIT:          0  iMISS:          0  dACCESS:          0  dHIT:          0  dMISS:          0  itACCESS:          0  itHIT:          0  itMISS:          0  dtACCESS:          0  dtHIT:          0  dtMISS:          0
cpu0_ITLB WRITE        ACCESS:          0  HIT:          0  MISS:          0  iACCESS:          0  iHIT:          0  iMISS:          0  dACCESS:          0  dHIT:          0  dMISS:          0  itACCESS:          0  itHIT:          0  itMISS:          0  dtACCESS:          0  dtHIT:          0  dtMISS:          0
cpu0_ITLB TRANSLATION  ACCESS:          0  HIT:          0  MISS:          0  iACCESS:          0  iHIT:          0  iMISS:          0  dACCESS:          0  dHIT:          0  dMISS:          0  itACCESS:          0  itHIT:          0  itMISS:          0  dtACCESS:          0  dtHIT:          0  dtMISS:          0
cpu0_ITLB PREFETCH  REQUESTED:          0  ISSUED:          0  CROSSED:          0  USEFUL:     236790  USELESS:      49875
cpu0_ITLB AVERAGE iMISS LATENCY: 10.7405 cycles
cpu0_ITLB AVERAGE dMISS LATENCY: 0 cycles
cpu0_ITLB AVERAGE itMISS LATENCY: 0 cycles
cpu0_ITLB AVERAGE dtMISS LATENCY: 0 cycles
cpu0_ITLB PAGE CROSSINGS (TLB HIT):         0 
cpu0_ITLB PAGE CROSSINGS (TLB MISS):         0 
cpu0_ITLB AVERAGE MISS LATENCY: 10.7405 cycles
cpu0_DTLB TOTAL       ACCESS:   31785021  HIT:   27764053  MISS:    4020968  iACCESS:          0  iHIT:          0  iMISS:          0  dACCESS:   31785021  dHIT:   27764053  dMISS:    4020968  itACCESS:          0  itHIT:          0  itMISS:          0  dtACCESS:          0  dtHIT:          0  dtMISS:          0
cpu0_DTLB LOAD         ACCESS:   31785021  HIT:   27764053  MISS:    4020968  iACCESS:          0  iHIT:          0  iMISS:          0  dACCESS:   31785021  dHIT:   27764053  dMISS:    4020968  itACCESS:          0  itHIT:          0  itMISS:          0  dtACCESS:          0  dtHIT:          0  dtMISS:          0
cpu0_DTLB RFO          ACCESS:          0  HIT:          0  MISS:          0  iACCESS:          0  iHIT:          0  iMISS:          0  dACCESS:          0  dHIT:          0  dMISS:          0  itACCESS:          0  itHIT:          0  itMISS:          0  dtACCESS:          0  dtHIT:          0  dtMISS:          0
cpu0_DTLB PREFETCH     ACCESS:          0  HIT:          0  MISS:          0  iACCESS:          0  iHIT:          0  iMISS:          0  dACCESS:          0  dHIT:          0  dMISS:          0  itACCESS:          0  itHIT:          0  itMISS:          0  dtACCESS:          0  dtHIT:          0  dtMISS:          0
cpu0_DTLB WRITE        ACCESS:          0  HIT:          0  MISS:          0  iACCESS:          0  iHIT:          0  iMISS:          0  dACCESS:          0  dHIT:          0  dMISS:          0  itACCESS:          0  itHIT:          0  itMISS:          0  dtACCESS:          0  dtHIT:          0  dtMISS:          0
cpu0_DTLB TRANSLATION  ACCESS:          0  HIT:          0  MISS:          0  iACCESS:          0  iHIT:          0  iMISS:          0  dACCESS:          0  dHIT:          0  dMISS:          0  itACCESS:          0  itHIT:          0  itMISS:          0  dtACCESS:          0  dtHIT:          0  dtMISS:          0
cpu0_DTLB PREFETCH  REQUESTED:          0  ISSUED:          0  CROSSED:          0  USEFUL:          0  USELESS:          0
cpu0_DTLB AVERAGE iMISS LATENCY: 0 cycles
cpu0_DTLB AVERAGE dMISS LATENCY: 12.2908 cycles
cpu0_DTLB AVERAGE itMISS LATENCY: 0 cycles
cpu0_DTLB AVERAGE dtMISS LATENCY: 0 cycles
cpu0_DTLB PAGE CROSSINGS (TLB HIT):         0 
cpu0_DTLB PAGE CROSSINGS (TLB MISS):         0 
cpu0_DTLB AVERAGE MISS LATENCY: 12.2908 cycles
cpu0_STLB TOTAL       ACCESS:    2336384  HIT:    2117299  MISS:     219085  iACCESS:     286668  iHIT:     209204  iMISS:      77464  dACCESS:    2049716  dHIT:    1908095  dMISS:     141621  itACCESS:          0  itHIT:          0  itMISS:          0  dtACCESS:          0  dtHIT:          0  dtMISS:          0
cpu0_STLB LOAD         ACCESS:    2336384  HIT:    2117299  MISS:     219085  iACCESS:     286668  iHIT:     209204  iMISS:      77464  dACCESS:    2049716  dHIT:    1908095  dMISS:     141621  itACCESS:          0  itHIT:          0  itMISS:          0  dtACCESS:          0  dtHIT:          0  dtMISS:          0
cpu0_STLB RFO          ACCESS:          0  HIT:          0  MISS:          0  iACCESS:          0  iHIT:          0  iMISS:          0  dACCESS:          0  dHIT:          0  dMISS:          0  itACCESS:          0  itHIT:          0  itMISS:          0  dtACCESS:          0  dtHIT:          0  dtMISS:          0
cpu0_STLB PREFETCH     ACCESS:          0  HIT:          0  MISS:          0  iACCESS:          0  iHIT:          0  iMISS:          0  dACCESS:          0  dHIT:          0  dMISS:          0  itACCESS:          0  itHIT:          0  itMISS:          0  dtACCESS:          0  dtHIT:          0  dtMISS:          0
cpu0_STLB WRITE        ACCESS:          0  HIT:          0  MISS:          0  iACCESS:          0  iHIT:          0  iMISS:          0  dACCESS:          0  dHIT:          0  dMISS:          0  itACCESS:          0  itHIT:          0  itMISS:          0  dtACCESS:          0  dtHIT:          0  dtMISS:          0
cpu0_STLB TRANSLATION  ACCESS:          0  HIT:          0  MISS:          0  iACCESS:          0  iHIT:          0  iMISS:          0  dACCESS:          0  dHIT:          0  dMISS:          0  itACCESS:          0  itHIT:          0  itMISS:          0  dtACCESS:          0  dtHIT:          0  dtMISS:          0
cpu0_STLB PREFETCH  REQUESTED:          0  ISSUED:          0  CROSSED:          0  USEFUL:          0  USELESS:          0
cpu0_STLB AVERAGE iMISS LATENCY: 56.6902 cycles
cpu0_STLB AVERAGE dMISS LATENCY: 149.739 cycles
cpu0_STLB AVERAGE itMISS LATENCY: 0 cycles
cpu0_STLB AVERAGE dtMISS LATENCY: 0 cycles
cpu0_STLB PAGE CROSSINGS (TLB HIT):         0 
cpu0_STLB PAGE CROSSINGS (TLB MISS):         0 
cpu0_STLB AVERAGE MISS LATENCY: 206.429 cycles
cpu0_L1D TOTAL       ACCESS:   49018890  HIT:   41135491  MISS:    7883399  iACCESS:          0  iHIT:          0  iMISS:          0  dACCESS:   48694619  dHIT:   41113126  dMISS:    7581493  itACCESS:      90544  itHIT:      11195  itMISS:      79349  dtACCESS:     233727  dtHIT:      11170  dtMISS:     222557
cpu0_L1D LOAD         ACCESS:   24625539  HIT:   20345903  MISS:    4279636  iACCESS:          0  iHIT:          0  iMISS:          0  dACCESS:   24625539  dHIT:   20345903  dMISS:    4279636  itACCESS:          0  itHIT:          0  itMISS:          0  dtACCESS:          0  dtHIT:          0  dtMISS:          0
cpu0_L1D RFO          ACCESS:          0  HIT:          0  MISS:          0  iACCESS:          0  iHIT:          0  iMISS:          0  dACCESS:          0  dHIT:          0  dMISS:          0  itACCESS:          0  itHIT:          0  itMISS:          0  dtACCESS:          0  dtHIT:          0  dtMISS:          0
cpu0_L1D PREFETCH     ACCESS:   14587021  HIT:   11975243  MISS:    2611778  iACCESS:          0  iHIT:          0  iMISS:          0  dACCESS:   14587021  dHIT:   11975243  dMISS:    2611778  itACCESS:          0  itHIT:          0  itMISS:          0  dtACCESS:          0  dtHIT:          0  dtMISS:          0
cpu0_L1D WRITE        ACCESS:    9482059  HIT:    8791980  MISS:     690079  iACCESS:          0  iHIT:          0  iMISS:          0  dACCESS:    9482059  dHIT:    8791980  dMISS:     690079  itACCESS:          0  itHIT:          0  itMISS:          0  dtACCESS:          0  dtHIT:          0  dtMISS:          0
cpu0_L1D TRANSLATION  ACCESS:     324271  HIT:      22365  MISS:     301906  iACCESS:          0  iHIT:          0  iMISS:          0  dACCESS:          0  dHIT:          0  dMISS:          0  itACCESS:      90544  itHIT:      11195  itMISS:      79349  dtACCESS:     233727  dtHIT:      11170  dtMISS:     222557
cpu0_L1D PREFETCH  REQUESTED:   24625539  ISSUED:   19021342  CROSSED:          0  USEFUL:     278053  USELESS:     877095
cpu0_L1D AVERAGE iMISS LATENCY: 0 cycles
cpu0_L1D AVERAGE dMISS LATENCY: 29.705 cycles
cpu0_L1D AVERAGE itMISS LATENCY: 1.48741 cycles
cpu0_L1D AVERAGE dtMISS LATENCY: 3.91961 cycles
cpu0_L1D PAGE CROSSINGS (TLB HIT):         0 
cpu0_L1D PAGE CROSSINGS (TLB MISS):         0 
cpu0_L1D AVERAGE MISS LATENCY: 35.112 cycles
cpu0_L2C TOTAL       ACCESS:    7850962  HIT:    4856459  MISS:    2994503  iACCESS:    2423937  iHIT:    1414004  iMISS:    1009933  dACCESS:    5180338  dHIT:    3409013  dMISS:    1771325  itACCESS:      72497  itHIT:      11533  itMISS:      60964  dtACCESS:     174190  dtHIT:      21909  dtMISS:     152281
cpu0_L2C LOAD         ACCESS:    3248672  HIT:    2503889  MISS:     744783  iACCESS:     559214  iHIT:     351345  iMISS:     207869  dACCESS:    2689458  dHIT:    2152544  dMISS:     536914  itACCESS:          0  itHIT:          0  itMISS:          0  dtACCESS:          0  dtHIT:          0  dtMISS:          0
cpu0_L2C RFO          ACCESS:     182524  HIT:      78039  MISS:     104485  iACCESS:          0  iHIT:          0  iMISS:          0  dACCESS:     182524  dHIT:      78039  dMISS:     104485  itACCESS:          0  itHIT:          0  itMISS:          0  dtACCESS:          0  dtHIT:          0  dtMISS:          0
cpu0_L2C PREFETCH     ACCESS:    3916190  HIT:    1985077  MISS:    1931113  iACCESS:    1864723  iHIT:    1062659  iMISS:     802064  dACCESS:    2051467  dHIT:     922418  dMISS:    1129049  itACCESS:          0  itHIT:          0  itMISS:          0  dtACCESS:          0  dtHIT:          0  dtMISS:          0
cpu0_L2C WRITE        ACCESS:     256889  HIT:     256012  MISS:        877  iACCESS:          0  iHIT:          0  iMISS:          0  dACCESS:     256889  dHIT:     256012  dMISS:        877  itACCESS:          0  itHIT:          0  itMISS:          0  dtACCESS:          0  dtHIT:          0  dtMISS:          0
cpu0_L2C TRANSLATION  ACCESS:     246687  HIT:      33442  MISS:     213245  iACCESS:          0  iHIT:          0  iMISS:          0  dACCESS:          0  dHIT:          0  dMISS:          0  itACCESS:      72497  itHIT:      11533  itMISS:      60964  dtACCESS:     174190  dtHIT:      21909  dtMISS:     152281
cpu0_L2C PREFETCH  REQUESTED:    1058379  ISSUED:    1058362  CROSSED:          0  USEFUL:     241531  USELESS:     227944
cpu0_L2C AVERAGE iMISS LATENCY: 40.0338 cycles
cpu0_L2C AVERAGE dMISS LATENCY: 84.7018 cycles
cpu0_L2C AVERAGE itMISS LATENCY: 3.67688 cycles
cpu0_L2C AVERAGE dtMISS LATENCY: 9.74109 cycles
cpu0_L2C PAGE CROSSINGS (TLB HIT):         0 
cpu0_L2C PAGE CROSSINGS (TLB MISS):         0 
cpu0_L2C AVERAGE MISS LATENCY: 138.154 cycles
LLC TOTAL       ACCESS:    2991931  HIT:     898277  MISS:    2093654  iACCESS:     949315  iHIT:     289252  iMISS:     660063  dACCESS:    1829371  dHIT:     582494  dMISS:    1246877  itACCESS:      60964  itHIT:       5964  itMISS:      55000  dtACCESS:     152281  dtHIT:      20567  dtMISS:     131714
LLC LOAD         ACCESS:     739122  HIT:     227256  MISS:     511866  iACCESS:     207134  iHIT:      68829  iMISS:     138305  dACCESS:     531988  dHIT:     158427  dMISS:     373561  itACCESS:          0  itHIT:          0  itMISS:          0  dtACCESS:          0  dtHIT:          0  dtMISS:          0
LLC RFO          ACCESS:     104484  HIT:      25485  MISS:      78999  iACCESS:          0  iHIT:          0  iMISS:          0  dACCESS:     104484  dHIT:      25485  dMISS:      78999  itACCESS:          0  itHIT:          0  itMISS:          0  dtACCESS:          0  dtHIT:          0  dtMISS:          0
LLC PREFETCH     ACCESS:    1787495  HIT:     480003  MISS:    1307492  iACCESS:     742181  iHIT:     220423  iMISS:     521758  dACCESS:    1045314  dHIT:     259580  dMISS:     785734  itACCESS:          0  itHIT:          0  itMISS:          0  dtACCESS:          0  dtHIT:          0  dtMISS:          0
LLC WRITE        ACCESS:     147585  HIT:     139002  MISS:       8583  iACCESS:          0  iHIT:          0  iMISS:          0  dACCESS:     147585  dHIT:     139002  dMISS:       8583  itACCESS:          0  itHIT:          0  itMISS:          0  dtACCESS:          0  dtHIT:          0  dtMISS:          0
LLC TRANSLATION  ACCESS:     213245  HIT:      26531  MISS:     186714  iACCESS:          0  iHIT:          0  iMISS:          0  dACCESS:          0  dHIT:          0  dMISS:          0  itACCESS:      60964  itHIT:       5964  itMISS:      55000  dtACCESS:     152281  dtHIT:      20567  dtMISS:     131714
LLC PREFETCH  REQUESTED:          0  ISSUED:          0  CROSSED:          0  USEFUL:          0  USELESS:          0
LLC AVERAGE iMISS LATENCY: 48.3376 cycles
LLC AVERAGE dMISS LATENCY: 106.365 cycles
LLC AVERAGE itMISS LATENCY: 4.68192 cycles
LLC AVERAGE dtMISS LATENCY: 12.4969 cycles
LLC PAGE CROSSINGS (TLB HIT):         0 
LLC PAGE CROSSINGS (TLB MISS):         0 
LLC AVERAGE MISS LATENCY: 171.881 cycles

PageTableWalker TOTAL       ACCESS:     140468  
PageTableWalker AVERAGE LATENCY: 5.39848 cycles
PageTableWalker TOTAL LATENCY: 758313 cycles

DRAM Statistics
Channel 0
 RQ ROW_BUFFER_HIT:     516591
  ROW_BUFFER_MISS:    1551646
 AVG DBUS CONGESTED CYCLE:    3.66132
 WQ ROW_BUFFER_HIT:      44298
  ROW_BUFFER_MISS:      42656  FULL:          0

