last_page:0x200000000000000
VMEM_RES_CAP:0x100000
PAGE_SIZE:4096
LOG2_PAGE_SIZE:12
LOG2_PAGE_TABLE_SIZE:9
page_table_levels:5
WARNING: physical memory size is smaller than virtual memory size
FDiP enabled with aggresivity 16

*** ChampSim Multicore Out-of-Order Simulator ***

Warmup Instructions: 50000000
Simulation Instructions: 100000000
Number of CPUs: 1
Small page size: 4096
Large page size: 2097152

CPU 0 Bimodal branch predictor
Basic BTB sets: 1024 ways: 8 indirect buffer size: 4096 RAS size: 64
Instruction page size distrubution: 0
Loading instruction page size distribution from /home/bsc/bsc018186/scratch/itp_asplos25_AE/dump/srv298_ap.pdst
Data page size distrubution: 0
Loading data page size distribution from /home/bsc/bsc018186/scratch/itp_asplos25_AE/dump/srv298_ap.pdst
cpu0_L2C IP-based stride prefetcher
cpu0_L1D next line prefetcher
cpu0_STLB using iTP with max lru@8
cpu0_STLB using iTP with instr@0 and data@2
Init sat counter with 3 bits (max:50).
cpu0_L1I next line prefetcher
Off-chip DRAM Size: 4 GiB Channels: 1 Width: 64-bit Data Rate: 3200 MT/s
Heartbeat CPU 0 instructions: 10000000 cycles: 2500211 heartbeat IPC: 3.99967 cumulative IPC: 3.99967 (Simulation time: 0 hr 0 min 37 sec) 
Heartbeat CPU 0 instructions: 20000002 cycles: 5000225 heartbeat IPC: 3.99998 cumulative IPC: 3.99983 (Simulation time: 0 hr 1 min 15 sec) 
Heartbeat CPU 0 instructions: 30000002 cycles: 7500297 heartbeat IPC: 3.99989 cumulative IPC: 3.99985 (Simulation time: 0 hr 1 min 55 sec) 
Heartbeat CPU 0 instructions: 40000002 cycles: 10000341 heartbeat IPC: 3.99993 cumulative IPC: 3.99987 (Simulation time: 0 hr 2 min 34 sec) 
Heartbeat CPU 0 instructions: 50000000 cycles: 12500401 heartbeat IPC: 3.99991 cumulative IPC: 3.99988 (Simulation time: 0 hr 3 min 15 sec) 
Warmup finished CPU 0 instructions: 50000000 cycles: 12500402 cumulative IPC: 3.99988 (Simulation time: 0 hr 3 min 15 sec) 

Warmup complete CPU 0 instructions: 50000000 cycles: 12500402 (Simulation time: 0 hr 3 min 15 sec) 

Heartbeat CPU 0 instructions: 60000001 cycles: 27343005 heartbeat IPC: 0.673737 cumulative IPC: 0.673737 (Simulation time: 0 hr 4 min 18 sec) 
Heartbeat CPU 0 instructions: 70000000 cycles: 42825606 heartbeat IPC: 0.645887 cumulative IPC: 0.659518 (Simulation time: 0 hr 5 min 22 sec) 
Heartbeat CPU 0 instructions: 80000000 cycles: 58048214 heartbeat IPC: 0.656918 cumulative IPC: 0.658649 (Simulation time: 0 hr 6 min 26 sec) 
Heartbeat CPU 0 instructions: 90000001 cycles: 73048003 heartbeat IPC: 0.666677 cumulative IPC: 0.660638 (Simulation time: 0 hr 7 min 30 sec) 
Heartbeat CPU 0 instructions: 100000001 cycles: 88375191 heartbeat IPC: 0.652436 cumulative IPC: 0.658981 (Simulation time: 0 hr 8 min 34 sec) 
*** Reached end of trace: /gpfs/projects/bsc18/MN4/bsc18/romol/ChampSim/traces/qualcomm_srv/srv298_ap.champsimtrace.xz
Heartbeat CPU 0 instructions: 110000004 cycles: 102355616 heartbeat IPC: 0.715287 cumulative IPC: 0.667741 (Simulation time: 0 hr 9 min 38 sec) 
Heartbeat CPU 0 instructions: 120000001 cycles: 116671506 heartbeat IPC: 0.698525 cumulative IPC: 0.671972 (Simulation time: 0 hr 10 min 41 sec) 
Heartbeat CPU 0 instructions: 130000001 cycles: 131187851 heartbeat IPC: 0.688879 cumulative IPC: 0.67404 (Simulation time: 0 hr 11 min 44 sec) 
Heartbeat CPU 0 instructions: 140000002 cycles: 144623249 heartbeat IPC: 0.744303 cumulative IPC: 0.681185 (Simulation time: 0 hr 12 min 46 sec) 
Heartbeat CPU 0 instructions: 150000004 cycles: 159506225 heartbeat IPC: 0.671909 cumulative IPC: 0.680246 (Simulation time: 0 hr 13 min 50 sec) 
Simulation finished CPU 0 instructions: 100000004 cycles: 147005824 cumulative IPC: 0.680246 (Simulation time: 0 hr 13 min 50 sec) 

Simulation complete CPU 0 instructions: 100000004 cycles: 147005824 (Simulation time: 0 hr 13 min 50 sec) 


ChampSim completed all CPUs

Saving instructions large page distribution to /home/bsc/bsc018186/scratch/itp_asplos25_AE/dump/srv298_ap.pdst...
Saving data large page distribution to /home/bsc/bsc018186/scratch/itp_asplos25_AE/dump/srv298_ap.pdst...
=== Simulation ===
CPU 0 runs /gpfs/projects/bsc18/MN4/bsc18/romol/ChampSim/traces/qualcomm_srv/srv298_ap.champsimtrace.xz

Region of Interest Statistics

CPU 0 cumulative IPC: 0.680246 instructions: 100000004 cycles: 147005824
CPU 0 Branch Prediction Accuracy: 83.4862% MPKI: 29.6736 Average ROB Occupancy at Mispredict: 13.2625
Branch type MPKI
BRANCH_DIRECT_JUMP: 0.94629
BRANCH_INDIRECT: 15.4325
BRANCH_CONDITIONAL: 9.67881
BRANCH_DIRECT_CALL: 1.80803
BRANCH_INDIRECT_CALL: 0.49394
BRANCH_RETURN: 1.31406

Instructions large pages: 0
Instructions small pages: 930
Large page distribution for instructions: 0%

Data large pages: 0
Data small pages: 9137
Large page distribution for data: 0%

cpu0_L1I TOTAL       ACCESS:   34595162  HIT:   26654551  MISS:    7940611  iACCESS:   34595162  iHIT:   26654551  iMISS:    7940611  dACCESS:          0  dHIT:          0  dMISS:          0  itACCESS:          0  itHIT:          0  itMISS:          0  dtACCESS:          0  dtHIT:          0  dtMISS:          0
cpu0_L1I LOAD         ACCESS:   10093478  HIT:    7852482  MISS:    2240996  iACCESS:   10093478  iHIT:    7852482  iMISS:    2240996  dACCESS:          0  dHIT:          0  dMISS:          0  itACCESS:          0  itHIT:          0  itMISS:          0  dtACCESS:          0  dtHIT:          0  dtMISS:          0
cpu0_L1I RFO          ACCESS:          0  HIT:          0  MISS:          0  iACCESS:          0  iHIT:          0  iMISS:          0  dACCESS:          0  dHIT:          0  dMISS:          0  itACCESS:          0  itHIT:          0  itMISS:          0  dtACCESS:          0  dtHIT:          0  dtMISS:          0
cpu0_L1I PREFETCH     ACCESS:   24501684  HIT:   18802069  MISS:    5699615  iACCESS:   24501684  iHIT:   18802069  iMISS:    5699615  dACCESS:          0  dHIT:          0  dMISS:          0  itACCESS:          0  itHIT:          0  itMISS:          0  dtACCESS:          0  dtHIT:          0  dtMISS:          0
cpu0_L1I WRITE        ACCESS:          0  HIT:          0  MISS:          0  iACCESS:          0  iHIT:          0  iMISS:          0  dACCESS:          0  dHIT:          0  dMISS:          0  itACCESS:          0  itHIT:          0  itMISS:          0  dtACCESS:          0  dtHIT:          0  dtMISS:          0
cpu0_L1I TRANSLATION  ACCESS:          0  HIT:          0  MISS:          0  iACCESS:          0  iHIT:          0  iMISS:          0  dACCESS:          0  dHIT:          0  dMISS:          0  itACCESS:          0  itHIT:          0  itMISS:          0  dtACCESS:          0  dtHIT:          0  dtMISS:          0
cpu0_L1I PREFETCH  REQUESTED:   26999562  ISSUED:   26999562  CROSSED:          0  USEFUL:    1929424  USELESS:     639039
cpu0_L1I AVERAGE iMISS LATENCY: 12.6414 cycles
cpu0_L1I AVERAGE dMISS LATENCY: 0 cycles
cpu0_L1I AVERAGE itMISS LATENCY: 0 cycles
cpu0_L1I AVERAGE dtMISS LATENCY: 0 cycles
cpu0_L1I PAGE CROSSINGS (TLB HIT):         0 
cpu0_L1I PAGE CROSSINGS (TLB MISS):         0 
cpu0_L1I AVERAGE MISS LATENCY: 12.6414 cycles
cpu0_ITLB TOTAL       ACCESS:   28912839  HIT:   26898629  MISS:    2014210  iACCESS:   28912839  iHIT:   26898629  iMISS:    2014210  dACCESS:          0  dHIT:          0  dMISS:          0  itACCESS:          0  itHIT:          0  itMISS:          0  dtACCESS:          0  dtHIT:          0  dtMISS:          0
cpu0_ITLB LOAD         ACCESS:   28912839  HIT:   26898629  MISS:    2014210  iACCESS:   28912839  iHIT:   26898629  iMISS:    2014210  dACCESS:          0  dHIT:          0  dMISS:          0  itACCESS:          0  itHIT:          0  itMISS:          0  dtACCESS:          0  dtHIT:          0  dtMISS:          0
cpu0_ITLB RFO          ACCESS:          0  HIT:          0  MISS:          0  iACCESS:          0  iHIT:          0  iMISS:          0  dACCESS:          0  dHIT:          0  dMISS:          0  itACCESS:          0  itHIT:          0  itMISS:          0  dtACCESS:          0  dtHIT:          0  dtMISS:          0
cpu0_ITLB PREFETCH     ACCESS:          0  HIT:          0  MISS:          0  iACCESS:          0  iHIT:          0  iMISS:          0  dACCESS:          0  dHIT:          0  dMISS:          0  itACCESS:          0  itHIT:          0  itMISS:          0  dtACCESS:          0  dtHIT:          0  dtMISS:          0
cpu0_ITLB WRITE        ACCESS:          0  HIT:          0  MISS:          0  iACCESS:          0  iHIT:          0  iMISS:          0  dACCESS:          0  dHIT:          0  dMISS:          0  itACCESS:          0  itHIT:          0  itMISS:          0  dtACCESS:          0  dtHIT:          0  dtMISS:          0
cpu0_ITLB TRANSLATION  ACCESS:          0  HIT:          0  MISS:          0  iACCESS:          0  iHIT:          0  iMISS:          0  dACCESS:          0  dHIT:          0  dMISS:          0  itACCESS:          0  itHIT:          0  itMISS:          0  dtACCESS:          0  dtHIT:          0  dtMISS:          0
cpu0_ITLB PREFETCH  REQUESTED:          0  ISSUED:          0  CROSSED:          0  USEFUL:     325842  USELESS:      63293
cpu0_ITLB AVERAGE iMISS LATENCY: 1.94463 cycles
cpu0_ITLB AVERAGE dMISS LATENCY: 0 cycles
cpu0_ITLB AVERAGE itMISS LATENCY: 0 cycles
cpu0_ITLB AVERAGE dtMISS LATENCY: 0 cycles
cpu0_ITLB PAGE CROSSINGS (TLB HIT):         0 
cpu0_ITLB PAGE CROSSINGS (TLB MISS):         0 
cpu0_ITLB AVERAGE MISS LATENCY: 1.94463 cycles
cpu0_DTLB TOTAL       ACCESS:   27719680  HIT:   25584405  MISS:    2135275  iACCESS:          0  iHIT:          0  iMISS:          0  dACCESS:   27719680  dHIT:   25584405  dMISS:    2135275  itACCESS:          0  itHIT:          0  itMISS:          0  dtACCESS:          0  dtHIT:          0  dtMISS:          0
cpu0_DTLB LOAD         ACCESS:   27719680  HIT:   25584405  MISS:    2135275  iACCESS:          0  iHIT:          0  iMISS:          0  dACCESS:   27719680  dHIT:   25584405  dMISS:    2135275  itACCESS:          0  itHIT:          0  itMISS:          0  dtACCESS:          0  dtHIT:          0  dtMISS:          0
cpu0_DTLB RFO          ACCESS:          0  HIT:          0  MISS:          0  iACCESS:          0  iHIT:          0  iMISS:          0  dACCESS:          0  dHIT:          0  dMISS:          0  itACCESS:          0  itHIT:          0  itMISS:          0  dtACCESS:          0  dtHIT:          0  dtMISS:          0
cpu0_DTLB PREFETCH     ACCESS:          0  HIT:          0  MISS:          0  iACCESS:          0  iHIT:          0  iMISS:          0  dACCESS:          0  dHIT:          0  dMISS:          0  itACCESS:          0  itHIT:          0  itMISS:          0  dtACCESS:          0  dtHIT:          0  dtMISS:          0
cpu0_DTLB WRITE        ACCESS:          0  HIT:          0  MISS:          0  iACCESS:          0  iHIT:          0  iMISS:          0  dACCESS:          0  dHIT:          0  dMISS:          0  itACCESS:          0  itHIT:          0  itMISS:          0  dtACCESS:          0  dtHIT:          0  dtMISS:          0
cpu0_DTLB TRANSLATION  ACCESS:          0  HIT:          0  MISS:          0  iACCESS:          0  iHIT:          0  iMISS:          0  dACCESS:          0  dHIT:          0  dMISS:          0  itACCESS:          0  itHIT:          0  itMISS:          0  dtACCESS:          0  dtHIT:          0  dtMISS:          0
cpu0_DTLB PREFETCH  REQUESTED:          0  ISSUED:          0  CROSSED:          0  USEFUL:          0  USELESS:          0
cpu0_DTLB AVERAGE iMISS LATENCY: 0 cycles
cpu0_DTLB AVERAGE dMISS LATENCY: 15.146 cycles
cpu0_DTLB AVERAGE itMISS LATENCY: 0 cycles
cpu0_DTLB AVERAGE dtMISS LATENCY: 0 cycles
cpu0_DTLB PAGE CROSSINGS (TLB HIT):         0 
cpu0_DTLB PAGE CROSSINGS (TLB MISS):         0 
cpu0_DTLB AVERAGE MISS LATENCY: 15.146 cycles
cpu0_STLB TOTAL       ACCESS:    1632593  HIT:    1501535  MISS:     131058  iACCESS:     389131  iHIT:     382805  iMISS:       6326  dACCESS:    1243462  dHIT:    1118730  dMISS:     124732  itACCESS:          0  itHIT:          0  itMISS:          0  dtACCESS:          0  dtHIT:          0  dtMISS:          0
cpu0_STLB LOAD         ACCESS:    1632593  HIT:    1501535  MISS:     131058  iACCESS:     389131  iHIT:     382805  iMISS:       6326  dACCESS:    1243462  dHIT:    1118730  dMISS:     124732  itACCESS:          0  itHIT:          0  itMISS:          0  dtACCESS:          0  dtHIT:          0  dtMISS:          0
cpu0_STLB RFO          ACCESS:          0  HIT:          0  MISS:          0  iACCESS:          0  iHIT:          0  iMISS:          0  dACCESS:          0  dHIT:          0  dMISS:          0  itACCESS:          0  itHIT:          0  itMISS:          0  dtACCESS:          0  dtHIT:          0  dtMISS:          0
cpu0_STLB PREFETCH     ACCESS:          0  HIT:          0  MISS:          0  iACCESS:          0  iHIT:          0  iMISS:          0  dACCESS:          0  dHIT:          0  dMISS:          0  itACCESS:          0  itHIT:          0  itMISS:          0  dtACCESS:          0  dtHIT:          0  dtMISS:          0
cpu0_STLB WRITE        ACCESS:          0  HIT:          0  MISS:          0  iACCESS:          0  iHIT:          0  iMISS:          0  dACCESS:          0  dHIT:          0  dMISS:          0  itACCESS:          0  itHIT:          0  itMISS:          0  dtACCESS:          0  dtHIT:          0  dtMISS:          0
cpu0_STLB TRANSLATION  ACCESS:          0  HIT:          0  MISS:          0  iACCESS:          0  iHIT:          0  iMISS:          0  dACCESS:          0  dHIT:          0  dMISS:          0  itACCESS:          0  itHIT:          0  itMISS:          0  dtACCESS:          0  dtHIT:          0  dtMISS:          0
cpu0_STLB PREFETCH  REQUESTED:          0  ISSUED:          0  CROSSED:          0  USEFUL:          0  USELESS:          0
cpu0_STLB AVERAGE iMISS LATENCY: 6.85065 cycles
cpu0_STLB AVERAGE dMISS LATENCY: 170.98 cycles
cpu0_STLB AVERAGE itMISS LATENCY: 0 cycles
cpu0_STLB AVERAGE dtMISS LATENCY: 0 cycles
cpu0_STLB PAGE CROSSINGS (TLB HIT):         0 
cpu0_STLB PAGE CROSSINGS (TLB MISS):         0 
cpu0_STLB AVERAGE MISS LATENCY: 177.831 cycles
cpu0_L1D TOTAL       ACCESS:   41558650  HIT:   37963788  MISS:    3594862  iACCESS:          0  iHIT:          0  iMISS:          0  dACCESS:   41356425  dHIT:   37951499  dMISS:    3404926  itACCESS:       7314  itHIT:        993  itMISS:       6321  dtACCESS:     194911  dtHIT:      11296  dtMISS:     183615
cpu0_L1D LOAD         ACCESS:   18955728  HIT:   17395687  MISS:    1560041  iACCESS:          0  iHIT:          0  iMISS:          0  dACCESS:   18955728  dHIT:   17395687  dMISS:    1560041  itACCESS:          0  itHIT:          0  itMISS:          0  dtACCESS:          0  dtHIT:          0  dtMISS:          0
cpu0_L1D RFO          ACCESS:          0  HIT:          0  MISS:          0  iACCESS:          0  iHIT:          0  iMISS:          0  dACCESS:          0  dHIT:          0  dMISS:          0  itACCESS:          0  itHIT:          0  itMISS:          0  dtACCESS:          0  dtHIT:          0  dtMISS:          0
cpu0_L1D PREFETCH     ACCESS:   12234948  HIT:   10834616  MISS:    1400332  iACCESS:          0  iHIT:          0  iMISS:          0  dACCESS:   12234948  dHIT:   10834616  dMISS:    1400332  itACCESS:          0  itHIT:          0  itMISS:          0  dtACCESS:          0  dtHIT:          0  dtMISS:          0
cpu0_L1D WRITE        ACCESS:   10165749  HIT:    9721196  MISS:     444553  iACCESS:          0  iHIT:          0  iMISS:          0  dACCESS:   10165749  dHIT:    9721196  dMISS:     444553  itACCESS:          0  itHIT:          0  itMISS:          0  dtACCESS:          0  dtHIT:          0  dtMISS:          0
cpu0_L1D TRANSLATION  ACCESS:     202225  HIT:      12289  MISS:     189936  iACCESS:          0  iHIT:          0  iMISS:          0  dACCESS:          0  dHIT:          0  dMISS:          0  itACCESS:       7314  itHIT:        993  itMISS:       6321  dtACCESS:     194911  dtHIT:      11296  dtMISS:     183615
cpu0_L1D PREFETCH  REQUESTED:   18955728  ISSUED:   17042902  CROSSED:          0  USEFUL:     306157  USELESS:     702450
cpu0_L1D AVERAGE iMISS LATENCY: 0 cycles
cpu0_L1D AVERAGE dMISS LATENCY: 31.9501 cycles
cpu0_L1D AVERAGE itMISS LATENCY: 0.224808 cycles
cpu0_L1D AVERAGE dtMISS LATENCY: 5.51545 cycles
cpu0_L1D PAGE CROSSINGS (TLB HIT):         0 
cpu0_L1D PAGE CROSSINGS (TLB MISS):         0 
cpu0_L1D AVERAGE MISS LATENCY: 37.6904 cycles
cpu0_L2C TOTAL       ACCESS:    6997378  HIT:    4119764  MISS:    2877614  iACCESS:    3333453  iHIT:    2247586  iMISS:    1085867  dACCESS:    3491025  dHIT:    1844728  dMISS:    1646297  itACCESS:       6321  itHIT:       1097  itMISS:       5224  dtACCESS:     166579  dtHIT:      26353  dtMISS:     140226
cpu0_L2C LOAD         ACCESS:    1744527  HIT:    1065694  MISS:     678833  iACCESS:     805162  iHIT:     572273  iMISS:     232889  dACCESS:     939365  dHIT:     493421  dMISS:     445944  itACCESS:          0  itHIT:          0  itMISS:          0  dtACCESS:          0  dtHIT:          0  dtMISS:          0
cpu0_L2C RFO          ACCESS:     155670  HIT:      70554  MISS:      85116  iACCESS:          0  iHIT:          0  iMISS:          0  dACCESS:     155670  dHIT:      70554  dMISS:      85116  itACCESS:          0  itHIT:          0  itMISS:          0  dtACCESS:          0  dtHIT:          0  dtMISS:          0
cpu0_L2C PREFETCH     ACCESS:    4636525  HIT:    2670632  MISS:    1965893  iACCESS:    2528291  iHIT:    1675313  iMISS:     852978  dACCESS:    2108234  dHIT:     995319  dMISS:    1112915  itACCESS:          0  itHIT:          0  itMISS:          0  dtACCESS:          0  dtHIT:          0  dtMISS:          0
cpu0_L2C WRITE        ACCESS:     287756  HIT:     285434  MISS:       2322  iACCESS:          0  iHIT:          0  iMISS:          0  dACCESS:     287756  dHIT:     285434  dMISS:       2322  itACCESS:          0  itHIT:          0  itMISS:          0  dtACCESS:          0  dtHIT:          0  dtMISS:          0
cpu0_L2C TRANSLATION  ACCESS:     172900  HIT:      27450  MISS:     145450  iACCESS:          0  iHIT:          0  iMISS:          0  dACCESS:          0  dHIT:          0  dMISS:          0  itACCESS:       6321  itHIT:       1097  itMISS:       5224  dtACCESS:     166579  dtHIT:      26353  dtMISS:     140226
cpu0_L2C PREFETCH  REQUESTED:    1385569  ISSUED:    1385569  CROSSED:          0  USEFUL:     311881  USELESS:     228998
cpu0_L2C AVERAGE iMISS LATENCY: 24.5096 cycles
cpu0_L2C AVERAGE dMISS LATENCY: 46.8762 cycles
cpu0_L2C AVERAGE itMISS LATENCY: 0.259214 cycles
cpu0_L2C AVERAGE dtMISS LATENCY: 6.31594 cycles
cpu0_L2C PAGE CROSSINGS (TLB HIT):         0 
cpu0_L2C PAGE CROSSINGS (TLB MISS):         0 
cpu0_L2C AVERAGE MISS LATENCY: 77.9609 cycles
LLC TOTAL       ACCESS:    2907535  HIT:    1843874  MISS:    1063661  iACCESS:    1031876  iHIT:     693624  iMISS:     338252  dACCESS:    1730209  dHIT:    1094121  dMISS:     636088  itACCESS:       5224  itHIT:       1602  itMISS:       3622  dtACCESS:     140226  dtHIT:      54527  dtMISS:      85699
LLC LOAD         ACCESS:     676833  HIT:     443805  MISS:     233028  iACCESS:     231605  iHIT:     160124  iMISS:      71481  dACCESS:     445228  dHIT:     283681  dMISS:     161547  itACCESS:          0  itHIT:          0  itMISS:          0  dtACCESS:          0  dtHIT:          0  dtMISS:          0
LLC RFO          ACCESS:      85114  HIT:      42083  MISS:      43031  iACCESS:          0  iHIT:          0  iMISS:          0  dACCESS:      85114  dHIT:      42083  dMISS:      43031  itACCESS:          0  itHIT:          0  itMISS:          0  dtACCESS:          0  dtHIT:          0  dtMISS:          0
LLC PREFETCH     ACCESS:    1863138  HIT:    1170825  MISS:     692313  iACCESS:     800271  iHIT:     533500  iMISS:     266771  dACCESS:    1062867  dHIT:     637325  dMISS:     425542  itACCESS:          0  itHIT:          0  itMISS:          0  dtACCESS:          0  dtHIT:          0  dtMISS:          0
LLC WRITE        ACCESS:     137000  HIT:     131032  MISS:       5968  iACCESS:          0  iHIT:          0  iMISS:          0  dACCESS:     137000  dHIT:     131032  dMISS:       5968  itACCESS:          0  itHIT:          0  itMISS:          0  dtACCESS:          0  dtHIT:          0  dtMISS:          0
LLC TRANSLATION  ACCESS:     145450  HIT:      56129  MISS:      89321  iACCESS:          0  iHIT:          0  iMISS:          0  dACCESS:          0  dHIT:          0  dMISS:          0  itACCESS:       5224  itHIT:       1602  itMISS:       3622  dtACCESS:     140226  dtHIT:      54527  dtMISS:      85699
LLC PREFETCH  REQUESTED:          0  ISSUED:          0  CROSSED:          0  USEFUL:          0  USELESS:          0
LLC AVERAGE iMISS LATENCY: 47.4539 cycles
LLC AVERAGE dMISS LATENCY: 97.9545 cycles
LLC AVERAGE itMISS LATENCY: 0.604874 cycles
LLC AVERAGE dtMISS LATENCY: 14.5084 cycles
LLC PAGE CROSSINGS (TLB HIT):         0 
LLC PAGE CROSSINGS (TLB MISS):         0 
LLC AVERAGE MISS LATENCY: 160.522 cycles

PageTableWalker TOTAL       ACCESS:      63080  
PageTableWalker AVERAGE LATENCY: 5.72244 cycles
PageTableWalker TOTAL LATENCY: 360971 cycles

DRAM Statistics
Channel 0
 RQ ROW_BUFFER_HIT:     277085
  ROW_BUFFER_MISS:     780096
 AVG DBUS CONGESTED CYCLE:    3.62747
 WQ ROW_BUFFER_HIT:      22576
  ROW_BUFFER_MISS:      23751  FULL:          0

