last_page:0x200000000000000
VMEM_RES_CAP:0x100000
PAGE_SIZE:4096
LOG2_PAGE_SIZE:12
LOG2_PAGE_TABLE_SIZE:9
page_table_levels:5
WARNING: physical memory size is smaller than virtual memory size
FDiP enabled with aggresivity 16

*** ChampSim Multicore Out-of-Order Simulator ***

Warmup Instructions: 50000000
Simulation Instructions: 100000000
Number of CPUs: 1
Small page size: 4096
Large page size: 2097152

CPU 0 Bimodal branch predictor
Basic BTB sets: 1024 ways: 8 indirect buffer size: 4096 RAS size: 64
Instruction page size distrubution: 0
Loading instruction page size distribution from /home/bsc/bsc018186/scratch/itp_asplos25_AE/dump/srv287_ap.pdst
Data page size distrubution: 0
Loading data page size distribution from /home/bsc/bsc018186/scratch/itp_asplos25_AE/dump/srv287_ap.pdst
cpu0_L2C IP-based stride prefetcher
cpu0_L1D next line prefetcher
CHiRPing...
cpu0_L1I next line prefetcher
Off-chip DRAM Size: 4 GiB Channels: 1 Width: 64-bit Data Rate: 3200 MT/s
Heartbeat CPU 0 instructions: 10000002 cycles: 2500211 heartbeat IPC: 3.99967 cumulative IPC: 3.99967 (Simulation time: 0 hr 0 min 38 sec) 
Heartbeat CPU 0 instructions: 20000000 cycles: 5367670 heartbeat IPC: 3.48741 cumulative IPC: 3.72602 (Simulation time: 0 hr 1 min 20 sec) 
Heartbeat CPU 0 instructions: 30000002 cycles: 8109518 heartbeat IPC: 3.64718 cumulative IPC: 3.69936 (Simulation time: 0 hr 2 min 3 sec) 
Heartbeat CPU 0 instructions: 40000003 cycles: 10610106 heartbeat IPC: 3.99906 cumulative IPC: 3.77 (Simulation time: 0 hr 2 min 44 sec) 
Heartbeat CPU 0 instructions: 50000001 cycles: 13110291 heartbeat IPC: 3.99971 cumulative IPC: 3.8138 (Simulation time: 0 hr 3 min 25 sec) 
Warmup finished CPU 0 instructions: 50000001 cycles: 13110292 cumulative IPC: 3.8138 (Simulation time: 0 hr 3 min 25 sec) 

Warmup complete CPU 0 instructions: 50000001 cycles: 13110292 (Simulation time: 0 hr 3 min 25 sec) 

Heartbeat CPU 0 instructions: 60000001 cycles: 32290857 heartbeat IPC: 0.521362 cumulative IPC: 0.521362 (Simulation time: 0 hr 4 min 36 sec) 
Heartbeat CPU 0 instructions: 70000004 cycles: 52412283 heartbeat IPC: 0.496983 cumulative IPC: 0.508881 (Simulation time: 0 hr 5 min 48 sec) 
Heartbeat CPU 0 instructions: 80000000 cycles: 72226212 heartbeat IPC: 0.504696 cumulative IPC: 0.507478 (Simulation time: 0 hr 7 min 0 sec) 
Heartbeat CPU 0 instructions: 90000001 cycles: 92704769 heartbeat IPC: 0.488316 cumulative IPC: 0.502548 (Simulation time: 0 hr 8 min 15 sec) 
Heartbeat CPU 0 instructions: 100000003 cycles: 103691686 heartbeat IPC: 0.910174 cumulative IPC: 0.55199 (Simulation time: 0 hr 9 min 20 sec) 
*** Reached end of trace: /gpfs/projects/bsc18/MN4/bsc18/romol/ChampSim/traces/qualcomm_srv/srv287_ap.champsimtrace.xz
Heartbeat CPU 0 instructions: 110000000 cycles: 119149993 heartbeat IPC: 0.646902 cumulative IPC: 0.565826 (Simulation time: 0 hr 10 min 29 sec) 
Heartbeat CPU 0 instructions: 120000003 cycles: 134383462 heartbeat IPC: 0.65645 cumulative IPC: 0.57721 (Simulation time: 0 hr 11 min 38 sec) 
Heartbeat CPU 0 instructions: 130000003 cycles: 144166707 heartbeat IPC: 1.02216 cumulative IPC: 0.610425 (Simulation time: 0 hr 12 min 41 sec) 
Heartbeat CPU 0 instructions: 140000000 cycles: 163756264 heartbeat IPC: 0.510476 cumulative IPC: 0.597428 (Simulation time: 0 hr 13 min 55 sec) 
Heartbeat CPU 0 instructions: 150000002 cycles: 183460740 heartbeat IPC: 0.5075 cumulative IPC: 0.587026 (Simulation time: 0 hr 15 min 9 sec) 
Simulation finished CPU 0 instructions: 100000001 cycles: 170350449 cumulative IPC: 0.587026 (Simulation time: 0 hr 15 min 9 sec) 

Simulation complete CPU 0 instructions: 100000001 cycles: 170350449 (Simulation time: 0 hr 15 min 9 sec) 


ChampSim completed all CPUs

Saving instructions large page distribution to /home/bsc/bsc018186/scratch/itp_asplos25_AE/dump/srv287_ap.pdst...
Saving data large page distribution to /home/bsc/bsc018186/scratch/itp_asplos25_AE/dump/srv287_ap.pdst...
=== Simulation ===
CPU 0 runs /gpfs/projects/bsc18/MN4/bsc18/romol/ChampSim/traces/qualcomm_srv/srv287_ap.champsimtrace.xz

Region of Interest Statistics

CPU 0 cumulative IPC: 0.587026 instructions: 100000001 cycles: 170350449
CPU 0 Branch Prediction Accuracy: 84.7147% MPKI: 31.2456 Average ROB Occupancy at Mispredict: 13.0142
Branch type MPKI
BRANCH_DIRECT_JUMP: 1.11351
BRANCH_INDIRECT: 16.0629
BRANCH_CONDITIONAL: 9.81648
BRANCH_DIRECT_CALL: 2.07542
BRANCH_INDIRECT_CALL: 0.70669
BRANCH_RETURN: 1.47062

Instructions large pages: 0
Instructions small pages: 1294
Large page distribution for instructions: 0%

Data large pages: 0
Data small pages: 5342
Large page distribution for data: 0%

cpu0_L1I TOTAL       ACCESS:   34289890  HIT:   27544483  MISS:    6745407  iACCESS:   34289890  iHIT:   27544483  iMISS:    6745407  dACCESS:          0  dHIT:          0  dMISS:          0  itACCESS:          0  itHIT:          0  itMISS:          0  dtACCESS:          0  dtHIT:          0  dtMISS:          0
cpu0_L1I LOAD         ACCESS:    8383867  HIT:    6535870  MISS:    1847997  iACCESS:    8383867  iHIT:    6535870  iMISS:    1847997  dACCESS:          0  dHIT:          0  dMISS:          0  itACCESS:          0  itHIT:          0  itMISS:          0  dtACCESS:          0  dtHIT:          0  dtMISS:          0
cpu0_L1I RFO          ACCESS:          0  HIT:          0  MISS:          0  iACCESS:          0  iHIT:          0  iMISS:          0  dACCESS:          0  dHIT:          0  dMISS:          0  itACCESS:          0  itHIT:          0  itMISS:          0  dtACCESS:          0  dtHIT:          0  dtMISS:          0
cpu0_L1I PREFETCH     ACCESS:   25906023  HIT:   21008613  MISS:    4897410  iACCESS:   25906023  iHIT:   21008613  iMISS:    4897410  dACCESS:          0  dHIT:          0  dMISS:          0  itACCESS:          0  itHIT:          0  itMISS:          0  dtACCESS:          0  dtHIT:          0  dtMISS:          0
cpu0_L1I WRITE        ACCESS:          0  HIT:          0  MISS:          0  iACCESS:          0  iHIT:          0  iMISS:          0  dACCESS:          0  dHIT:          0  dMISS:          0  itACCESS:          0  itHIT:          0  itMISS:          0  dtACCESS:          0  dtHIT:          0  dtMISS:          0
cpu0_L1I TRANSLATION  ACCESS:          0  HIT:          0  MISS:          0  iACCESS:          0  iHIT:          0  iMISS:          0  dACCESS:          0  dHIT:          0  dMISS:          0  itACCESS:          0  itHIT:          0  itMISS:          0  dtACCESS:          0  dtHIT:          0  dtMISS:          0
cpu0_L1I PREFETCH  REQUESTED:   27617721  ISSUED:   27616152  CROSSED:          0  USEFUL:    1599820  USELESS:     542753
cpu0_L1I AVERAGE iMISS LATENCY: 19.9416 cycles
cpu0_L1I AVERAGE dMISS LATENCY: 0 cycles
cpu0_L1I AVERAGE itMISS LATENCY: 0 cycles
cpu0_L1I AVERAGE dtMISS LATENCY: 0 cycles
cpu0_L1I PAGE CROSSINGS (TLB HIT):         0 
cpu0_L1I PAGE CROSSINGS (TLB MISS):         0 
cpu0_L1I AVERAGE MISS LATENCY: 19.9416 cycles
cpu0_ITLB TOTAL       ACCESS:   28869487  HIT:   27296525  MISS:    1572962  iACCESS:   28869487  iHIT:   27296525  iMISS:    1572962  dACCESS:          0  dHIT:          0  dMISS:          0  itACCESS:          0  itHIT:          0  itMISS:          0  dtACCESS:          0  dtHIT:          0  dtMISS:          0
cpu0_ITLB LOAD         ACCESS:   28869487  HIT:   27296525  MISS:    1572962  iACCESS:   28869487  iHIT:   27296525  iMISS:    1572962  dACCESS:          0  dHIT:          0  dMISS:          0  itACCESS:          0  itHIT:          0  itMISS:          0  dtACCESS:          0  dtHIT:          0  dtMISS:          0
cpu0_ITLB RFO          ACCESS:          0  HIT:          0  MISS:          0  iACCESS:          0  iHIT:          0  iMISS:          0  dACCESS:          0  dHIT:          0  dMISS:          0  itACCESS:          0  itHIT:          0  itMISS:          0  dtACCESS:          0  dtHIT:          0  dtMISS:          0
cpu0_ITLB PREFETCH     ACCESS:          0  HIT:          0  MISS:          0  iACCESS:          0  iHIT:          0  iMISS:          0  dACCESS:          0  dHIT:          0  dMISS:          0  itACCESS:          0  itHIT:          0  itMISS:          0  dtACCESS:          0  dtHIT:          0  dtMISS:          0
cpu0_ITLB WRITE        ACCESS:          0  HIT:          0  MISS:          0  iACCESS:          0  iHIT:          0  iMISS:          0  dACCESS:          0  dHIT:          0  dMISS:          0  itACCESS:          0  itHIT:          0  itMISS:          0  dtACCESS:          0  dtHIT:          0  dtMISS:          0
cpu0_ITLB TRANSLATION  ACCESS:          0  HIT:          0  MISS:          0  iACCESS:          0  iHIT:          0  iMISS:          0  dACCESS:          0  dHIT:          0  dMISS:          0  itACCESS:          0  itHIT:          0  itMISS:          0  dtACCESS:          0  dtHIT:          0  dtMISS:          0
cpu0_ITLB PREFETCH  REQUESTED:          0  ISSUED:          0  CROSSED:          0  USEFUL:     268959  USELESS:      52527
cpu0_ITLB AVERAGE iMISS LATENCY: 4.59543 cycles
cpu0_ITLB AVERAGE dMISS LATENCY: 0 cycles
cpu0_ITLB AVERAGE itMISS LATENCY: 0 cycles
cpu0_ITLB AVERAGE dtMISS LATENCY: 0 cycles
cpu0_ITLB PAGE CROSSINGS (TLB HIT):         0 
cpu0_ITLB PAGE CROSSINGS (TLB MISS):         0 
cpu0_ITLB AVERAGE MISS LATENCY: 4.59543 cycles
cpu0_DTLB TOTAL       ACCESS:   31464314  HIT:   24961190  MISS:    6503124  iACCESS:          0  iHIT:          0  iMISS:          0  dACCESS:   31464314  dHIT:   24961190  dMISS:    6503124  itACCESS:          0  itHIT:          0  itMISS:          0  dtACCESS:          0  dtHIT:          0  dtMISS:          0
cpu0_DTLB LOAD         ACCESS:   31464314  HIT:   24961190  MISS:    6503124  iACCESS:          0  iHIT:          0  iMISS:          0  dACCESS:   31464314  dHIT:   24961190  dMISS:    6503124  itACCESS:          0  itHIT:          0  itMISS:          0  dtACCESS:          0  dtHIT:          0  dtMISS:          0
cpu0_DTLB RFO          ACCESS:          0  HIT:          0  MISS:          0  iACCESS:          0  iHIT:          0  iMISS:          0  dACCESS:          0  dHIT:          0  dMISS:          0  itACCESS:          0  itHIT:          0  itMISS:          0  dtACCESS:          0  dtHIT:          0  dtMISS:          0
cpu0_DTLB PREFETCH     ACCESS:          0  HIT:          0  MISS:          0  iACCESS:          0  iHIT:          0  iMISS:          0  dACCESS:          0  dHIT:          0  dMISS:          0  itACCESS:          0  itHIT:          0  itMISS:          0  dtACCESS:          0  dtHIT:          0  dtMISS:          0
cpu0_DTLB WRITE        ACCESS:          0  HIT:          0  MISS:          0  iACCESS:          0  iHIT:          0  iMISS:          0  dACCESS:          0  dHIT:          0  dMISS:          0  itACCESS:          0  itHIT:          0  itMISS:          0  dtACCESS:          0  dtHIT:          0  dtMISS:          0
cpu0_DTLB TRANSLATION  ACCESS:          0  HIT:          0  MISS:          0  iACCESS:          0  iHIT:          0  iMISS:          0  dACCESS:          0  dHIT:          0  dMISS:          0  itACCESS:          0  itHIT:          0  itMISS:          0  dtACCESS:          0  dtHIT:          0  dtMISS:          0
cpu0_DTLB PREFETCH  REQUESTED:          0  ISSUED:          0  CROSSED:          0  USEFUL:          0  USELESS:          0
cpu0_DTLB AVERAGE iMISS LATENCY: 0 cycles
cpu0_DTLB AVERAGE dMISS LATENCY: 6.00821 cycles
cpu0_DTLB AVERAGE itMISS LATENCY: 0 cycles
cpu0_DTLB AVERAGE dtMISS LATENCY: 0 cycles
cpu0_DTLB PAGE CROSSINGS (TLB HIT):         0 
cpu0_DTLB PAGE CROSSINGS (TLB MISS):         0 
cpu0_DTLB AVERAGE MISS LATENCY: 6.00821 cycles
cpu0_STLB TOTAL       ACCESS:    3601933  HIT:    3390562  MISS:     211371  iACCESS:     321509  iHIT:     241264  iMISS:      80245  dACCESS:    3280424  dHIT:    3149298  dMISS:     131126  itACCESS:          0  itHIT:          0  itMISS:          0  dtACCESS:          0  dtHIT:          0  dtMISS:          0
cpu0_STLB LOAD         ACCESS:    3601933  HIT:    3390562  MISS:     211371  iACCESS:     321509  iHIT:     241264  iMISS:      80245  dACCESS:    3280424  dHIT:    3149298  dMISS:     131126  itACCESS:          0  itHIT:          0  itMISS:          0  dtACCESS:          0  dtHIT:          0  dtMISS:          0
cpu0_STLB RFO          ACCESS:          0  HIT:          0  MISS:          0  iACCESS:          0  iHIT:          0  iMISS:          0  dACCESS:          0  dHIT:          0  dMISS:          0  itACCESS:          0  itHIT:          0  itMISS:          0  dtACCESS:          0  dtHIT:          0  dtMISS:          0
cpu0_STLB PREFETCH     ACCESS:          0  HIT:          0  MISS:          0  iACCESS:          0  iHIT:          0  iMISS:          0  dACCESS:          0  dHIT:          0  dMISS:          0  itACCESS:          0  itHIT:          0  itMISS:          0  dtACCESS:          0  dtHIT:          0  dtMISS:          0
cpu0_STLB WRITE        ACCESS:          0  HIT:          0  MISS:          0  iACCESS:          0  iHIT:          0  iMISS:          0  dACCESS:          0  dHIT:          0  dMISS:          0  itACCESS:          0  itHIT:          0  itMISS:          0  dtACCESS:          0  dtHIT:          0  dtMISS:          0
cpu0_STLB TRANSLATION  ACCESS:          0  HIT:          0  MISS:          0  iACCESS:          0  iHIT:          0  iMISS:          0  dACCESS:          0  dHIT:          0  dMISS:          0  itACCESS:          0  itHIT:          0  itMISS:          0  dtACCESS:          0  dtHIT:          0  dtMISS:          0
cpu0_STLB PREFETCH  REQUESTED:          0  ISSUED:          0  CROSSED:          0  USEFUL:          0  USELESS:          0
cpu0_STLB AVERAGE iMISS LATENCY: 22.0241 cycles
cpu0_STLB AVERAGE dMISS LATENCY: 58.6153 cycles
cpu0_STLB AVERAGE itMISS LATENCY: 0 cycles
cpu0_STLB AVERAGE dtMISS LATENCY: 0 cycles
cpu0_STLB PAGE CROSSINGS (TLB HIT):         0 
cpu0_STLB PAGE CROSSINGS (TLB MISS):         0 
cpu0_STLB AVERAGE MISS LATENCY: 80.6393 cycles
cpu0_L1D TOTAL       ACCESS:   49150098  HIT:   39385416  MISS:    9764682  iACCESS:          0  iHIT:          0  iMISS:          0  dACCESS:   48884194  dHIT:   39360553  dMISS:    9523641  itACCESS:      86223  itHIT:      13346  itMISS:      72877  dtACCESS:     179681  dtHIT:      11517  dtMISS:     168164
cpu0_L1D LOAD         ACCESS:   24608231  HIT:   18573725  MISS:    6034506  iACCESS:          0  iHIT:          0  iMISS:          0  dACCESS:   24608231  dHIT:   18573725  dMISS:    6034506  itACCESS:          0  itHIT:          0  itMISS:          0  dtACCESS:          0  dtHIT:          0  dtMISS:          0
cpu0_L1D RFO          ACCESS:          0  HIT:          0  MISS:          0  iACCESS:          0  iHIT:          0  iMISS:          0  dACCESS:          0  dHIT:          0  dMISS:          0  itACCESS:          0  itHIT:          0  itMISS:          0  dtACCESS:          0  dtHIT:          0  dtMISS:          0
cpu0_L1D PREFETCH     ACCESS:   14796711  HIT:   11733799  MISS:    3062912  iACCESS:          0  iHIT:          0  iMISS:          0  dACCESS:   14796711  dHIT:   11733799  dMISS:    3062912  itACCESS:          0  itHIT:          0  itMISS:          0  dtACCESS:          0  dtHIT:          0  dtMISS:          0
cpu0_L1D WRITE        ACCESS:    9479252  HIT:    9053029  MISS:     426223  iACCESS:          0  iHIT:          0  iMISS:          0  dACCESS:    9479252  dHIT:    9053029  dMISS:     426223  itACCESS:          0  itHIT:          0  itMISS:          0  dtACCESS:          0  dtHIT:          0  dtMISS:          0
cpu0_L1D TRANSLATION  ACCESS:     265904  HIT:      24863  MISS:     241041  iACCESS:          0  iHIT:          0  iMISS:          0  dACCESS:          0  dHIT:          0  dMISS:          0  itACCESS:      86223  itHIT:      13346  itMISS:      72877  dtACCESS:     179681  dtHIT:      11517  dtMISS:     168164
cpu0_L1D PREFETCH  REQUESTED:   24608231  ISSUED:   17962172  CROSSED:          0  USEFUL:     252684  USELESS:     846282
cpu0_L1D AVERAGE iMISS LATENCY: 0 cycles
cpu0_L1D AVERAGE dMISS LATENCY: 21.772 cycles
cpu0_L1D AVERAGE itMISS LATENCY: 0.405359 cycles
cpu0_L1D AVERAGE dtMISS LATENCY: 1.08263 cycles
cpu0_L1D PAGE CROSSINGS (TLB HIT):         0 
cpu0_L1D PAGE CROSSINGS (TLB MISS):         0 
cpu0_L1D AVERAGE MISS LATENCY: 23.26 cycles
cpu0_L2C TOTAL       ACCESS:    9490009  HIT:    3241299  MISS:    6248710  iACCESS:    2733876  iHIT:     649105  iMISS:    2084771  dACCESS:    6519834  dHIT:    2451822  dMISS:    4068012  itACCESS:      72877  itHIT:      49445  itMISS:      23432  dtACCESS:     163422  dtHIT:      90927  dtMISS:      72495
cpu0_L2C LOAD         ACCESS:    4598833  HIT:    1988231  MISS:    2610602  iACCESS:     620586  iHIT:     104166  iMISS:     516420  dACCESS:    3978247  dHIT:    1884065  dMISS:    2094182  itACCESS:          0  itHIT:          0  itMISS:          0  dtACCESS:          0  dtHIT:          0  dtMISS:          0
cpu0_L2C RFO          ACCESS:     174134  HIT:      64406  MISS:     109728  iACCESS:          0  iHIT:          0  iMISS:          0  dACCESS:     174134  dHIT:      64406  dMISS:     109728  itACCESS:          0  itHIT:          0  itMISS:          0  dtACCESS:          0  dtHIT:          0  dtMISS:          0
cpu0_L2C PREFETCH     ACCESS:    4255799  HIT:     959496  MISS:    3296303  iACCESS:    2113290  iHIT:     544939  iMISS:    1568351  dACCESS:    2142509  dHIT:     414557  dMISS:    1727952  itACCESS:          0  itHIT:          0  itMISS:          0  dtACCESS:          0  dtHIT:          0  dtMISS:          0
cpu0_L2C WRITE        ACCESS:     224944  HIT:      88794  MISS:     136150  iACCESS:          0  iHIT:          0  iMISS:          0  dACCESS:     224944  dHIT:      88794  dMISS:     136150  itACCESS:          0  itHIT:          0  itMISS:          0  dtACCESS:          0  dtHIT:          0  dtMISS:          0
cpu0_L2C TRANSLATION  ACCESS:     236299  HIT:     140372  MISS:      95927  iACCESS:          0  iHIT:          0  iMISS:          0  dACCESS:          0  dHIT:          0  dMISS:          0  itACCESS:      72877  itHIT:      49445  itMISS:      23432  dtACCESS:     163422  dtHIT:      90927  dtMISS:      72495
cpu0_L2C PREFETCH  REQUESTED:    1244174  ISSUED:    1244174  CROSSED:          0  USEFUL:     325778  USELESS:     358107
cpu0_L2C AVERAGE iMISS LATENCY: 17.6451 cycles
cpu0_L2C AVERAGE dMISS LATENCY: 34.0389 cycles
cpu0_L2C AVERAGE itMISS LATENCY: 0.524409 cycles
cpu0_L2C AVERAGE dtMISS LATENCY: 1.44379 cycles
cpu0_L2C PAGE CROSSINGS (TLB HIT):         0 
cpu0_L2C PAGE CROSSINGS (TLB MISS):         0 
cpu0_L2C AVERAGE MISS LATENCY: 53.6521 cycles
LLC TOTAL       ACCESS:    6068240  HIT:    4681074  MISS:    1387166  iACCESS:    2023659  iHIT:    1539941  iMISS:     483718  dACCESS:    3948654  dHIT:    3102460  dMISS:     846194  itACCESS:      23432  itHIT:       7263  itMISS:      16169  dtACCESS:      72495  dtHIT:      31410  dtMISS:      41085
LLC LOAD         ACCESS:    2605074  HIT:    2287618  MISS:     317456  iACCESS:     515232  iHIT:     416254  iMISS:      98978  dACCESS:    2089842  dHIT:    1871364  dMISS:     218478  itACCESS:          0  itHIT:          0  itMISS:          0  dtACCESS:          0  dtHIT:          0  dtMISS:          0
LLC RFO          ACCESS:     109725  HIT:      58371  MISS:      51354  iACCESS:          0  iHIT:          0  iMISS:          0  dACCESS:     109725  dHIT:      58371  dMISS:      51354  itACCESS:          0  itHIT:          0  itMISS:          0  dtACCESS:          0  dtHIT:          0  dtMISS:          0
LLC PREFETCH     ACCESS:    3121132  HIT:    2168663  MISS:     952469  iACCESS:    1508427  iHIT:    1123687  iMISS:     384740  dACCESS:    1612705  dHIT:    1044976  dMISS:     567729  itACCESS:          0  itHIT:          0  itMISS:          0  dtACCESS:          0  dtHIT:          0  dtMISS:          0
LLC WRITE        ACCESS:     136382  HIT:     127749  MISS:       8633  iACCESS:          0  iHIT:          0  iMISS:          0  dACCESS:     136382  dHIT:     127749  dMISS:       8633  itACCESS:          0  itHIT:          0  itMISS:          0  dtACCESS:          0  dtHIT:          0  dtMISS:          0
LLC TRANSLATION  ACCESS:      95927  HIT:      38673  MISS:      57254  iACCESS:          0  iHIT:          0  iMISS:          0  dACCESS:          0  dHIT:          0  dMISS:          0  itACCESS:      23432  itHIT:       7263  itMISS:      16169  dtACCESS:      72495  dtHIT:      31410  dtMISS:      41085
LLC PREFETCH  REQUESTED:          0  ISSUED:          0  CROSSED:          0  USEFUL:          0  USELESS:          0
LLC AVERAGE iMISS LATENCY: 51.2134 cycles
LLC AVERAGE dMISS LATENCY: 100.717 cycles
LLC AVERAGE itMISS LATENCY: 2.03045 cycles
LLC AVERAGE dtMISS LATENCY: 5.48283 cycles
LLC PAGE CROSSINGS (TLB HIT):         0 
LLC PAGE CROSSINGS (TLB MISS):         0 
LLC AVERAGE MISS LATENCY: 159.443 cycles

PageTableWalker TOTAL       ACCESS:     103447  
PageTableWalker AVERAGE LATENCY: 4.37777 cycles
PageTableWalker TOTAL LATENCY: 452867 cycles

DRAM Statistics
Channel 0
 RQ ROW_BUFFER_HIT:     402812
  ROW_BUFFER_MISS:     964535
 AVG DBUS CONGESTED CYCLE:    3.63987
 WQ ROW_BUFFER_HIT:      29233
  ROW_BUFFER_MISS:      23014  FULL:          0

