last_page:0x200000000000000
VMEM_RES_CAP:0x100000
PAGE_SIZE:4096
LOG2_PAGE_SIZE:12
LOG2_PAGE_TABLE_SIZE:9
page_table_levels:5
WARNING: physical memory size is smaller than virtual memory size
FDiP enabled with aggresivity 16

*** ChampSim Multicore Out-of-Order Simulator ***

Warmup Instructions: 50000000
Simulation Instructions: 100000000
Number of CPUs: 1
Small page size: 4096
Large page size: 2097152

CPU 0 Bimodal branch predictor
Basic BTB sets: 1024 ways: 8 indirect buffer size: 4096 RAS size: 64
Instruction page size distrubution: 0
Loading instruction page size distribution from /home/bsc/bsc018186/scratch/itp_asplos25_AE/dump/srv228_ap.pdst
Data page size distrubution: 0
Loading data page size distribution from /home/bsc/bsc018186/scratch/itp_asplos25_AE/dump/srv228_ap.pdst
cpu0_L2C IP-based stride prefetcher
cpu0_L1D next line prefetcher
cpu0_STLB using iTP with max lru@8
cpu0_STLB using iTP with instr@0 and data@2
Init sat counter with 3 bits (max:50).
cpu0_L1I next line prefetcher
Off-chip DRAM Size: 4 GiB Channels: 1 Width: 64-bit Data Rate: 3200 MT/s
Heartbeat CPU 0 instructions: 10000002 cycles: 2500224 heartbeat IPC: 3.99965 cumulative IPC: 3.99965 (Simulation time: 0 hr 0 min 37 sec) 
Heartbeat CPU 0 instructions: 20000002 cycles: 5000224 heartbeat IPC: 4 cumulative IPC: 3.99983 (Simulation time: 0 hr 1 min 16 sec) 
Heartbeat CPU 0 instructions: 30000000 cycles: 7500241 heartbeat IPC: 3.99998 cumulative IPC: 3.99988 (Simulation time: 0 hr 1 min 55 sec) 
Heartbeat CPU 0 instructions: 40000002 cycles: 10000289 heartbeat IPC: 3.99993 cumulative IPC: 3.99989 (Simulation time: 0 hr 2 min 35 sec) 
Heartbeat CPU 0 instructions: 50000002 cycles: 12500289 heartbeat IPC: 4 cumulative IPC: 3.99991 (Simulation time: 0 hr 3 min 16 sec) 
Warmup finished CPU 0 instructions: 50000002 cycles: 12500290 cumulative IPC: 3.99991 (Simulation time: 0 hr 3 min 16 sec) 

Warmup complete CPU 0 instructions: 50000002 cycles: 12500290 (Simulation time: 0 hr 3 min 16 sec) 

Heartbeat CPU 0 instructions: 60000000 cycles: 28303034 heartbeat IPC: 0.632802 cumulative IPC: 0.632802 (Simulation time: 0 hr 4 min 20 sec) 
Heartbeat CPU 0 instructions: 70000001 cycles: 43874503 heartbeat IPC: 0.642201 cumulative IPC: 0.637467 (Simulation time: 0 hr 5 min 25 sec) 
Heartbeat CPU 0 instructions: 80000002 cycles: 58934828 heartbeat IPC: 0.663997 cumulative IPC: 0.646071 (Simulation time: 0 hr 6 min 28 sec) 
Heartbeat CPU 0 instructions: 90000004 cycles: 74180100 heartbeat IPC: 0.655942 cumulative IPC: 0.648511 (Simulation time: 0 hr 7 min 33 sec) 
Heartbeat CPU 0 instructions: 100000001 cycles: 89437820 heartbeat IPC: 0.655406 cumulative IPC: 0.649878 (Simulation time: 0 hr 8 min 37 sec) 
*** Reached end of trace: /gpfs/projects/bsc18/MN4/bsc18/romol/ChampSim/traces/qualcomm_srv/srv228_ap.champsimtrace.xz
Heartbeat CPU 0 instructions: 110000000 cycles: 105240079 heartbeat IPC: 0.632821 cumulative IPC: 0.646972 (Simulation time: 0 hr 9 min 42 sec) 
Heartbeat CPU 0 instructions: 120000000 cycles: 120871594 heartbeat IPC: 0.639734 cumulative IPC: 0.645928 (Simulation time: 0 hr 10 min 47 sec) 
Heartbeat CPU 0 instructions: 130000004 cycles: 135484351 heartbeat IPC: 0.684334 cumulative IPC: 0.650491 (Simulation time: 0 hr 11 min 51 sec) 
Heartbeat CPU 0 instructions: 140000001 cycles: 151277485 heartbeat IPC: 0.633187 cumulative IPC: 0.648522 (Simulation time: 0 hr 12 min 56 sec) 
Heartbeat CPU 0 instructions: 150000000 cycles: 166101519 heartbeat IPC: 0.674581 cumulative IPC: 0.651037 (Simulation time: 0 hr 13 min 59 sec) 
Simulation finished CPU 0 instructions: 100000001 cycles: 153601232 cumulative IPC: 0.651037 (Simulation time: 0 hr 13 min 59 sec) 

Simulation complete CPU 0 instructions: 100000001 cycles: 153601232 (Simulation time: 0 hr 13 min 59 sec) 


ChampSim completed all CPUs

Saving instructions large page distribution to /home/bsc/bsc018186/scratch/itp_asplos25_AE/dump/srv228_ap.pdst...
Saving data large page distribution to /home/bsc/bsc018186/scratch/itp_asplos25_AE/dump/srv228_ap.pdst...
=== Simulation ===
CPU 0 runs /gpfs/projects/bsc18/MN4/bsc18/romol/ChampSim/traces/qualcomm_srv/srv228_ap.champsimtrace.xz

Region of Interest Statistics

CPU 0 cumulative IPC: 0.651037 instructions: 100000001 cycles: 153601232
CPU 0 Branch Prediction Accuracy: 82.6742% MPKI: 30.9851 Average ROB Occupancy at Mispredict: 12.5871
Branch type MPKI
BRANCH_DIRECT_JUMP: 1.06741
BRANCH_INDIRECT: 15.7828
BRANCH_CONDITIONAL: 10.2852
BRANCH_DIRECT_CALL: 1.93595
BRANCH_INDIRECT_CALL: 0.52536
BRANCH_RETURN: 1.38839

Instructions large pages: 0
Instructions small pages: 10544
Large page distribution for instructions: 0%

Data large pages: 0
Data small pages: 9583
Large page distribution for data: 0%

cpu0_L1I TOTAL       ACCESS:   35088480  HIT:   27218992  MISS:    7869488  iACCESS:   35088480  iHIT:   27218992  iMISS:    7869488  dACCESS:          0  dHIT:          0  dMISS:          0  itACCESS:          0  itHIT:          0  itMISS:          0  dtACCESS:          0  dtHIT:          0  dtMISS:          0
cpu0_L1I LOAD         ACCESS:   10295961  HIT:    8089068  MISS:    2206893  iACCESS:   10295961  iHIT:    8089068  iMISS:    2206893  dACCESS:          0  dHIT:          0  dMISS:          0  itACCESS:          0  itHIT:          0  itMISS:          0  dtACCESS:          0  dtHIT:          0  dtMISS:          0
cpu0_L1I RFO          ACCESS:          0  HIT:          0  MISS:          0  iACCESS:          0  iHIT:          0  iMISS:          0  dACCESS:          0  dHIT:          0  dMISS:          0  itACCESS:          0  itHIT:          0  itMISS:          0  dtACCESS:          0  dtHIT:          0  dtMISS:          0
cpu0_L1I PREFETCH     ACCESS:   24792519  HIT:   19129924  MISS:    5662595  iACCESS:   24792519  iHIT:   19129924  iMISS:    5662595  dACCESS:          0  dHIT:          0  dMISS:          0  itACCESS:          0  itHIT:          0  itMISS:          0  dtACCESS:          0  dtHIT:          0  dtMISS:          0
cpu0_L1I WRITE        ACCESS:          0  HIT:          0  MISS:          0  iACCESS:          0  iHIT:          0  iMISS:          0  dACCESS:          0  dHIT:          0  dMISS:          0  itACCESS:          0  itHIT:          0  itMISS:          0  dtACCESS:          0  dtHIT:          0  dtMISS:          0
cpu0_L1I TRANSLATION  ACCESS:          0  HIT:          0  MISS:          0  iACCESS:          0  iHIT:          0  iMISS:          0  dACCESS:          0  dHIT:          0  dMISS:          0  itACCESS:          0  itHIT:          0  itMISS:          0  dtACCESS:          0  dtHIT:          0  dtMISS:          0
cpu0_L1I PREFETCH  REQUESTED:   27331203  ISSUED:   27331198  CROSSED:          0  USEFUL:    1944490  USELESS:     630692
cpu0_L1I AVERAGE iMISS LATENCY: 13.1068 cycles
cpu0_L1I AVERAGE dMISS LATENCY: 0 cycles
cpu0_L1I AVERAGE itMISS LATENCY: 0 cycles
cpu0_L1I AVERAGE dtMISS LATENCY: 0 cycles
cpu0_L1I PAGE CROSSINGS (TLB HIT):         0 
cpu0_L1I PAGE CROSSINGS (TLB MISS):         0 
cpu0_L1I AVERAGE MISS LATENCY: 13.1068 cycles
cpu0_ITLB TOTAL       ACCESS:   29320581  HIT:   27374378  MISS:    1946203  iACCESS:   29320581  iHIT:   27374378  iMISS:    1946203  dACCESS:          0  dHIT:          0  dMISS:          0  itACCESS:          0  itHIT:          0  itMISS:          0  dtACCESS:          0  dtHIT:          0  dtMISS:          0
cpu0_ITLB LOAD         ACCESS:   29320581  HIT:   27374378  MISS:    1946203  iACCESS:   29320581  iHIT:   27374378  iMISS:    1946203  dACCESS:          0  dHIT:          0  dMISS:          0  itACCESS:          0  itHIT:          0  itMISS:          0  dtACCESS:          0  dtHIT:          0  dtMISS:          0
cpu0_ITLB RFO          ACCESS:          0  HIT:          0  MISS:          0  iACCESS:          0  iHIT:          0  iMISS:          0  dACCESS:          0  dHIT:          0  dMISS:          0  itACCESS:          0  itHIT:          0  itMISS:          0  dtACCESS:          0  dtHIT:          0  dtMISS:          0
cpu0_ITLB PREFETCH     ACCESS:          0  HIT:          0  MISS:          0  iACCESS:          0  iHIT:          0  iMISS:          0  dACCESS:          0  dHIT:          0  dMISS:          0  itACCESS:          0  itHIT:          0  itMISS:          0  dtACCESS:          0  dtHIT:          0  dtMISS:          0
cpu0_ITLB WRITE        ACCESS:          0  HIT:          0  MISS:          0  iACCESS:          0  iHIT:          0  iMISS:          0  dACCESS:          0  dHIT:          0  dMISS:          0  itACCESS:          0  itHIT:          0  itMISS:          0  dtACCESS:          0  dtHIT:          0  dtMISS:          0
cpu0_ITLB TRANSLATION  ACCESS:          0  HIT:          0  MISS:          0  iACCESS:          0  iHIT:          0  iMISS:          0  dACCESS:          0  dHIT:          0  dMISS:          0  itACCESS:          0  itHIT:          0  itMISS:          0  dtACCESS:          0  dtHIT:          0  dtMISS:          0
cpu0_ITLB PREFETCH  REQUESTED:          0  ISSUED:          0  CROSSED:          0  USEFUL:     317760  USELESS:      64817
cpu0_ITLB AVERAGE iMISS LATENCY: 2.19103 cycles
cpu0_ITLB AVERAGE dMISS LATENCY: 0 cycles
cpu0_ITLB AVERAGE itMISS LATENCY: 0 cycles
cpu0_ITLB AVERAGE dtMISS LATENCY: 0 cycles
cpu0_ITLB PAGE CROSSINGS (TLB HIT):         0 
cpu0_ITLB PAGE CROSSINGS (TLB MISS):         0 
cpu0_ITLB AVERAGE MISS LATENCY: 2.19103 cycles
cpu0_DTLB TOTAL       ACCESS:   27732868  HIT:   25608353  MISS:    2124515  iACCESS:          0  iHIT:          0  iMISS:          0  dACCESS:   27732868  dHIT:   25608353  dMISS:    2124515  itACCESS:          0  itHIT:          0  itMISS:          0  dtACCESS:          0  dtHIT:          0  dtMISS:          0
cpu0_DTLB LOAD         ACCESS:   27732868  HIT:   25608353  MISS:    2124515  iACCESS:          0  iHIT:          0  iMISS:          0  dACCESS:   27732868  dHIT:   25608353  dMISS:    2124515  itACCESS:          0  itHIT:          0  itMISS:          0  dtACCESS:          0  dtHIT:          0  dtMISS:          0
cpu0_DTLB RFO          ACCESS:          0  HIT:          0  MISS:          0  iACCESS:          0  iHIT:          0  iMISS:          0  dACCESS:          0  dHIT:          0  dMISS:          0  itACCESS:          0  itHIT:          0  itMISS:          0  dtACCESS:          0  dtHIT:          0  dtMISS:          0
cpu0_DTLB PREFETCH     ACCESS:          0  HIT:          0  MISS:          0  iACCESS:          0  iHIT:          0  iMISS:          0  dACCESS:          0  dHIT:          0  dMISS:          0  itACCESS:          0  itHIT:          0  itMISS:          0  dtACCESS:          0  dtHIT:          0  dtMISS:          0
cpu0_DTLB WRITE        ACCESS:          0  HIT:          0  MISS:          0  iACCESS:          0  iHIT:          0  iMISS:          0  dACCESS:          0  dHIT:          0  dMISS:          0  itACCESS:          0  itHIT:          0  itMISS:          0  dtACCESS:          0  dtHIT:          0  dtMISS:          0
cpu0_DTLB TRANSLATION  ACCESS:          0  HIT:          0  MISS:          0  iACCESS:          0  iHIT:          0  iMISS:          0  dACCESS:          0  dHIT:          0  dMISS:          0  itACCESS:          0  itHIT:          0  itMISS:          0  dtACCESS:          0  dtHIT:          0  dtMISS:          0
cpu0_DTLB PREFETCH  REQUESTED:          0  ISSUED:          0  CROSSED:          0  USEFUL:          0  USELESS:          0
cpu0_DTLB AVERAGE iMISS LATENCY: 0 cycles
cpu0_DTLB AVERAGE dMISS LATENCY: 16.1573 cycles
cpu0_DTLB AVERAGE itMISS LATENCY: 0 cycles
cpu0_DTLB AVERAGE dtMISS LATENCY: 0 cycles
cpu0_DTLB PAGE CROSSINGS (TLB HIT):         0 
cpu0_DTLB PAGE CROSSINGS (TLB MISS):         0 
cpu0_DTLB AVERAGE MISS LATENCY: 16.1573 cycles
cpu0_STLB TOTAL       ACCESS:    1638911  HIT:    1492714  MISS:     146197  iACCESS:     382581  iHIT:     373566  iMISS:       9015  dACCESS:    1256330  dHIT:    1119148  dMISS:     137182  itACCESS:          0  itHIT:          0  itMISS:          0  dtACCESS:          0  dtHIT:          0  dtMISS:          0
cpu0_STLB LOAD         ACCESS:    1638911  HIT:    1492714  MISS:     146197  iACCESS:     382581  iHIT:     373566  iMISS:       9015  dACCESS:    1256330  dHIT:    1119148  dMISS:     137182  itACCESS:          0  itHIT:          0  itMISS:          0  dtACCESS:          0  dtHIT:          0  dtMISS:          0
cpu0_STLB RFO          ACCESS:          0  HIT:          0  MISS:          0  iACCESS:          0  iHIT:          0  iMISS:          0  dACCESS:          0  dHIT:          0  dMISS:          0  itACCESS:          0  itHIT:          0  itMISS:          0  dtACCESS:          0  dtHIT:          0  dtMISS:          0
cpu0_STLB PREFETCH     ACCESS:          0  HIT:          0  MISS:          0  iACCESS:          0  iHIT:          0  iMISS:          0  dACCESS:          0  dHIT:          0  dMISS:          0  itACCESS:          0  itHIT:          0  itMISS:          0  dtACCESS:          0  dtHIT:          0  dtMISS:          0
cpu0_STLB WRITE        ACCESS:          0  HIT:          0  MISS:          0  iACCESS:          0  iHIT:          0  iMISS:          0  dACCESS:          0  dHIT:          0  dMISS:          0  itACCESS:          0  itHIT:          0  itMISS:          0  dtACCESS:          0  dtHIT:          0  dtMISS:          0
cpu0_STLB TRANSLATION  ACCESS:          0  HIT:          0  MISS:          0  iACCESS:          0  iHIT:          0  iMISS:          0  dACCESS:          0  dHIT:          0  dMISS:          0  itACCESS:          0  itHIT:          0  itMISS:          0  dtACCESS:          0  dtHIT:          0  dtMISS:          0
cpu0_STLB PREFETCH  REQUESTED:          0  ISSUED:          0  CROSSED:          0  USEFUL:          0  USELESS:          0
cpu0_STLB AVERAGE iMISS LATENCY: 8.86048 cycles
cpu0_STLB AVERAGE dMISS LATENCY: 166.143 cycles
cpu0_STLB AVERAGE itMISS LATENCY: 0 cycles
cpu0_STLB AVERAGE dtMISS LATENCY: 0 cycles
cpu0_STLB PAGE CROSSINGS (TLB HIT):         0 
cpu0_STLB PAGE CROSSINGS (TLB MISS):         0 
cpu0_STLB AVERAGE MISS LATENCY: 175.004 cycles
cpu0_L1D TOTAL       ACCESS:   41537741  HIT:   38055875  MISS:    3481866  iACCESS:          0  iHIT:          0  iMISS:          0  dACCESS:   41320644  dHIT:   38042139  dMISS:    3278505  itACCESS:      10436  itHIT:       1219  itMISS:       9217  dtACCESS:     206661  dtHIT:      12517  dtMISS:     194144
cpu0_L1D LOAD         ACCESS:   18939092  HIT:   17441110  MISS:    1497982  iACCESS:          0  iHIT:          0  iMISS:          0  dACCESS:   18939092  dHIT:   17441110  dMISS:    1497982  itACCESS:          0  itHIT:          0  itMISS:          0  dtACCESS:          0  dtHIT:          0  dtMISS:          0
cpu0_L1D RFO          ACCESS:          0  HIT:          0  MISS:          0  iACCESS:          0  iHIT:          0  iMISS:          0  dACCESS:          0  dHIT:          0  dMISS:          0  itACCESS:          0  itHIT:          0  itMISS:          0  dtACCESS:          0  dtHIT:          0  dtMISS:          0
cpu0_L1D PREFETCH     ACCESS:   12202906  HIT:   10856620  MISS:    1346286  iACCESS:          0  iHIT:          0  iMISS:          0  dACCESS:   12202906  dHIT:   10856620  dMISS:    1346286  itACCESS:          0  itHIT:          0  itMISS:          0  dtACCESS:          0  dtHIT:          0  dtMISS:          0
cpu0_L1D WRITE        ACCESS:   10178646  HIT:    9744409  MISS:     434237  iACCESS:          0  iHIT:          0  iMISS:          0  dACCESS:   10178646  dHIT:    9744409  dMISS:     434237  itACCESS:          0  itHIT:          0  itMISS:          0  dtACCESS:          0  dtHIT:          0  dtMISS:          0
cpu0_L1D TRANSLATION  ACCESS:     217097  HIT:      13736  MISS:     203361  iACCESS:          0  iHIT:          0  iMISS:          0  dACCESS:          0  dHIT:          0  dMISS:          0  itACCESS:      10436  itHIT:       1219  itMISS:       9217  dtACCESS:     206661  dtHIT:      12517  dtMISS:     194144
cpu0_L1D PREFETCH  REQUESTED:   18939092  ISSUED:   17058859  CROSSED:          0  USEFUL:     305654  USELESS:     707887
cpu0_L1D AVERAGE iMISS LATENCY: 0 cycles
cpu0_L1D AVERAGE dMISS LATENCY: 33.7823 cycles
cpu0_L1D AVERAGE itMISS LATENCY: 0.343742 cycles
cpu0_L1D AVERAGE dtMISS LATENCY: 6.20589 cycles
cpu0_L1D PAGE CROSSINGS (TLB HIT):         0 
cpu0_L1D PAGE CROSSINGS (TLB MISS):         0 
cpu0_L1D AVERAGE MISS LATENCY: 40.3319 cycles
cpu0_L2C TOTAL       ACCESS:    7034616  HIT:    4055710  MISS:    2978906  iACCESS:    3321888  iHIT:    2203614  iMISS:    1118274  dACCESS:    3521168  dHIT:    1816722  dMISS:    1704446  itACCESS:       9217  itHIT:       1630  itMISS:       7587  dtACCESS:     182343  dtHIT:      33744  dtMISS:     148599
cpu0_L2C LOAD         ACCESS:    1724318  HIT:    1033120  MISS:     691198  iACCESS:     786274  iHIT:     548905  iMISS:     237369  dACCESS:     938044  dHIT:     484215  dMISS:     453829  itACCESS:          0  itHIT:          0  itMISS:          0  dtACCESS:          0  dtHIT:          0  dtMISS:          0
cpu0_L2C RFO          ACCESS:     158582  HIT:      73330  MISS:      85252  iACCESS:          0  iHIT:          0  iMISS:          0  dACCESS:     158582  dHIT:      73330  dMISS:      85252  itACCESS:          0  itHIT:          0  itMISS:          0  dtACCESS:          0  dtHIT:          0  dtMISS:          0
cpu0_L2C PREFETCH     ACCESS:    4676964  HIT:    2631587  MISS:    2045377  iACCESS:    2535614  iHIT:    1654709  iMISS:     880905  dACCESS:    2141350  dHIT:     976878  dMISS:    1164472  itACCESS:          0  itHIT:          0  itMISS:          0  dtACCESS:          0  dtHIT:          0  dtMISS:          0
cpu0_L2C WRITE        ACCESS:     283192  HIT:     282299  MISS:        893  iACCESS:          0  iHIT:          0  iMISS:          0  dACCESS:     283192  dHIT:     282299  dMISS:        893  itACCESS:          0  itHIT:          0  itMISS:          0  dtACCESS:          0  dtHIT:          0  dtMISS:          0
cpu0_L2C TRANSLATION  ACCESS:     191560  HIT:      35374  MISS:     156186  iACCESS:          0  iHIT:          0  iMISS:          0  dACCESS:          0  dHIT:          0  dMISS:          0  itACCESS:       9217  itHIT:       1630  itMISS:       7587  dtACCESS:     182343  dtHIT:      33744  dtMISS:     148599
cpu0_L2C PREFETCH  REQUESTED:    1387370  ISSUED:    1387370  CROSSED:          0  USEFUL:     329604  USELESS:     243200
cpu0_L2C AVERAGE iMISS LATENCY: 24.4486 cycles
cpu0_L2C AVERAGE dMISS LATENCY: 47.1106 cycles
cpu0_L2C AVERAGE itMISS LATENCY: 0.371299 cycles
cpu0_L2C AVERAGE dtMISS LATENCY: 6.64839 cycles
cpu0_L2C PAGE CROSSINGS (TLB HIT):         0 
cpu0_L2C PAGE CROSSINGS (TLB MISS):         0 
cpu0_L2C AVERAGE MISS LATENCY: 78.5789 cycles
LLC TOTAL       ACCESS:    2995796  HIT:    1865839  MISS:    1129957  iACCESS:    1059412  iHIT:     703808  iMISS:     355604  dACCESS:    1780198  dHIT:    1105633  dMISS:     674565  itACCESS:       7587  itHIT:       2061  itMISS:       5526  dtACCESS:     148599  dtHIT:      54337  dtMISS:      94262
LLC LOAD         ACCESS:     689689  HIT:     445050  MISS:     244639  iACCESS:     236133  iHIT:     159380  iMISS:      76753  dACCESS:     453556  dHIT:     285670  dMISS:     167886  itACCESS:          0  itHIT:          0  itMISS:          0  dtACCESS:          0  dtHIT:          0  dtMISS:          0
LLC RFO          ACCESS:      85224  HIT:      42738  MISS:      42486  iACCESS:          0  iHIT:          0  iMISS:          0  dACCESS:      85224  dHIT:      42738  dMISS:      42486  itACCESS:          0  itHIT:          0  itMISS:          0  dtACCESS:          0  dtHIT:          0  dtMISS:          0
LLC PREFETCH     ACCESS:    1929322  HIT:    1192186  MISS:     737136  iACCESS:     823279  iHIT:     544428  iMISS:     278851  dACCESS:    1106043  dHIT:     647758  dMISS:     458285  itACCESS:          0  itHIT:          0  itMISS:          0  dtACCESS:          0  dtHIT:          0  dtMISS:          0
LLC WRITE        ACCESS:     135375  HIT:     129467  MISS:       5908  iACCESS:          0  iHIT:          0  iMISS:          0  dACCESS:     135375  dHIT:     129467  dMISS:       5908  itACCESS:          0  itHIT:          0  itMISS:          0  dtACCESS:          0  dtHIT:          0  dtMISS:          0
LLC TRANSLATION  ACCESS:     156186  HIT:      56398  MISS:      99788  iACCESS:          0  iHIT:          0  iMISS:          0  dACCESS:          0  dHIT:          0  dMISS:          0  itACCESS:       7587  itHIT:       2061  itMISS:       5526  dtACCESS:     148599  dtHIT:      54337  dtMISS:      94262
LLC PREFETCH  REQUESTED:          0  ISSUED:          0  CROSSED:          0  USEFUL:          0  USELESS:          0
LLC AVERAGE iMISS LATENCY: 46.2367 cycles
LLC AVERAGE dMISS LATENCY: 96.001 cycles
LLC AVERAGE itMISS LATENCY: 0.846841 cycles
LLC AVERAGE dtMISS LATENCY: 14.952 cycles
LLC PAGE CROSSINGS (TLB HIT):         0 
LLC PAGE CROSSINGS (TLB MISS):         0 
LLC AVERAGE MISS LATENCY: 158.037 cycles

PageTableWalker TOTAL       ACCESS:      71316  
PageTableWalker AVERAGE LATENCY: 5.71459 cycles
PageTableWalker TOTAL LATENCY: 407541 cycles

DRAM Statistics
Channel 0
 RQ ROW_BUFFER_HIT:     306336
  ROW_BUFFER_MISS:     817635
 AVG DBUS CONGESTED CYCLE:    3.61808
 WQ ROW_BUFFER_HIT:      21324
  ROW_BUFFER_MISS:      23311  FULL:          0

