last_page:0x200000000000000
VMEM_RES_CAP:0x100000
PAGE_SIZE:4096
LOG2_PAGE_SIZE:12
LOG2_PAGE_TABLE_SIZE:9
page_table_levels:5
WARNING: physical memory size is smaller than virtual memory size
FDiP enabled with aggresivity 16

*** ChampSim Multicore Out-of-Order Simulator ***

Warmup Instructions: 50000000
Simulation Instructions: 100000000
Number of CPUs: 1
Small page size: 4096
Large page size: 2097152

CPU 0 Bimodal branch predictor
Basic BTB sets: 1024 ways: 8 indirect buffer size: 4096 RAS size: 64
Instruction page size distrubution: 0
Loading instruction page size distribution from /home/bsc/bsc018186/scratch/itp_asplos25_AE/dump/srv283_ap.pdst
Data page size distrubution: 0
Loading data page size distribution from /home/bsc/bsc018186/scratch/itp_asplos25_AE/dump/srv283_ap.pdst
cpu0_L2C IP-based stride prefetcher
cpu0_L1D next line prefetcher
cpu0_STLB using iTP with max lru@8
cpu0_STLB using iTP with instr@0 and data@2
Init sat counter with 3 bits (max:50).
cpu0_L1I next line prefetcher
Off-chip DRAM Size: 4 GiB Channels: 1 Width: 64-bit Data Rate: 3200 MT/s
Heartbeat CPU 0 instructions: 10000002 cycles: 2500239 heartbeat IPC: 3.99962 cumulative IPC: 3.99962 (Simulation time: 0 hr 0 min 38 sec) 
Heartbeat CPU 0 instructions: 20000003 cycles: 5000265 heartbeat IPC: 3.99996 cumulative IPC: 3.99979 (Simulation time: 0 hr 1 min 18 sec) 
Heartbeat CPU 0 instructions: 30000001 cycles: 7500280 heartbeat IPC: 3.99998 cumulative IPC: 3.99986 (Simulation time: 0 hr 1 min 59 sec) 
Heartbeat CPU 0 instructions: 40000001 cycles: 10000280 heartbeat IPC: 4 cumulative IPC: 3.99989 (Simulation time: 0 hr 2 min 39 sec) 
Heartbeat CPU 0 instructions: 50000002 cycles: 12500419 heartbeat IPC: 3.99978 cumulative IPC: 3.99987 (Simulation time: 0 hr 3 min 19 sec) 
Warmup finished CPU 0 instructions: 50000002 cycles: 12500420 cumulative IPC: 3.99987 (Simulation time: 0 hr 3 min 19 sec) 

Warmup complete CPU 0 instructions: 50000002 cycles: 12500420 (Simulation time: 0 hr 3 min 19 sec) 

Heartbeat CPU 0 instructions: 60000002 cycles: 25742814 heartbeat IPC: 0.755151 cumulative IPC: 0.755151 (Simulation time: 0 hr 4 min 21 sec) 
Heartbeat CPU 0 instructions: 70000002 cycles: 39661254 heartbeat IPC: 0.718472 cumulative IPC: 0.736355 (Simulation time: 0 hr 5 min 25 sec) 
Heartbeat CPU 0 instructions: 80000001 cycles: 53125255 heartbeat IPC: 0.742722 cumulative IPC: 0.738465 (Simulation time: 0 hr 6 min 27 sec) 
Heartbeat CPU 0 instructions: 90000001 cycles: 66765652 heartbeat IPC: 0.733117 cumulative IPC: 0.737121 (Simulation time: 0 hr 7 min 30 sec) 
Heartbeat CPU 0 instructions: 100000003 cycles: 81246995 heartbeat IPC: 0.690544 cumulative IPC: 0.727309 (Simulation time: 0 hr 8 min 34 sec) 
*** Reached end of trace: /gpfs/projects/bsc18/MN4/bsc18/romol/ChampSim/traces/qualcomm_srv/srv283_ap.champsimtrace.xz
Heartbeat CPU 0 instructions: 110000001 cycles: 94665790 heartbeat IPC: 0.745224 cumulative IPC: 0.730235 (Simulation time: 0 hr 9 min 37 sec) 
Heartbeat CPU 0 instructions: 120000003 cycles: 108680757 heartbeat IPC: 0.713524 cumulative IPC: 0.7278 (Simulation time: 0 hr 10 min 40 sec) 
Heartbeat CPU 0 instructions: 130000000 cycles: 121958645 heartbeat IPC: 0.753132 cumulative IPC: 0.730873 (Simulation time: 0 hr 11 min 43 sec) 
Heartbeat CPU 0 instructions: 140000002 cycles: 135705504 heartbeat IPC: 0.72744 cumulative IPC: 0.73049 (Simulation time: 0 hr 12 min 46 sec) 
Heartbeat CPU 0 instructions: 150000000 cycles: 149809250 heartbeat IPC: 0.709032 cumulative IPC: 0.728286 (Simulation time: 0 hr 13 min 50 sec) 
Simulation finished CPU 0 instructions: 100000003 cycles: 137308832 cumulative IPC: 0.728286 (Simulation time: 0 hr 13 min 50 sec) 

Simulation complete CPU 0 instructions: 100000003 cycles: 137308832 (Simulation time: 0 hr 13 min 50 sec) 


ChampSim completed all CPUs

Saving instructions large page distribution to /home/bsc/bsc018186/scratch/itp_asplos25_AE/dump/srv283_ap.pdst...
Saving data large page distribution to /home/bsc/bsc018186/scratch/itp_asplos25_AE/dump/srv283_ap.pdst...
=== Simulation ===
CPU 0 runs /gpfs/projects/bsc18/MN4/bsc18/romol/ChampSim/traces/qualcomm_srv/srv283_ap.champsimtrace.xz

Region of Interest Statistics

CPU 0 cumulative IPC: 0.728286 instructions: 100000003 cycles: 137308832
CPU 0 Branch Prediction Accuracy: 83.4309% MPKI: 29.756 Average ROB Occupancy at Mispredict: 12.2355
Branch type MPKI
BRANCH_DIRECT_JUMP: 0.95326
BRANCH_INDIRECT: 15.4563
BRANCH_CONDITIONAL: 9.70477
BRANCH_DIRECT_CALL: 1.81618
BRANCH_INDIRECT_CALL: 0.49977
BRANCH_RETURN: 1.32578

Instructions large pages: 0
Instructions small pages: 955
Large page distribution for instructions: 0%

Data large pages: 0
Data small pages: 8856
Large page distribution for data: 0%

cpu0_L1I TOTAL       ACCESS:   35056777  HIT:   26564870  MISS:    8491907  iACCESS:   35056777  iHIT:   26564870  iMISS:    8491907  dACCESS:          0  dHIT:          0  dMISS:          0  itACCESS:          0  itHIT:          0  itMISS:          0  dtACCESS:          0  dtHIT:          0  dtMISS:          0
cpu0_L1I LOAD         ACCESS:   10204081  HIT:    7827950  MISS:    2376131  iACCESS:   10204081  iHIT:    7827950  iMISS:    2376131  dACCESS:          0  dHIT:          0  dMISS:          0  itACCESS:          0  itHIT:          0  itMISS:          0  dtACCESS:          0  dtHIT:          0  dtMISS:          0
cpu0_L1I RFO          ACCESS:          0  HIT:          0  MISS:          0  iACCESS:          0  iHIT:          0  iMISS:          0  dACCESS:          0  dHIT:          0  dMISS:          0  itACCESS:          0  itHIT:          0  itMISS:          0  dtACCESS:          0  dtHIT:          0  dtMISS:          0
cpu0_L1I PREFETCH     ACCESS:   24852696  HIT:   18736920  MISS:    6115776  iACCESS:   24852696  iHIT:   18736920  iMISS:    6115776  dACCESS:          0  dHIT:          0  dMISS:          0  itACCESS:          0  itHIT:          0  itMISS:          0  dtACCESS:          0  dtHIT:          0  dtMISS:          0
cpu0_L1I WRITE        ACCESS:          0  HIT:          0  MISS:          0  iACCESS:          0  iHIT:          0  iMISS:          0  dACCESS:          0  dHIT:          0  dMISS:          0  itACCESS:          0  itHIT:          0  itMISS:          0  dtACCESS:          0  dtHIT:          0  dtMISS:          0
cpu0_L1I TRANSLATION  ACCESS:          0  HIT:          0  MISS:          0  iACCESS:          0  iHIT:          0  iMISS:          0  dACCESS:          0  dHIT:          0  dMISS:          0  itACCESS:          0  itHIT:          0  itMISS:          0  dtACCESS:          0  dtHIT:          0  dtMISS:          0
cpu0_L1I PREFETCH  REQUESTED:   27100512  ISSUED:   27098943  CROSSED:          0  USEFUL:    1935072  USELESS:     637116
cpu0_L1I AVERAGE iMISS LATENCY: 13.0809 cycles
cpu0_L1I AVERAGE dMISS LATENCY: 0 cycles
cpu0_L1I AVERAGE itMISS LATENCY: 0 cycles
cpu0_L1I AVERAGE dtMISS LATENCY: 0 cycles
cpu0_L1I PAGE CROSSINGS (TLB HIT):         0 
cpu0_L1I PAGE CROSSINGS (TLB MISS):         0 
cpu0_L1I AVERAGE MISS LATENCY: 13.0809 cycles
cpu0_ITLB TOTAL       ACCESS:   29031417  HIT:   27047664  MISS:    1983753  iACCESS:   29031417  iHIT:   27047664  iMISS:    1983753  dACCESS:          0  dHIT:          0  dMISS:          0  itACCESS:          0  itHIT:          0  itMISS:          0  dtACCESS:          0  dtHIT:          0  dtMISS:          0
cpu0_ITLB LOAD         ACCESS:   29031417  HIT:   27047664  MISS:    1983753  iACCESS:   29031417  iHIT:   27047664  iMISS:    1983753  dACCESS:          0  dHIT:          0  dMISS:          0  itACCESS:          0  itHIT:          0  itMISS:          0  dtACCESS:          0  dtHIT:          0  dtMISS:          0
cpu0_ITLB RFO          ACCESS:          0  HIT:          0  MISS:          0  iACCESS:          0  iHIT:          0  iMISS:          0  dACCESS:          0  dHIT:          0  dMISS:          0  itACCESS:          0  itHIT:          0  itMISS:          0  dtACCESS:          0  dtHIT:          0  dtMISS:          0
cpu0_ITLB PREFETCH     ACCESS:          0  HIT:          0  MISS:          0  iACCESS:          0  iHIT:          0  iMISS:          0  dACCESS:          0  dHIT:          0  dMISS:          0  itACCESS:          0  itHIT:          0  itMISS:          0  dtACCESS:          0  dtHIT:          0  dtMISS:          0
cpu0_ITLB WRITE        ACCESS:          0  HIT:          0  MISS:          0  iACCESS:          0  iHIT:          0  iMISS:          0  dACCESS:          0  dHIT:          0  dMISS:          0  itACCESS:          0  itHIT:          0  itMISS:          0  dtACCESS:          0  dtHIT:          0  dtMISS:          0
cpu0_ITLB TRANSLATION  ACCESS:          0  HIT:          0  MISS:          0  iACCESS:          0  iHIT:          0  iMISS:          0  dACCESS:          0  dHIT:          0  dMISS:          0  itACCESS:          0  itHIT:          0  itMISS:          0  dtACCESS:          0  dtHIT:          0  dtMISS:          0
cpu0_ITLB PREFETCH  REQUESTED:          0  ISSUED:          0  CROSSED:          0  USEFUL:     325418  USELESS:      62881
cpu0_ITLB AVERAGE iMISS LATENCY: 1.80092 cycles
cpu0_ITLB AVERAGE dMISS LATENCY: 0 cycles
cpu0_ITLB AVERAGE itMISS LATENCY: 0 cycles
cpu0_ITLB AVERAGE dtMISS LATENCY: 0 cycles
cpu0_ITLB PAGE CROSSINGS (TLB HIT):         0 
cpu0_ITLB PAGE CROSSINGS (TLB MISS):         0 
cpu0_ITLB AVERAGE MISS LATENCY: 1.80092 cycles
cpu0_DTLB TOTAL       ACCESS:   27706098  HIT:   25863512  MISS:    1842586  iACCESS:          0  iHIT:          0  iMISS:          0  dACCESS:   27706098  dHIT:   25863512  dMISS:    1842586  itACCESS:          0  itHIT:          0  itMISS:          0  dtACCESS:          0  dtHIT:          0  dtMISS:          0
cpu0_DTLB LOAD         ACCESS:   27706098  HIT:   25863512  MISS:    1842586  iACCESS:          0  iHIT:          0  iMISS:          0  dACCESS:   27706098  dHIT:   25863512  dMISS:    1842586  itACCESS:          0  itHIT:          0  itMISS:          0  dtACCESS:          0  dtHIT:          0  dtMISS:          0
cpu0_DTLB RFO          ACCESS:          0  HIT:          0  MISS:          0  iACCESS:          0  iHIT:          0  iMISS:          0  dACCESS:          0  dHIT:          0  dMISS:          0  itACCESS:          0  itHIT:          0  itMISS:          0  dtACCESS:          0  dtHIT:          0  dtMISS:          0
cpu0_DTLB PREFETCH     ACCESS:          0  HIT:          0  MISS:          0  iACCESS:          0  iHIT:          0  iMISS:          0  dACCESS:          0  dHIT:          0  dMISS:          0  itACCESS:          0  itHIT:          0  itMISS:          0  dtACCESS:          0  dtHIT:          0  dtMISS:          0
cpu0_DTLB WRITE        ACCESS:          0  HIT:          0  MISS:          0  iACCESS:          0  iHIT:          0  iMISS:          0  dACCESS:          0  dHIT:          0  dMISS:          0  itACCESS:          0  itHIT:          0  itMISS:          0  dtACCESS:          0  dtHIT:          0  dtMISS:          0
cpu0_DTLB TRANSLATION  ACCESS:          0  HIT:          0  MISS:          0  iACCESS:          0  iHIT:          0  iMISS:          0  dACCESS:          0  dHIT:          0  dMISS:          0  itACCESS:          0  itHIT:          0  itMISS:          0  dtACCESS:          0  dtHIT:          0  dtMISS:          0
cpu0_DTLB PREFETCH  REQUESTED:          0  ISSUED:          0  CROSSED:          0  USEFUL:          0  USELESS:          0
cpu0_DTLB AVERAGE iMISS LATENCY: 0 cycles
cpu0_DTLB AVERAGE dMISS LATENCY: 11.3 cycles
cpu0_DTLB AVERAGE itMISS LATENCY: 0 cycles
cpu0_DTLB AVERAGE dtMISS LATENCY: 0 cycles
cpu0_DTLB PAGE CROSSINGS (TLB HIT):         0 
cpu0_DTLB PAGE CROSSINGS (TLB MISS):         0 
cpu0_DTLB AVERAGE MISS LATENCY: 11.3 cycles
cpu0_STLB TOTAL       ACCESS:    1514911  HIT:    1385679  MISS:     129232  iACCESS:     388325  iHIT:     382684  iMISS:       5641  dACCESS:    1126586  dHIT:    1002995  dMISS:     123591  itACCESS:          0  itHIT:          0  itMISS:          0  dtACCESS:          0  dtHIT:          0  dtMISS:          0
cpu0_STLB LOAD         ACCESS:    1514911  HIT:    1385679  MISS:     129232  iACCESS:     388325  iHIT:     382684  iMISS:       5641  dACCESS:    1126586  dHIT:    1002995  dMISS:     123591  itACCESS:          0  itHIT:          0  itMISS:          0  dtACCESS:          0  dtHIT:          0  dtMISS:          0
cpu0_STLB RFO          ACCESS:          0  HIT:          0  MISS:          0  iACCESS:          0  iHIT:          0  iMISS:          0  dACCESS:          0  dHIT:          0  dMISS:          0  itACCESS:          0  itHIT:          0  itMISS:          0  dtACCESS:          0  dtHIT:          0  dtMISS:          0
cpu0_STLB PREFETCH     ACCESS:          0  HIT:          0  MISS:          0  iACCESS:          0  iHIT:          0  iMISS:          0  dACCESS:          0  dHIT:          0  dMISS:          0  itACCESS:          0  itHIT:          0  itMISS:          0  dtACCESS:          0  dtHIT:          0  dtMISS:          0
cpu0_STLB WRITE        ACCESS:          0  HIT:          0  MISS:          0  iACCESS:          0  iHIT:          0  iMISS:          0  dACCESS:          0  dHIT:          0  dMISS:          0  itACCESS:          0  itHIT:          0  itMISS:          0  dtACCESS:          0  dtHIT:          0  dtMISS:          0
cpu0_STLB TRANSLATION  ACCESS:          0  HIT:          0  MISS:          0  iACCESS:          0  iHIT:          0  iMISS:          0  dACCESS:          0  dHIT:          0  dMISS:          0  itACCESS:          0  itHIT:          0  itMISS:          0  dtACCESS:          0  dtHIT:          0  dtMISS:          0
cpu0_STLB PREFETCH  REQUESTED:          0  ISSUED:          0  CROSSED:          0  USEFUL:          0  USELESS:          0
cpu0_STLB AVERAGE iMISS LATENCY: 4.37377 cycles
cpu0_STLB AVERAGE dMISS LATENCY: 91.4631 cycles
cpu0_STLB AVERAGE itMISS LATENCY: 0 cycles
cpu0_STLB AVERAGE dtMISS LATENCY: 0 cycles
cpu0_STLB PAGE CROSSINGS (TLB HIT):         0 
cpu0_STLB PAGE CROSSINGS (TLB MISS):         0 
cpu0_STLB AVERAGE MISS LATENCY: 95.8368 cycles
cpu0_L1D TOTAL       ACCESS:   41421606  HIT:   37943917  MISS:    3477689  iACCESS:          0  iHIT:          0  iMISS:          0  dACCESS:   41225753  dHIT:   37932173  dMISS:    3293580  itACCESS:       6830  itHIT:        587  itMISS:       6243  dtACCESS:     189023  dtHIT:      11157  dtMISS:     177866
cpu0_L1D LOAD         ACCESS:   18958549  HIT:   17456105  MISS:    1502444  iACCESS:          0  iHIT:          0  iMISS:          0  dACCESS:   18958549  dHIT:   17456105  dMISS:    1502444  itACCESS:          0  itHIT:          0  itMISS:          0  dtACCESS:          0  dtHIT:          0  dtMISS:          0
cpu0_L1D RFO          ACCESS:          0  HIT:          0  MISS:          0  iACCESS:          0  iHIT:          0  iMISS:          0  dACCESS:          0  dHIT:          0  dMISS:          0  itACCESS:          0  itHIT:          0  itMISS:          0  dtACCESS:          0  dtHIT:          0  dtMISS:          0
cpu0_L1D PREFETCH     ACCESS:   12133696  HIT:   10765951  MISS:    1367745  iACCESS:          0  iHIT:          0  iMISS:          0  dACCESS:   12133696  dHIT:   10765951  dMISS:    1367745  itACCESS:          0  itHIT:          0  itMISS:          0  dtACCESS:          0  dtHIT:          0  dtMISS:          0
cpu0_L1D WRITE        ACCESS:   10133508  HIT:    9710117  MISS:     423391  iACCESS:          0  iHIT:          0  iMISS:          0  dACCESS:   10133508  dHIT:    9710117  dMISS:     423391  itACCESS:          0  itHIT:          0  itMISS:          0  dtACCESS:          0  dtHIT:          0  dtMISS:          0
cpu0_L1D TRANSLATION  ACCESS:     195853  HIT:      11744  MISS:     184109  iACCESS:          0  iHIT:          0  iMISS:          0  dACCESS:          0  dHIT:          0  dMISS:          0  itACCESS:       6830  itHIT:        587  itMISS:       6243  dtACCESS:     189023  dtHIT:      11157  dtMISS:     177866
cpu0_L1D PREFETCH  REQUESTED:   18958549  ISSUED:   16926277  CROSSED:          0  USEFUL:     308983  USELESS:     702214
cpu0_L1D AVERAGE iMISS LATENCY: 0 cycles
cpu0_L1D AVERAGE dMISS LATENCY: 31.8808 cycles
cpu0_L1D AVERAGE itMISS LATENCY: 0.145343 cycles
cpu0_L1D AVERAGE dtMISS LATENCY: 2.69201 cycles
cpu0_L1D PAGE CROSSINGS (TLB HIT):         0 
cpu0_L1D PAGE CROSSINGS (TLB MISS):         0 
cpu0_L1D AVERAGE MISS LATENCY: 34.7181 cycles
cpu0_L2C TOTAL       ACCESS:    6979675  HIT:    1660597  MISS:    5319078  iACCESS:    3325578  iHIT:     852565  iMISS:    2473013  dACCESS:    3483448  dHIT:     714985  dMISS:    2768463  itACCESS:       6243  itHIT:       3001  itMISS:       3242  dtACCESS:     164406  dtHIT:      90046  dtMISS:      74360
cpu0_L2C LOAD         ACCESS:    1725983  HIT:     304481  MISS:    1421502  iACCESS:     793264  iHIT:     145022  iMISS:     648242  dACCESS:     932719  dHIT:     159459  dMISS:     773260  itACCESS:          0  itHIT:          0  itMISS:          0  dtACCESS:          0  dtHIT:          0  dtMISS:          0
cpu0_L2C RFO          ACCESS:     155507  HIT:      54059  MISS:     101448  iACCESS:          0  iHIT:          0  iMISS:          0  dACCESS:     155507  dHIT:      54059  dMISS:     101448  itACCESS:          0  itHIT:          0  itMISS:          0  dtACCESS:          0  dtHIT:          0  dtMISS:          0
cpu0_L2C PREFETCH     ACCESS:    4644605  HIT:    1068074  MISS:    3576531  iACCESS:    2532314  iHIT:     707543  iMISS:    1824771  dACCESS:    2112291  dHIT:     360531  dMISS:    1751760  itACCESS:          0  itHIT:          0  itMISS:          0  dtACCESS:          0  dtHIT:          0  dtMISS:          0
cpu0_L2C WRITE        ACCESS:     282931  HIT:     140936  MISS:     141995  iACCESS:          0  iHIT:          0  iMISS:          0  dACCESS:     282931  dHIT:     140936  dMISS:     141995  itACCESS:          0  itHIT:          0  itMISS:          0  dtACCESS:          0  dtHIT:          0  dtMISS:          0
cpu0_L2C TRANSLATION  ACCESS:     170649  HIT:      93047  MISS:      77602  iACCESS:          0  iHIT:          0  iMISS:          0  dACCESS:          0  dHIT:          0  dMISS:          0  itACCESS:       6243  itHIT:       3001  itMISS:       3242  dtACCESS:     164406  dtHIT:      90046  dtMISS:      74360
cpu0_L2C PREFETCH  REQUESTED:    1383375  ISSUED:    1383375  CROSSED:          0  USEFUL:     399424  USELESS:     382745
cpu0_L2C AVERAGE iMISS LATENCY: 15.0294 cycles
cpu0_L2C AVERAGE dMISS LATENCY: 24.0874 cycles
cpu0_L2C AVERAGE itMISS LATENCY: 0.0838332 cycles
cpu0_L2C AVERAGE dtMISS LATENCY: 1.46602 cycles
cpu0_L2C PAGE CROSSINGS (TLB HIT):         0 
cpu0_L2C PAGE CROSSINGS (TLB MISS):         0 
cpu0_L2C AVERAGE MISS LATENCY: 40.6666 cycles
LLC TOTAL       ACCESS:    5190398  HIT:    4427082  MISS:     763316  iACCESS:    2413913  iHIT:    2185391  iMISS:     228522  dACCESS:    2698883  dHIT:    2202204  dMISS:     496679  itACCESS:       3242  itHIT:       1072  itMISS:       2170  dtACCESS:      74360  dtHIT:      38415  dtMISS:      35945
LLC LOAD         ACCESS:    1419347  HIT:    1252866  MISS:     166481  iACCESS:     646467  iHIT:     596920  iMISS:      49547  dACCESS:     772880  dHIT:     655946  dMISS:     116934  itACCESS:          0  itHIT:          0  itMISS:          0  dtACCESS:          0  dtHIT:          0  dtMISS:          0
LLC RFO          ACCESS:     101439  HIT:      67668  MISS:      33771  iACCESS:          0  iHIT:          0  iMISS:          0  dACCESS:     101439  dHIT:      67668  dMISS:      33771  itACCESS:          0  itHIT:          0  itMISS:          0  dtACCESS:          0  dtHIT:          0  dtMISS:          0
LLC PREFETCH     ACCESS:    3465250  HIT:    2949197  MISS:     516053  iACCESS:    1767446  iHIT:    1588471  iMISS:     178975  dACCESS:    1697804  dHIT:    1360726  dMISS:     337078  itACCESS:          0  itHIT:          0  itMISS:          0  dtACCESS:          0  dtHIT:          0  dtMISS:          0
LLC WRITE        ACCESS:     126760  HIT:     117864  MISS:       8896  iACCESS:          0  iHIT:          0  iMISS:          0  dACCESS:     126760  dHIT:     117864  dMISS:       8896  itACCESS:          0  itHIT:          0  itMISS:          0  dtACCESS:          0  dtHIT:          0  dtMISS:          0
LLC TRANSLATION  ACCESS:      77602  HIT:      39487  MISS:      38115  iACCESS:          0  iHIT:          0  iMISS:          0  dACCESS:          0  dHIT:          0  dMISS:          0  itACCESS:       3242  itHIT:       1072  itMISS:       2170  dtACCESS:      74360  dtHIT:      38415  dtMISS:      35945
LLC PREFETCH  REQUESTED:          0  ISSUED:          0  CROSSED:          0  USEFUL:          0  USELESS:          0
LLC AVERAGE iMISS LATENCY: 43.7083 cycles
LLC AVERAGE dMISS LATENCY: 102.852 cycles
LLC AVERAGE itMISS LATENCY: 0.500876 cycles
LLC AVERAGE dtMISS LATENCY: 8.31845 cycles
LLC PAGE CROSSINGS (TLB HIT):         0 
LLC PAGE CROSSINGS (TLB MISS):         0 
LLC AVERAGE MISS LATENCY: 155.379 cycles

PageTableWalker TOTAL       ACCESS:      66325  
PageTableWalker AVERAGE LATENCY: 4.88405 cycles
PageTableWalker TOTAL LATENCY: 323934 cycles

DRAM Statistics
Channel 0
 RQ ROW_BUFFER_HIT:     215197
  ROW_BUFFER_MISS:     539180
 AVG DBUS CONGESTED CYCLE:    3.62864
 WQ ROW_BUFFER_HIT:      14194
  ROW_BUFFER_MISS:      20519  FULL:          0

