last_page:0x200000000000000
VMEM_RES_CAP:0x100000
PAGE_SIZE:4096
LOG2_PAGE_SIZE:12
LOG2_PAGE_TABLE_SIZE:9
page_table_levels:5
WARNING: physical memory size is smaller than virtual memory size
FDiP enabled with aggresivity 16

*** ChampSim Multicore Out-of-Order Simulator ***

Warmup Instructions: 50000000
Simulation Instructions: 100000000
Number of CPUs: 1
Small page size: 4096
Large page size: 2097152

CPU 0 Bimodal branch predictor
Basic BTB sets: 1024 ways: 8 indirect buffer size: 4096 RAS size: 64
Instruction page size distrubution: 0
Loading instruction page size distribution from /home/bsc/bsc018186/scratch/itp_asplos25_AE/dump/srv255_ap.pdst
Data page size distrubution: 0
Loading data page size distribution from /home/bsc/bsc018186/scratch/itp_asplos25_AE/dump/srv255_ap.pdst
cpu0_L2C IP-based stride prefetcher
cpu0_L1D next line prefetcher
cpu0_STLB using iTP with max lru@8
cpu0_STLB using iTP with instr@0 and data@2
Init sat counter with 3 bits (max:50).
cpu0_L1I next line prefetcher
Off-chip DRAM Size: 4 GiB Channels: 1 Width: 64-bit Data Rate: 3200 MT/s
Heartbeat CPU 0 instructions: 10000000 cycles: 2500133 heartbeat IPC: 3.99979 cumulative IPC: 3.99979 (Simulation time: 0 hr 0 min 37 sec) 
Heartbeat CPU 0 instructions: 20000001 cycles: 5000157 heartbeat IPC: 3.99997 cumulative IPC: 3.99988 (Simulation time: 0 hr 1 min 16 sec) 
Heartbeat CPU 0 instructions: 30000003 cycles: 7500161 heartbeat IPC: 4 cumulative IPC: 3.99992 (Simulation time: 0 hr 1 min 56 sec) 
Heartbeat CPU 0 instructions: 40000000 cycles: 10000161 heartbeat IPC: 4 cumulative IPC: 3.99994 (Simulation time: 0 hr 2 min 36 sec) 
Heartbeat CPU 0 instructions: 50000003 cycles: 12500217 heartbeat IPC: 3.99992 cumulative IPC: 3.99994 (Simulation time: 0 hr 3 min 17 sec) 
Warmup finished CPU 0 instructions: 50000003 cycles: 12500218 cumulative IPC: 3.99994 (Simulation time: 0 hr 3 min 17 sec) 

Warmup complete CPU 0 instructions: 50000003 cycles: 12500218 (Simulation time: 0 hr 3 min 17 sec) 

Heartbeat CPU 0 instructions: 60000000 cycles: 32399517 heartbeat IPC: 0.502531 cumulative IPC: 0.502531 (Simulation time: 0 hr 4 min 29 sec) 
Heartbeat CPU 0 instructions: 70000000 cycles: 51621700 heartbeat IPC: 0.520233 cumulative IPC: 0.511229 (Simulation time: 0 hr 5 min 41 sec) 
Heartbeat CPU 0 instructions: 80000001 cycles: 71810157 heartbeat IPC: 0.495333 cumulative IPC: 0.505818 (Simulation time: 0 hr 6 min 54 sec) 
Heartbeat CPU 0 instructions: 90000002 cycles: 91881426 heartbeat IPC: 0.498225 cumulative IPC: 0.503898 (Simulation time: 0 hr 8 min 5 sec) 
Heartbeat CPU 0 instructions: 100000001 cycles: 111323519 heartbeat IPC: 0.514348 cumulative IPC: 0.505954 (Simulation time: 0 hr 9 min 16 sec) 
*** Reached end of trace: /gpfs/projects/bsc18/MN4/bsc18/romol/ChampSim/traces/qualcomm_srv/srv255_ap.champsimtrace.xz
Heartbeat CPU 0 instructions: 110000003 cycles: 131794134 heartbeat IPC: 0.488506 cumulative IPC: 0.50296 (Simulation time: 0 hr 10 min 28 sec) 
Heartbeat CPU 0 instructions: 120000002 cycles: 151588327 heartbeat IPC: 0.505199 cumulative IPC: 0.503279 (Simulation time: 0 hr 11 min 39 sec) 
Heartbeat CPU 0 instructions: 130000003 cycles: 171131005 heartbeat IPC: 0.511701 cumulative IPC: 0.504316 (Simulation time: 0 hr 12 min 52 sec) 
Heartbeat CPU 0 instructions: 140000002 cycles: 190921163 heartbeat IPC: 0.505302 cumulative IPC: 0.504426 (Simulation time: 0 hr 14 min 4 sec) 
Heartbeat CPU 0 instructions: 150000000 cycles: 210353344 heartbeat IPC: 0.514611 cumulative IPC: 0.505426 (Simulation time: 0 hr 15 min 16 sec) 
Simulation finished CPU 0 instructions: 100000000 cycles: 197853324 cumulative IPC: 0.505425 (Simulation time: 0 hr 15 min 16 sec) 

Simulation complete CPU 0 instructions: 100000000 cycles: 197853324 (Simulation time: 0 hr 15 min 16 sec) 


ChampSim completed all CPUs

Saving instructions large page distribution to /home/bsc/bsc018186/scratch/itp_asplos25_AE/dump/srv255_ap.pdst...
Saving data large page distribution to /home/bsc/bsc018186/scratch/itp_asplos25_AE/dump/srv255_ap.pdst...
=== Simulation ===
CPU 0 runs /gpfs/projects/bsc18/MN4/bsc18/romol/ChampSim/traces/qualcomm_srv/srv255_ap.champsimtrace.xz

Region of Interest Statistics

CPU 0 cumulative IPC: 0.505425 instructions: 100000000 cycles: 197853324
CPU 0 Branch Prediction Accuracy: 80.5354% MPKI: 35.1582 Average ROB Occupancy at Mispredict: 10.9597
Branch type MPKI
BRANCH_DIRECT_JUMP: 1.2894
BRANCH_INDIRECT: 17.6229
BRANCH_CONDITIONAL: 11.4115
BRANCH_DIRECT_CALL: 2.42672
BRANCH_INDIRECT_CALL: 0.697521
BRANCH_RETURN: 1.71029

Instructions large pages: 0
Instructions small pages: 5597
Large page distribution for instructions: 0%

Data large pages: 0
Data small pages: 4546
Large page distribution for data: 0%

cpu0_L1I TOTAL       ACCESS:   35313071  HIT:   27439857  MISS:    7873214  iACCESS:   35313071  iHIT:   27439857  iMISS:    7873214  dACCESS:          0  dHIT:          0  dMISS:          0  itACCESS:          0  itHIT:          0  itMISS:          0  dtACCESS:          0  dtHIT:          0  dtMISS:          0
cpu0_L1I LOAD         ACCESS:   10178738  HIT:    8009875  MISS:    2168863  iACCESS:   10178738  iHIT:    8009875  iMISS:    2168863  dACCESS:          0  dHIT:          0  dMISS:          0  itACCESS:          0  itHIT:          0  itMISS:          0  dtACCESS:          0  dtHIT:          0  dtMISS:          0
cpu0_L1I RFO          ACCESS:          0  HIT:          0  MISS:          0  iACCESS:          0  iHIT:          0  iMISS:          0  dACCESS:          0  dHIT:          0  dMISS:          0  itACCESS:          0  itHIT:          0  itMISS:          0  dtACCESS:          0  dtHIT:          0  dtMISS:          0
cpu0_L1I PREFETCH     ACCESS:   25134333  HIT:   19429982  MISS:    5704351  iACCESS:   25134333  iHIT:   19429982  iMISS:    5704351  dACCESS:          0  dHIT:          0  dMISS:          0  itACCESS:          0  itHIT:          0  itMISS:          0  dtACCESS:          0  dtHIT:          0  dtMISS:          0
cpu0_L1I WRITE        ACCESS:          0  HIT:          0  MISS:          0  iACCESS:          0  iHIT:          0  iMISS:          0  dACCESS:          0  dHIT:          0  dMISS:          0  itACCESS:          0  itHIT:          0  itMISS:          0  dtACCESS:          0  dtHIT:          0  dtMISS:          0
cpu0_L1I TRANSLATION  ACCESS:          0  HIT:          0  MISS:          0  iACCESS:          0  iHIT:          0  iMISS:          0  dACCESS:          0  dHIT:          0  dMISS:          0  itACCESS:          0  itHIT:          0  itMISS:          0  dtACCESS:          0  dtHIT:          0  dtMISS:          0
cpu0_L1I PREFETCH  REQUESTED:   27531577  ISSUED:   27531577  CROSSED:          0  USEFUL:    1966008  USELESS:     658569
cpu0_L1I AVERAGE iMISS LATENCY: 18.8625 cycles
cpu0_L1I AVERAGE dMISS LATENCY: 0 cycles
cpu0_L1I AVERAGE itMISS LATENCY: 0 cycles
cpu0_L1I AVERAGE dtMISS LATENCY: 0 cycles
cpu0_L1I PAGE CROSSINGS (TLB HIT):         0 
cpu0_L1I PAGE CROSSINGS (TLB MISS):         0 
cpu0_L1I AVERAGE MISS LATENCY: 18.8625 cycles
cpu0_ITLB TOTAL       ACCESS:   29792394  HIT:   27835596  MISS:    1956798  iACCESS:   29792394  iHIT:   27835596  iMISS:    1956798  dACCESS:          0  dHIT:          0  dMISS:          0  itACCESS:          0  itHIT:          0  itMISS:          0  dtACCESS:          0  dtHIT:          0  dtMISS:          0
cpu0_ITLB LOAD         ACCESS:   29792394  HIT:   27835596  MISS:    1956798  iACCESS:   29792394  iHIT:   27835596  iMISS:    1956798  dACCESS:          0  dHIT:          0  dMISS:          0  itACCESS:          0  itHIT:          0  itMISS:          0  dtACCESS:          0  dtHIT:          0  dtMISS:          0
cpu0_ITLB RFO          ACCESS:          0  HIT:          0  MISS:          0  iACCESS:          0  iHIT:          0  iMISS:          0  dACCESS:          0  dHIT:          0  dMISS:          0  itACCESS:          0  itHIT:          0  itMISS:          0  dtACCESS:          0  dtHIT:          0  dtMISS:          0
cpu0_ITLB PREFETCH     ACCESS:          0  HIT:          0  MISS:          0  iACCESS:          0  iHIT:          0  iMISS:          0  dACCESS:          0  dHIT:          0  dMISS:          0  itACCESS:          0  itHIT:          0  itMISS:          0  dtACCESS:          0  dtHIT:          0  dtMISS:          0
cpu0_ITLB WRITE        ACCESS:          0  HIT:          0  MISS:          0  iACCESS:          0  iHIT:          0  iMISS:          0  dACCESS:          0  dHIT:          0  dMISS:          0  itACCESS:          0  itHIT:          0  itMISS:          0  dtACCESS:          0  dtHIT:          0  dtMISS:          0
cpu0_ITLB TRANSLATION  ACCESS:          0  HIT:          0  MISS:          0  iACCESS:          0  iHIT:          0  iMISS:          0  dACCESS:          0  dHIT:          0  dMISS:          0  itACCESS:          0  itHIT:          0  itMISS:          0  dtACCESS:          0  dtHIT:          0  dtMISS:          0
cpu0_ITLB PREFETCH  REQUESTED:          0  ISSUED:          0  CROSSED:          0  USEFUL:     329722  USELESS:      63015
cpu0_ITLB AVERAGE iMISS LATENCY: 3.38911 cycles
cpu0_ITLB AVERAGE dMISS LATENCY: 0 cycles
cpu0_ITLB AVERAGE itMISS LATENCY: 0 cycles
cpu0_ITLB AVERAGE dtMISS LATENCY: 0 cycles
cpu0_ITLB PAGE CROSSINGS (TLB HIT):         0 
cpu0_ITLB PAGE CROSSINGS (TLB MISS):         0 
cpu0_ITLB AVERAGE MISS LATENCY: 3.38911 cycles
cpu0_DTLB TOTAL       ACCESS:   27976004  HIT:   26024802  MISS:    1951202  iACCESS:          0  iHIT:          0  iMISS:          0  dACCESS:   27976004  dHIT:   26024802  dMISS:    1951202  itACCESS:          0  itHIT:          0  itMISS:          0  dtACCESS:          0  dtHIT:          0  dtMISS:          0
cpu0_DTLB LOAD         ACCESS:   27976004  HIT:   26024802  MISS:    1951202  iACCESS:          0  iHIT:          0  iMISS:          0  dACCESS:   27976004  dHIT:   26024802  dMISS:    1951202  itACCESS:          0  itHIT:          0  itMISS:          0  dtACCESS:          0  dtHIT:          0  dtMISS:          0
cpu0_DTLB RFO          ACCESS:          0  HIT:          0  MISS:          0  iACCESS:          0  iHIT:          0  iMISS:          0  dACCESS:          0  dHIT:          0  dMISS:          0  itACCESS:          0  itHIT:          0  itMISS:          0  dtACCESS:          0  dtHIT:          0  dtMISS:          0
cpu0_DTLB PREFETCH     ACCESS:          0  HIT:          0  MISS:          0  iACCESS:          0  iHIT:          0  iMISS:          0  dACCESS:          0  dHIT:          0  dMISS:          0  itACCESS:          0  itHIT:          0  itMISS:          0  dtACCESS:          0  dtHIT:          0  dtMISS:          0
cpu0_DTLB WRITE        ACCESS:          0  HIT:          0  MISS:          0  iACCESS:          0  iHIT:          0  iMISS:          0  dACCESS:          0  dHIT:          0  dMISS:          0  itACCESS:          0  itHIT:          0  itMISS:          0  dtACCESS:          0  dtHIT:          0  dtMISS:          0
cpu0_DTLB TRANSLATION  ACCESS:          0  HIT:          0  MISS:          0  iACCESS:          0  iHIT:          0  iMISS:          0  dACCESS:          0  dHIT:          0  dMISS:          0  itACCESS:          0  itHIT:          0  itMISS:          0  dtACCESS:          0  dtHIT:          0  dtMISS:          0
cpu0_DTLB PREFETCH  REQUESTED:          0  ISSUED:          0  CROSSED:          0  USEFUL:          0  USELESS:          0
cpu0_DTLB AVERAGE iMISS LATENCY: 0 cycles
cpu0_DTLB AVERAGE dMISS LATENCY: 23.1972 cycles
cpu0_DTLB AVERAGE itMISS LATENCY: 0 cycles
cpu0_DTLB AVERAGE dtMISS LATENCY: 0 cycles
cpu0_DTLB PAGE CROSSINGS (TLB HIT):         0 
cpu0_DTLB PAGE CROSSINGS (TLB MISS):         0 
cpu0_DTLB AVERAGE MISS LATENCY: 23.1972 cycles
cpu0_STLB TOTAL       ACCESS:    1603788  HIT:    1399055  MISS:     204733  iACCESS:     392737  iHIT:     371578  iMISS:      21159  dACCESS:    1211051  dHIT:    1027477  dMISS:     183574  itACCESS:          0  itHIT:          0  itMISS:          0  dtACCESS:          0  dtHIT:          0  dtMISS:          0
cpu0_STLB LOAD         ACCESS:    1603788  HIT:    1399055  MISS:     204733  iACCESS:     392737  iHIT:     371578  iMISS:      21159  dACCESS:    1211051  dHIT:    1027477  dMISS:     183574  itACCESS:          0  itHIT:          0  itMISS:          0  dtACCESS:          0  dtHIT:          0  dtMISS:          0
cpu0_STLB RFO          ACCESS:          0  HIT:          0  MISS:          0  iACCESS:          0  iHIT:          0  iMISS:          0  dACCESS:          0  dHIT:          0  dMISS:          0  itACCESS:          0  itHIT:          0  itMISS:          0  dtACCESS:          0  dtHIT:          0  dtMISS:          0
cpu0_STLB PREFETCH     ACCESS:          0  HIT:          0  MISS:          0  iACCESS:          0  iHIT:          0  iMISS:          0  dACCESS:          0  dHIT:          0  dMISS:          0  itACCESS:          0  itHIT:          0  itMISS:          0  dtACCESS:          0  dtHIT:          0  dtMISS:          0
cpu0_STLB WRITE        ACCESS:          0  HIT:          0  MISS:          0  iACCESS:          0  iHIT:          0  iMISS:          0  dACCESS:          0  dHIT:          0  dMISS:          0  itACCESS:          0  itHIT:          0  itMISS:          0  dtACCESS:          0  dtHIT:          0  dtMISS:          0
cpu0_STLB TRANSLATION  ACCESS:          0  HIT:          0  MISS:          0  iACCESS:          0  iHIT:          0  iMISS:          0  dACCESS:          0  dHIT:          0  dMISS:          0  itACCESS:          0  itHIT:          0  itMISS:          0  dtACCESS:          0  dtHIT:          0  dtMISS:          0
cpu0_STLB PREFETCH  REQUESTED:          0  ISSUED:          0  CROSSED:          0  USEFUL:          0  USELESS:          0
cpu0_STLB AVERAGE iMISS LATENCY: 17.4318 cycles
cpu0_STLB AVERAGE dMISS LATENCY: 173.544 cycles
cpu0_STLB AVERAGE itMISS LATENCY: 0 cycles
cpu0_STLB AVERAGE dtMISS LATENCY: 0 cycles
cpu0_STLB PAGE CROSSINGS (TLB HIT):         0 
cpu0_STLB PAGE CROSSINGS (TLB MISS):         0 
cpu0_STLB AVERAGE MISS LATENCY: 190.976 cycles
cpu0_L1D TOTAL       ACCESS:   42528371  HIT:   38426388  MISS:    4101983  iACCESS:          0  iHIT:          0  iMISS:          0  dACCESS:   42251630  dHIT:   38409242  dMISS:    3842388  itACCESS:      24107  itHIT:       2038  itMISS:      22069  dtACCESS:     252634  dtHIT:      15108  dtMISS:     237526
cpu0_L1D LOAD         ACCESS:   19343722  HIT:   17591289  MISS:    1752433  iACCESS:          0  iHIT:          0  iMISS:          0  dACCESS:   19343722  dHIT:   17591289  dMISS:    1752433  itACCESS:          0  itHIT:          0  itMISS:          0  dtACCESS:          0  dtHIT:          0  dtMISS:          0
cpu0_L1D RFO          ACCESS:          0  HIT:          0  MISS:          0  iACCESS:          0  iHIT:          0  iMISS:          0  dACCESS:          0  dHIT:          0  dMISS:          0  itACCESS:          0  itHIT:          0  itMISS:          0  dtACCESS:          0  dtHIT:          0  dtMISS:          0
cpu0_L1D PREFETCH     ACCESS:   12716054  HIT:   11108562  MISS:    1607492  iACCESS:          0  iHIT:          0  iMISS:          0  dACCESS:   12716054  dHIT:   11108562  dMISS:    1607492  itACCESS:          0  itHIT:          0  itMISS:          0  dtACCESS:          0  dtHIT:          0  dtMISS:          0
cpu0_L1D WRITE        ACCESS:   10191854  HIT:    9709391  MISS:     482463  iACCESS:          0  iHIT:          0  iMISS:          0  dACCESS:   10191854  dHIT:    9709391  dMISS:     482463  itACCESS:          0  itHIT:          0  itMISS:          0  dtACCESS:          0  dtHIT:          0  dtMISS:          0
cpu0_L1D TRANSLATION  ACCESS:     276741  HIT:      17146  MISS:     259595  iACCESS:          0  iHIT:          0  iMISS:          0  dACCESS:          0  dHIT:          0  dMISS:          0  itACCESS:      24107  itHIT:       2038  itMISS:      22069  dtACCESS:     252634  dtHIT:      15108  dtMISS:     237526
cpu0_L1D PREFETCH  REQUESTED:   19343722  ISSUED:   17235377  CROSSED:          0  USEFUL:     306425  USELESS:     698672
cpu0_L1D AVERAGE iMISS LATENCY: 0 cycles
cpu0_L1D AVERAGE dMISS LATENCY: 39.1625 cycles
cpu0_L1D AVERAGE itMISS LATENCY: 0.819274 cycles
cpu0_L1D AVERAGE dtMISS LATENCY: 8.07625 cycles
cpu0_L1D PAGE CROSSINGS (TLB HIT):         0 
cpu0_L1D PAGE CROSSINGS (TLB MISS):         0 
cpu0_L1D AVERAGE MISS LATENCY: 48.058 cycles
cpu0_L2C TOTAL       ACCESS:    7229077  HIT:    3751346  MISS:    3477731  iACCESS:    3363197  iHIT:    2059831  iMISS:    1303366  dACCESS:    3612725  dHIT:    1650201  dMISS:    1962524  itACCESS:      22069  itHIT:       3434  itMISS:      18635  dtACCESS:     231086  dtHIT:      37880  dtMISS:     193206
cpu0_L2C LOAD         ACCESS:    1720105  HIT:     927288  MISS:     792817  iACCESS:     775957  iHIT:     503373  iMISS:     272584  dACCESS:     944148  dHIT:     423915  dMISS:     520233  itACCESS:          0  itHIT:          0  itMISS:          0  dtACCESS:          0  dtHIT:          0  dtMISS:          0
cpu0_L2C RFO          ACCESS:     164126  HIT:      63661  MISS:     100465  iACCESS:          0  iHIT:          0  iMISS:          0  dACCESS:     164126  dHIT:      63661  dMISS:     100465  itACCESS:          0  itHIT:          0  itMISS:          0  dtACCESS:          0  dtHIT:          0  dtMISS:          0
cpu0_L2C PREFETCH     ACCESS:    4818302  HIT:    2446643  MISS:    2371659  iACCESS:    2587240  iHIT:    1556458  iMISS:    1030782  dACCESS:    2231062  dHIT:     890185  dMISS:    1340877  itACCESS:          0  itHIT:          0  itMISS:          0  dtACCESS:          0  dtHIT:          0  dtMISS:          0
cpu0_L2C WRITE        ACCESS:     273389  HIT:     272440  MISS:        949  iACCESS:          0  iHIT:          0  iMISS:          0  dACCESS:     273389  dHIT:     272440  dMISS:        949  itACCESS:          0  itHIT:          0  itMISS:          0  dtACCESS:          0  dtHIT:          0  dtMISS:          0
cpu0_L2C TRANSLATION  ACCESS:     253155  HIT:      41314  MISS:     211841  iACCESS:          0  iHIT:          0  iMISS:          0  dACCESS:          0  dHIT:          0  dMISS:          0  itACCESS:      22069  itHIT:       3434  itMISS:      18635  dtACCESS:     231086  dtHIT:      37880  dtMISS:     193206
cpu0_L2C PREFETCH  REQUESTED:    1482853  ISSUED:    1482853  CROSSED:          0  USEFUL:     346658  USELESS:     293106
cpu0_L2C AVERAGE iMISS LATENCY: 34.1937 cycles
cpu0_L2C AVERAGE dMISS LATENCY: 59.0758 cycles
cpu0_L2C AVERAGE itMISS LATENCY: 0.90362 cycles
cpu0_L2C AVERAGE dtMISS LATENCY: 8.86842 cycles
cpu0_L2C PAGE CROSSINGS (TLB HIT):         0 
cpu0_L2C PAGE CROSSINGS (TLB MISS):         0 
cpu0_L2C AVERAGE MISS LATENCY: 103.042 cycles
LLC TOTAL       ACCESS:    3438117  HIT:    1579060  MISS:    1859057  iACCESS:    1226601  iHIT:     582830  iMISS:     643771  dACCESS:    1999675  dHIT:     945584  dMISS:    1054091  itACCESS:      18635  itHIT:       2929  itMISS:      15706  dtACCESS:     193206  dtHIT:      47717  dtMISS:     145489
LLC LOAD         ACCESS:     787101  HIT:     384498  MISS:     402603  iACCESS:     271331  iHIT:     135178  iMISS:     136153  dACCESS:     515770  dHIT:     249320  dMISS:     266450  itACCESS:          0  itHIT:          0  itMISS:          0  dtACCESS:          0  dtHIT:          0  dtMISS:          0
LLC RFO          ACCESS:     100456  HIT:      37839  MISS:      62617  iACCESS:          0  iHIT:          0  iMISS:          0  dACCESS:     100456  dHIT:      37839  dMISS:      62617  itACCESS:          0  itHIT:          0  itMISS:          0  dtACCESS:          0  dtHIT:          0  dtMISS:          0
LLC PREFETCH     ACCESS:    2195320  HIT:     971429  MISS:    1223891  iACCESS:     955270  iHIT:     447652  iMISS:     507618  dACCESS:    1240050  dHIT:     523777  dMISS:     716273  itACCESS:          0  itHIT:          0  itMISS:          0  dtACCESS:          0  dtHIT:          0  dtMISS:          0
LLC WRITE        ACCESS:     143399  HIT:     134648  MISS:       8751  iACCESS:          0  iHIT:          0  iMISS:          0  dACCESS:     143399  dHIT:     134648  dMISS:       8751  itACCESS:          0  itHIT:          0  itMISS:          0  dtACCESS:          0  dtHIT:          0  dtMISS:          0
LLC TRANSLATION  ACCESS:     211841  HIT:      50646  MISS:     161195  iACCESS:          0  iHIT:          0  iMISS:          0  dACCESS:          0  dHIT:          0  dMISS:          0  itACCESS:      18635  itHIT:       2929  itMISS:      15706  dtACCESS:     193206  dtHIT:      47717  dtMISS:     145489
LLC PREFETCH  REQUESTED:          0  ISSUED:          0  CROSSED:          0  USEFUL:          0  USELESS:          0
LLC AVERAGE iMISS LATENCY: 51.0678 cycles
LLC AVERAGE dMISS LATENCY: 91.7955 cycles
LLC AVERAGE itMISS LATENCY: 1.49233 cycles
LLC AVERAGE dtMISS LATENCY: 14.546 cycles
LLC PAGE CROSSINGS (TLB HIT):         0 
LLC PAGE CROSSINGS (TLB MISS):         0 
LLC AVERAGE MISS LATENCY: 158.902 cycles

PageTableWalker TOTAL       ACCESS:      98483  
PageTableWalker AVERAGE LATENCY: 5.34342 cycles
PageTableWalker TOTAL LATENCY: 526236 cycles

DRAM Statistics
Channel 0
 RQ ROW_BUFFER_HIT:     529101
  ROW_BUFFER_MISS:    1307672
 AVG DBUS CONGESTED CYCLE:    3.63153
 WQ ROW_BUFFER_HIT:      36101
  ROW_BUFFER_MISS:      25559  FULL:          0

