last_page:0x200000000000000
VMEM_RES_CAP:0x100000
PAGE_SIZE:4096
LOG2_PAGE_SIZE:12
LOG2_PAGE_TABLE_SIZE:9
page_table_levels:5
WARNING: physical memory size is smaller than virtual memory size
FDiP enabled with aggresivity 16

*** ChampSim Multicore Out-of-Order Simulator ***

Warmup Instructions: 50000000
Simulation Instructions: 100000000
Number of CPUs: 1
Small page size: 4096
Large page size: 2097152

CPU 0 Bimodal branch predictor
Basic BTB sets: 1024 ways: 8 indirect buffer size: 4096 RAS size: 64
Instruction page size distrubution: 0
Loading instruction page size distribution from /home/bsc/bsc018186/scratch/itp_asplos25_AE/dump/srv298_ap.pdst
Data page size distrubution: 0
Loading data page size distribution from /home/bsc/bsc018186/scratch/itp_asplos25_AE/dump/srv298_ap.pdst
cpu0_L2C IP-based stride prefetcher
cpu0_L1D next line prefetcher
CHiRPing...
cpu0_L1I next line prefetcher
Off-chip DRAM Size: 4 GiB Channels: 1 Width: 64-bit Data Rate: 3200 MT/s
Heartbeat CPU 0 instructions: 10000003 cycles: 2500203 heartbeat IPC: 3.99968 cumulative IPC: 3.99968 (Simulation time: 0 hr 0 min 38 sec) 
Heartbeat CPU 0 instructions: 20000003 cycles: 5000203 heartbeat IPC: 4 cumulative IPC: 3.99984 (Simulation time: 0 hr 1 min 18 sec) 
Heartbeat CPU 0 instructions: 30000001 cycles: 7500307 heartbeat IPC: 3.99984 cumulative IPC: 3.99984 (Simulation time: 0 hr 1 min 58 sec) 
Heartbeat CPU 0 instructions: 40000002 cycles: 10000354 heartbeat IPC: 3.99993 cumulative IPC: 3.99986 (Simulation time: 0 hr 2 min 39 sec) 
Heartbeat CPU 0 instructions: 50000001 cycles: 12500429 heartbeat IPC: 3.99988 cumulative IPC: 3.99987 (Simulation time: 0 hr 3 min 21 sec) 
Warmup finished CPU 0 instructions: 50000001 cycles: 12500430 cumulative IPC: 3.99987 (Simulation time: 0 hr 3 min 21 sec) 

Warmup complete CPU 0 instructions: 50000001 cycles: 12500430 (Simulation time: 0 hr 3 min 21 sec) 

Heartbeat CPU 0 instructions: 60000001 cycles: 26624485 heartbeat IPC: 0.708012 cumulative IPC: 0.708012 (Simulation time: 0 hr 4 min 25 sec) 
Heartbeat CPU 0 instructions: 70000000 cycles: 41238499 heartbeat IPC: 0.684275 cumulative IPC: 0.695941 (Simulation time: 0 hr 5 min 30 sec) 
Heartbeat CPU 0 instructions: 80000000 cycles: 55627718 heartbeat IPC: 0.694965 cumulative IPC: 0.695616 (Simulation time: 0 hr 6 min 35 sec) 
Heartbeat CPU 0 instructions: 90000001 cycles: 69717570 heartbeat IPC: 0.709731 cumulative IPC: 0.699092 (Simulation time: 0 hr 7 min 39 sec) 
Heartbeat CPU 0 instructions: 100000001 cycles: 84050715 heartbeat IPC: 0.697684 cumulative IPC: 0.69881 (Simulation time: 0 hr 8 min 45 sec) 
*** Reached end of trace: /gpfs/projects/bsc18/MN4/bsc18/romol/ChampSim/traces/qualcomm_srv/srv298_ap.champsimtrace.xz
Heartbeat CPU 0 instructions: 110000004 cycles: 97283496 heartbeat IPC: 0.7557 cumulative IPC: 0.707689 (Simulation time: 0 hr 9 min 49 sec) 
Heartbeat CPU 0 instructions: 120000001 cycles: 110729871 heartbeat IPC: 0.743695 cumulative IPC: 0.712618 (Simulation time: 0 hr 10 min 53 sec) 
Heartbeat CPU 0 instructions: 130000001 cycles: 124357971 heartbeat IPC: 0.733779 cumulative IPC: 0.715196 (Simulation time: 0 hr 11 min 57 sec) 
Heartbeat CPU 0 instructions: 140000002 cycles: 137312889 heartbeat IPC: 0.771908 cumulative IPC: 0.721082 (Simulation time: 0 hr 13 min 0 sec) 
Heartbeat CPU 0 instructions: 150000001 cycles: 151149269 heartbeat IPC: 0.722733 cumulative IPC: 0.721247 (Simulation time: 0 hr 14 min 5 sec) 
Simulation finished CPU 0 instructions: 100000000 cycles: 138648840 cumulative IPC: 0.721247 (Simulation time: 0 hr 14 min 5 sec) 

Simulation complete CPU 0 instructions: 100000000 cycles: 138648840 (Simulation time: 0 hr 14 min 5 sec) 


ChampSim completed all CPUs

Saving instructions large page distribution to /home/bsc/bsc018186/scratch/itp_asplos25_AE/dump/srv298_ap.pdst...
Saving data large page distribution to /home/bsc/bsc018186/scratch/itp_asplos25_AE/dump/srv298_ap.pdst...
=== Simulation ===
CPU 0 runs /gpfs/projects/bsc18/MN4/bsc18/romol/ChampSim/traces/qualcomm_srv/srv298_ap.champsimtrace.xz

Region of Interest Statistics

CPU 0 cumulative IPC: 0.721247 instructions: 100000000 cycles: 138648840
CPU 0 Branch Prediction Accuracy: 83.4862% MPKI: 29.6736 Average ROB Occupancy at Mispredict: 12.439
Branch type MPKI
BRANCH_DIRECT_JUMP: 0.946291
BRANCH_INDIRECT: 15.4325
BRANCH_CONDITIONAL: 9.67881
BRANCH_DIRECT_CALL: 1.80803
BRANCH_INDIRECT_CALL: 0.493941
BRANCH_RETURN: 1.31406

Instructions large pages: 0
Instructions small pages: 930
Large page distribution for instructions: 0%

Data large pages: 0
Data small pages: 9137
Large page distribution for data: 0%

cpu0_L1I TOTAL       ACCESS:   35017173  HIT:   26535924  MISS:    8481249  iACCESS:   35017173  iHIT:   26535924  iMISS:    8481249  dACCESS:          0  dHIT:          0  dMISS:          0  itACCESS:          0  itHIT:          0  itMISS:          0  dtACCESS:          0  dtHIT:          0  dtMISS:          0
cpu0_L1I LOAD         ACCESS:   10196171  HIT:    7821303  MISS:    2374868  iACCESS:   10196171  iHIT:    7821303  iMISS:    2374868  dACCESS:          0  dHIT:          0  dMISS:          0  itACCESS:          0  itHIT:          0  itMISS:          0  dtACCESS:          0  dtHIT:          0  dtMISS:          0
cpu0_L1I RFO          ACCESS:          0  HIT:          0  MISS:          0  iACCESS:          0  iHIT:          0  iMISS:          0  dACCESS:          0  dHIT:          0  dMISS:          0  itACCESS:          0  itHIT:          0  itMISS:          0  dtACCESS:          0  dtHIT:          0  dtMISS:          0
cpu0_L1I PREFETCH     ACCESS:   24821002  HIT:   18714621  MISS:    6106381  iACCESS:   24821002  iHIT:   18714621  iMISS:    6106381  dACCESS:          0  dHIT:          0  dMISS:          0  itACCESS:          0  itHIT:          0  itMISS:          0  dtACCESS:          0  dtHIT:          0  dtMISS:          0
cpu0_L1I WRITE        ACCESS:          0  HIT:          0  MISS:          0  iACCESS:          0  iHIT:          0  iMISS:          0  dACCESS:          0  dHIT:          0  dMISS:          0  itACCESS:          0  itHIT:          0  itMISS:          0  dtACCESS:          0  dtHIT:          0  dtMISS:          0
cpu0_L1I TRANSLATION  ACCESS:          0  HIT:          0  MISS:          0  iACCESS:          0  iHIT:          0  iMISS:          0  dACCESS:          0  dHIT:          0  dMISS:          0  itACCESS:          0  itHIT:          0  itMISS:          0  dtACCESS:          0  dtHIT:          0  dtMISS:          0
cpu0_L1I PREFETCH  REQUESTED:   27098209  ISSUED:   27096705  CROSSED:          0  USEFUL:    1936412  USELESS:     639012
cpu0_L1I AVERAGE iMISS LATENCY: 13.0262 cycles
cpu0_L1I AVERAGE dMISS LATENCY: 0 cycles
cpu0_L1I AVERAGE itMISS LATENCY: 0 cycles
cpu0_L1I AVERAGE dtMISS LATENCY: 0 cycles
cpu0_L1I PAGE CROSSINGS (TLB HIT):         0 
cpu0_L1I PAGE CROSSINGS (TLB MISS):         0 
cpu0_L1I AVERAGE MISS LATENCY: 13.0262 cycles
cpu0_ITLB TOTAL       ACCESS:   29012484  HIT:   27015763  MISS:    1996721  iACCESS:   29012484  iHIT:   27015763  iMISS:    1996721  dACCESS:          0  dHIT:          0  dMISS:          0  itACCESS:          0  itHIT:          0  itMISS:          0  dtACCESS:          0  dtHIT:          0  dtMISS:          0
cpu0_ITLB LOAD         ACCESS:   29012484  HIT:   27015763  MISS:    1996721  iACCESS:   29012484  iHIT:   27015763  iMISS:    1996721  dACCESS:          0  dHIT:          0  dMISS:          0  itACCESS:          0  itHIT:          0  itMISS:          0  dtACCESS:          0  dtHIT:          0  dtMISS:          0
cpu0_ITLB RFO          ACCESS:          0  HIT:          0  MISS:          0  iACCESS:          0  iHIT:          0  iMISS:          0  dACCESS:          0  dHIT:          0  dMISS:          0  itACCESS:          0  itHIT:          0  itMISS:          0  dtACCESS:          0  dtHIT:          0  dtMISS:          0
cpu0_ITLB PREFETCH     ACCESS:          0  HIT:          0  MISS:          0  iACCESS:          0  iHIT:          0  iMISS:          0  dACCESS:          0  dHIT:          0  dMISS:          0  itACCESS:          0  itHIT:          0  itMISS:          0  dtACCESS:          0  dtHIT:          0  dtMISS:          0
cpu0_ITLB WRITE        ACCESS:          0  HIT:          0  MISS:          0  iACCESS:          0  iHIT:          0  iMISS:          0  dACCESS:          0  dHIT:          0  dMISS:          0  itACCESS:          0  itHIT:          0  itMISS:          0  dtACCESS:          0  dtHIT:          0  dtMISS:          0
cpu0_ITLB TRANSLATION  ACCESS:          0  HIT:          0  MISS:          0  iACCESS:          0  iHIT:          0  iMISS:          0  dACCESS:          0  dHIT:          0  dMISS:          0  itACCESS:          0  itHIT:          0  itMISS:          0  dtACCESS:          0  dtHIT:          0  dtMISS:          0
cpu0_ITLB PREFETCH  REQUESTED:          0  ISSUED:          0  CROSSED:          0  USEFUL:     326193  USELESS:      62925
cpu0_ITLB AVERAGE iMISS LATENCY: 2.8302 cycles
cpu0_ITLB AVERAGE dMISS LATENCY: 0 cycles
cpu0_ITLB AVERAGE itMISS LATENCY: 0 cycles
cpu0_ITLB AVERAGE dtMISS LATENCY: 0 cycles
cpu0_ITLB PAGE CROSSINGS (TLB HIT):         0 
cpu0_ITLB PAGE CROSSINGS (TLB MISS):         0 
cpu0_ITLB AVERAGE MISS LATENCY: 2.8302 cycles
cpu0_DTLB TOTAL       ACCESS:   27751019  HIT:   25646232  MISS:    2104787  iACCESS:          0  iHIT:          0  iMISS:          0  dACCESS:   27751019  dHIT:   25646232  dMISS:    2104787  itACCESS:          0  itHIT:          0  itMISS:          0  dtACCESS:          0  dtHIT:          0  dtMISS:          0
cpu0_DTLB LOAD         ACCESS:   27751019  HIT:   25646232  MISS:    2104787  iACCESS:          0  iHIT:          0  iMISS:          0  dACCESS:   27751019  dHIT:   25646232  dMISS:    2104787  itACCESS:          0  itHIT:          0  itMISS:          0  dtACCESS:          0  dtHIT:          0  dtMISS:          0
cpu0_DTLB RFO          ACCESS:          0  HIT:          0  MISS:          0  iACCESS:          0  iHIT:          0  iMISS:          0  dACCESS:          0  dHIT:          0  dMISS:          0  itACCESS:          0  itHIT:          0  itMISS:          0  dtACCESS:          0  dtHIT:          0  dtMISS:          0
cpu0_DTLB PREFETCH     ACCESS:          0  HIT:          0  MISS:          0  iACCESS:          0  iHIT:          0  iMISS:          0  dACCESS:          0  dHIT:          0  dMISS:          0  itACCESS:          0  itHIT:          0  itMISS:          0  dtACCESS:          0  dtHIT:          0  dtMISS:          0
cpu0_DTLB WRITE        ACCESS:          0  HIT:          0  MISS:          0  iACCESS:          0  iHIT:          0  iMISS:          0  dACCESS:          0  dHIT:          0  dMISS:          0  itACCESS:          0  itHIT:          0  itMISS:          0  dtACCESS:          0  dtHIT:          0  dtMISS:          0
cpu0_DTLB TRANSLATION  ACCESS:          0  HIT:          0  MISS:          0  iACCESS:          0  iHIT:          0  iMISS:          0  dACCESS:          0  dHIT:          0  dMISS:          0  itACCESS:          0  itHIT:          0  itMISS:          0  dtACCESS:          0  dtHIT:          0  dtMISS:          0
cpu0_DTLB PREFETCH  REQUESTED:          0  ISSUED:          0  CROSSED:          0  USEFUL:          0  USELESS:          0
cpu0_DTLB AVERAGE iMISS LATENCY: 0 cycles
cpu0_DTLB AVERAGE dMISS LATENCY: 9.53489 cycles
cpu0_DTLB AVERAGE itMISS LATENCY: 0 cycles
cpu0_DTLB AVERAGE dtMISS LATENCY: 0 cycles
cpu0_DTLB PAGE CROSSINGS (TLB HIT):         0 
cpu0_DTLB PAGE CROSSINGS (TLB MISS):         0 
cpu0_DTLB AVERAGE MISS LATENCY: 9.53489 cycles
cpu0_STLB TOTAL       ACCESS:    1632509  HIT:    1472033  MISS:     160476  iACCESS:     389132  iHIT:     333198  iMISS:      55934  dACCESS:    1243377  dHIT:    1138835  dMISS:     104542  itACCESS:          0  itHIT:          0  itMISS:          0  dtACCESS:          0  dtHIT:          0  dtMISS:          0
cpu0_STLB LOAD         ACCESS:    1632509  HIT:    1472033  MISS:     160476  iACCESS:     389132  iHIT:     333198  iMISS:      55934  dACCESS:    1243377  dHIT:    1138835  dMISS:     104542  itACCESS:          0  itHIT:          0  itMISS:          0  dtACCESS:          0  dtHIT:          0  dtMISS:          0
cpu0_STLB RFO          ACCESS:          0  HIT:          0  MISS:          0  iACCESS:          0  iHIT:          0  iMISS:          0  dACCESS:          0  dHIT:          0  dMISS:          0  itACCESS:          0  itHIT:          0  itMISS:          0  dtACCESS:          0  dtHIT:          0  dtMISS:          0
cpu0_STLB PREFETCH     ACCESS:          0  HIT:          0  MISS:          0  iACCESS:          0  iHIT:          0  iMISS:          0  dACCESS:          0  dHIT:          0  dMISS:          0  itACCESS:          0  itHIT:          0  itMISS:          0  dtACCESS:          0  dtHIT:          0  dtMISS:          0
cpu0_STLB WRITE        ACCESS:          0  HIT:          0  MISS:          0  iACCESS:          0  iHIT:          0  iMISS:          0  dACCESS:          0  dHIT:          0  dMISS:          0  itACCESS:          0  itHIT:          0  itMISS:          0  dtACCESS:          0  dtHIT:          0  dtMISS:          0
cpu0_STLB TRANSLATION  ACCESS:          0  HIT:          0  MISS:          0  iACCESS:          0  iHIT:          0  iMISS:          0  dACCESS:          0  dHIT:          0  dMISS:          0  itACCESS:          0  itHIT:          0  itMISS:          0  dtACCESS:          0  dtHIT:          0  dtMISS:          0
cpu0_STLB PREFETCH  REQUESTED:          0  ISSUED:          0  CROSSED:          0  USEFUL:          0  USELESS:          0
cpu0_STLB AVERAGE iMISS LATENCY: 16.0731 cycles
cpu0_STLB AVERAGE dMISS LATENCY: 63.3562 cycles
cpu0_STLB AVERAGE itMISS LATENCY: 0 cycles
cpu0_STLB AVERAGE dtMISS LATENCY: 0 cycles
cpu0_STLB PAGE CROSSINGS (TLB HIT):         0 
cpu0_STLB PAGE CROSSINGS (TLB MISS):         0 
cpu0_STLB AVERAGE MISS LATENCY: 79.4293 cycles
cpu0_L1D TOTAL       ACCESS:   41605950  HIT:   38012465  MISS:    3593485  iACCESS:          0  iHIT:          0  iMISS:          0  dACCESS:   41382957  dHIT:   37992587  dMISS:    3390370  itACCESS:      60531  itHIT:       9098  itMISS:      51433  dtACCESS:     162462  dtHIT:      10780  dtMISS:     151682
cpu0_L1D LOAD         ACCESS:   18976827  HIT:   17421967  MISS:    1554860  iACCESS:          0  iHIT:          0  iMISS:          0  dACCESS:   18976827  dHIT:   17421967  dMISS:    1554860  itACCESS:          0  itHIT:          0  itMISS:          0  dtACCESS:          0  dtHIT:          0  dtMISS:          0
cpu0_L1D RFO          ACCESS:          0  HIT:          0  MISS:          0  iACCESS:          0  iHIT:          0  iMISS:          0  dACCESS:          0  dHIT:          0  dMISS:          0  itACCESS:          0  itHIT:          0  itMISS:          0  dtACCESS:          0  dtHIT:          0  dtMISS:          0
cpu0_L1D PREFETCH     ACCESS:   12253185  HIT:   10845925  MISS:    1407260  iACCESS:          0  iHIT:          0  iMISS:          0  dACCESS:   12253185  dHIT:   10845925  dMISS:    1407260  itACCESS:          0  itHIT:          0  itMISS:          0  dtACCESS:          0  dtHIT:          0  dtMISS:          0
cpu0_L1D WRITE        ACCESS:   10152945  HIT:    9724695  MISS:     428250  iACCESS:          0  iHIT:          0  iMISS:          0  dACCESS:   10152945  dHIT:    9724695  dMISS:     428250  itACCESS:          0  itHIT:          0  itMISS:          0  dtACCESS:          0  dtHIT:          0  dtMISS:          0
cpu0_L1D TRANSLATION  ACCESS:     222993  HIT:      19878  MISS:     203115  iACCESS:          0  iHIT:          0  iMISS:          0  dACCESS:          0  dHIT:          0  dMISS:          0  itACCESS:      60531  itHIT:       9098  itMISS:      51433  dtACCESS:     162462  dtHIT:      10780  dtMISS:     151682
cpu0_L1D PREFETCH  REQUESTED:   18976827  ISSUED:   17076491  CROSSED:          0  USEFUL:     308269  USELESS:     703347
cpu0_L1D AVERAGE iMISS LATENCY: 0 cycles
cpu0_L1D AVERAGE dMISS LATENCY: 32.2126 cycles
cpu0_L1D AVERAGE itMISS LATENCY: 0.576928 cycles
cpu0_L1D AVERAGE dtMISS LATENCY: 2.18241 cycles
cpu0_L1D PAGE CROSSINGS (TLB HIT):         0 
cpu0_L1D PAGE CROSSINGS (TLB MISS):         0 
cpu0_L1D AVERAGE MISS LATENCY: 34.9719 cycles
cpu0_L2C TOTAL       ACCESS:    7022055  HIT:    1729943  MISS:    5292112  iACCESS:    3333324  iHIT:     894954  iMISS:    2438370  dACCESS:    3499681  dHIT:     720233  dMISS:    2779448  itACCESS:      51433  itHIT:      38500  itMISS:      12933  dtACCESS:     137617  dtHIT:      76256  dtMISS:      61361
cpu0_L2C LOAD         ACCESS:    1735762  HIT:     314379  MISS:    1421383  iACCESS:     797340  iHIT:     158452  iMISS:     638888  dACCESS:     938422  dHIT:     155927  dMISS:     782495  itACCESS:          0  itHIT:          0  itMISS:          0  dtACCESS:          0  dtHIT:          0  dtMISS:          0
cpu0_L2C RFO          ACCESS:     156372  HIT:      51488  MISS:     104884  iACCESS:          0  iHIT:          0  iMISS:          0  dACCESS:     156372  dHIT:      51488  dMISS:     104884  itACCESS:          0  itHIT:          0  itMISS:          0  dtACCESS:          0  dtHIT:          0  dtMISS:          0
cpu0_L2C PREFETCH     ACCESS:    4653847  HIT:    1113417  MISS:    3540430  iACCESS:    2535984  iHIT:     736502  iMISS:    1799482  dACCESS:    2117863  dHIT:     376915  dMISS:    1740948  itACCESS:          0  itHIT:          0  itMISS:          0  dtACCESS:          0  dtHIT:          0  dtMISS:          0
cpu0_L2C WRITE        ACCESS:     287024  HIT:     135903  MISS:     151121  iACCESS:          0  iHIT:          0  iMISS:          0  dACCESS:     287024  dHIT:     135903  dMISS:     151121  itACCESS:          0  itHIT:          0  itMISS:          0  dtACCESS:          0  dtHIT:          0  dtMISS:          0
cpu0_L2C TRANSLATION  ACCESS:     189050  HIT:     114756  MISS:      74294  iACCESS:          0  iHIT:          0  iMISS:          0  dACCESS:          0  dHIT:          0  dMISS:          0  itACCESS:      51433  itHIT:      38500  itMISS:      12933  dtACCESS:     137617  dtHIT:      76256  dtMISS:      61361
cpu0_L2C PREFETCH  REQUESTED:    1394952  ISSUED:    1394952  CROSSED:          0  USEFUL:     398198  USELESS:     379085
cpu0_L2C AVERAGE iMISS LATENCY: 15.0252 cycles
cpu0_L2C AVERAGE dMISS LATENCY: 25.0813 cycles
cpu0_L2C AVERAGE itMISS LATENCY: 0.301631 cycles
cpu0_L2C AVERAGE dtMISS LATENCY: 1.23479 cycles
cpu0_L2C PAGE CROSSINGS (TLB HIT):         0 
cpu0_L2C PAGE CROSSINGS (TLB MISS):         0 
cpu0_L2C AVERAGE MISS LATENCY: 41.6429 cycles
LLC TOTAL       ACCESS:    5168022  HIT:    4392323  MISS:     775699  iACCESS:    2382912  iHIT:    2155825  iMISS:     227087  dACCESS:    2710816  dHIT:    2199826  dMISS:     510990  itACCESS:      12933  itHIT:       5098  itMISS:       7835  dtACCESS:      61361  dtHIT:      31574  dtMISS:      29787
LLC LOAD         ACCESS:    1418602  HIT:    1241602  MISS:     177000  iACCESS:     636992  iHIT:     587352  iMISS:      49640  dACCESS:     781610  dHIT:     654250  dMISS:     127360  itACCESS:          0  itHIT:          0  itMISS:          0  dtACCESS:          0  dtHIT:          0  dtMISS:          0
LLC RFO          ACCESS:     104883  HIT:      69726  MISS:      35157  iACCESS:          0  iHIT:          0  iMISS:          0  dACCESS:     104883  dHIT:      69726  dMISS:      35157  itACCESS:          0  itHIT:          0  itMISS:          0  dtACCESS:          0  dtHIT:          0  dtMISS:          0
LLC PREFETCH     ACCESS:    3435741  HIT:    2918802  MISS:     516939  iACCESS:    1745920  iHIT:    1568473  iMISS:     177447  dACCESS:    1689821  dHIT:    1350329  dMISS:     339492  itACCESS:          0  itHIT:          0  itMISS:          0  dtACCESS:          0  dtHIT:          0  dtMISS:          0
LLC WRITE        ACCESS:     134502  HIT:     125521  MISS:       8981  iACCESS:          0  iHIT:          0  iMISS:          0  dACCESS:     134502  dHIT:     125521  dMISS:       8981  itACCESS:          0  itHIT:          0  itMISS:          0  dtACCESS:          0  dtHIT:          0  dtMISS:          0
LLC TRANSLATION  ACCESS:      74294  HIT:      36672  MISS:      37622  iACCESS:          0  iHIT:          0  iMISS:          0  dACCESS:          0  dHIT:          0  dMISS:          0  itACCESS:      12933  itHIT:       5098  itMISS:       7835  dtACCESS:      61361  dtHIT:      31574  dtMISS:      29787
LLC PREFETCH  REQUESTED:          0  ISSUED:          0  CROSSED:          0  USEFUL:          0  USELESS:          0
LLC AVERAGE iMISS LATENCY: 43.2189 cycles
LLC AVERAGE dMISS LATENCY: 107.242 cycles
LLC AVERAGE itMISS LATENCY: 1.73165 cycles
LLC AVERAGE dtMISS LATENCY: 6.88435 cycles
LLC PAGE CROSSINGS (TLB HIT):         0 
LLC PAGE CROSSINGS (TLB MISS):         0 
LLC AVERAGE MISS LATENCY: 159.077 cycles

PageTableWalker TOTAL       ACCESS:      77327  
PageTableWalker AVERAGE LATENCY: 4.444 cycles
PageTableWalker TOTAL LATENCY: 343641 cycles

DRAM Statistics
Channel 0
 RQ ROW_BUFFER_HIT:     204109
  ROW_BUFFER_MISS:     562033
 AVG DBUS CONGESTED CYCLE:    3.63077
 WQ ROW_BUFFER_HIT:      15287
  ROW_BUFFER_MISS:      21529  FULL:          0

