last_page:0x200000000000000
VMEM_RES_CAP:0x100000
PAGE_SIZE:4096
LOG2_PAGE_SIZE:12
LOG2_PAGE_TABLE_SIZE:9
page_table_levels:5
WARNING: physical memory size is smaller than virtual memory size
FDiP enabled with aggresivity 16

*** ChampSim Multicore Out-of-Order Simulator ***

Warmup Instructions: 50000000
Simulation Instructions: 100000000
Number of CPUs: 1
Small page size: 4096
Large page size: 2097152

CPU 0 Bimodal branch predictor
Basic BTB sets: 1024 ways: 8 indirect buffer size: 4096 RAS size: 64
Instruction page size distrubution: 0
Loading instruction page size distribution from /home/bsc/bsc018186/scratch/itp_asplos25_AE/dump/srv225_ap.pdst
Data page size distrubution: 0
Loading data page size distribution from /home/bsc/bsc018186/scratch/itp_asplos25_AE/dump/srv225_ap.pdst
cpu0_L2C IP-based stride prefetcher
cpu0_L1D next line prefetcher
cpu0_STLB using iTP with max lru@8
cpu0_STLB using iTP with instr@0 and data@2
Init sat counter with 3 bits (max:50).
cpu0_L1I next line prefetcher
Off-chip DRAM Size: 4 GiB Channels: 1 Width: 64-bit Data Rate: 3200 MT/s
Heartbeat CPU 0 instructions: 10000002 cycles: 2500291 heartbeat IPC: 3.99954 cumulative IPC: 3.99954 (Simulation time: 0 hr 0 min 37 sec) 
Heartbeat CPU 0 instructions: 20000003 cycles: 5000360 heartbeat IPC: 3.9999 cumulative IPC: 3.99972 (Simulation time: 0 hr 1 min 16 sec) 
Heartbeat CPU 0 instructions: 30000003 cycles: 7500361 heartbeat IPC: 4 cumulative IPC: 3.99981 (Simulation time: 0 hr 1 min 55 sec) 
Heartbeat CPU 0 instructions: 40000003 cycles: 10000378 heartbeat IPC: 3.99998 cumulative IPC: 3.99985 (Simulation time: 0 hr 2 min 35 sec) 
Heartbeat CPU 0 instructions: 50000003 cycles: 12500378 heartbeat IPC: 4 cumulative IPC: 3.99988 (Simulation time: 0 hr 3 min 16 sec) 
Warmup finished CPU 0 instructions: 50000003 cycles: 12500379 cumulative IPC: 3.99988 (Simulation time: 0 hr 3 min 16 sec) 

Warmup complete CPU 0 instructions: 50000003 cycles: 12500379 (Simulation time: 0 hr 3 min 16 sec) 

Heartbeat CPU 0 instructions: 60000001 cycles: 32246761 heartbeat IPC: 0.506422 cumulative IPC: 0.506422 (Simulation time: 0 hr 4 min 28 sec) 
Heartbeat CPU 0 instructions: 70000004 cycles: 52701169 heartbeat IPC: 0.488893 cumulative IPC: 0.497503 (Simulation time: 0 hr 5 min 41 sec) 
Heartbeat CPU 0 instructions: 80000001 cycles: 71929624 heartbeat IPC: 0.520063 cumulative IPC: 0.504802 (Simulation time: 0 hr 6 min 52 sec) 
Heartbeat CPU 0 instructions: 90000004 cycles: 92453013 heartbeat IPC: 0.48725 cumulative IPC: 0.500297 (Simulation time: 0 hr 8 min 6 sec) 
Heartbeat CPU 0 instructions: 100000000 cycles: 111798603 heartbeat IPC: 0.516914 cumulative IPC: 0.503534 (Simulation time: 0 hr 9 min 17 sec) 
*** Reached end of trace: /gpfs/projects/bsc18/MN4/bsc18/romol/ChampSim/traces/qualcomm_srv/srv225_ap.champsimtrace.xz
Heartbeat CPU 0 instructions: 110000000 cycles: 131714091 heartbeat IPC: 0.502122 cumulative IPC: 0.503298 (Simulation time: 0 hr 10 min 30 sec) 
Heartbeat CPU 0 instructions: 120000001 cycles: 151612053 heartbeat IPC: 0.502565 cumulative IPC: 0.503193 (Simulation time: 0 hr 11 min 42 sec) 
Heartbeat CPU 0 instructions: 130000002 cycles: 171671327 heartbeat IPC: 0.498523 cumulative IPC: 0.502605 (Simulation time: 0 hr 12 min 55 sec) 
Heartbeat CPU 0 instructions: 140000002 cycles: 192258430 heartbeat IPC: 0.485742 cumulative IPC: 0.500673 (Simulation time: 0 hr 14 min 8 sec) 
Heartbeat CPU 0 instructions: 150000001 cycles: 212635269 heartbeat IPC: 0.490754 cumulative IPC: 0.499663 (Simulation time: 0 hr 15 min 20 sec) 
Simulation finished CPU 0 instructions: 100000003 cycles: 200134892 cumulative IPC: 0.499664 (Simulation time: 0 hr 15 min 20 sec) 

Simulation complete CPU 0 instructions: 100000003 cycles: 200134892 (Simulation time: 0 hr 15 min 20 sec) 


ChampSim completed all CPUs

Saving instructions large page distribution to /home/bsc/bsc018186/scratch/itp_asplos25_AE/dump/srv225_ap.pdst...
Saving data large page distribution to /home/bsc/bsc018186/scratch/itp_asplos25_AE/dump/srv225_ap.pdst...
=== Simulation ===
CPU 0 runs /gpfs/projects/bsc18/MN4/bsc18/romol/ChampSim/traces/qualcomm_srv/srv225_ap.champsimtrace.xz

Region of Interest Statistics

CPU 0 cumulative IPC: 0.499664 instructions: 100000003 cycles: 200134892
CPU 0 Branch Prediction Accuracy: 80.4534% MPKI: 35.261 Average ROB Occupancy at Mispredict: 11.0516
Branch type MPKI
BRANCH_DIRECT_JUMP: 1.29674
BRANCH_INDIRECT: 17.633
BRANCH_CONDITIONAL: 11.494
BRANCH_DIRECT_CALL: 2.43952
BRANCH_INDIRECT_CALL: 0.68899
BRANCH_RETURN: 1.7087

Instructions large pages: 0
Instructions small pages: 5615
Large page distribution for instructions: 0%

Data large pages: 0
Data small pages: 4573
Large page distribution for data: 0%

cpu0_L1I TOTAL       ACCESS:   35240048  HIT:   27413822  MISS:    7826226  iACCESS:   35240048  iHIT:   27413822  iMISS:    7826226  dACCESS:          0  dHIT:          0  dMISS:          0  itACCESS:          0  itHIT:          0  itMISS:          0  dtACCESS:          0  dtHIT:          0  dtMISS:          0
cpu0_L1I LOAD         ACCESS:   10150840  HIT:    8001329  MISS:    2149511  iACCESS:   10150840  iHIT:    8001329  iMISS:    2149511  dACCESS:          0  dHIT:          0  dMISS:          0  itACCESS:          0  itHIT:          0  itMISS:          0  dtACCESS:          0  dtHIT:          0  dtMISS:          0
cpu0_L1I RFO          ACCESS:          0  HIT:          0  MISS:          0  iACCESS:          0  iHIT:          0  iMISS:          0  dACCESS:          0  dHIT:          0  dMISS:          0  itACCESS:          0  itHIT:          0  itMISS:          0  dtACCESS:          0  dtHIT:          0  dtMISS:          0
cpu0_L1I PREFETCH     ACCESS:   25089208  HIT:   19412493  MISS:    5676715  iACCESS:   25089208  iHIT:   19412493  iMISS:    5676715  dACCESS:          0  dHIT:          0  dMISS:          0  itACCESS:          0  itHIT:          0  itMISS:          0  dtACCESS:          0  dtHIT:          0  dtMISS:          0
cpu0_L1I WRITE        ACCESS:          0  HIT:          0  MISS:          0  iACCESS:          0  iHIT:          0  iMISS:          0  dACCESS:          0  dHIT:          0  dMISS:          0  itACCESS:          0  itHIT:          0  itMISS:          0  dtACCESS:          0  dtHIT:          0  dtMISS:          0
cpu0_L1I TRANSLATION  ACCESS:          0  HIT:          0  MISS:          0  iACCESS:          0  iHIT:          0  iMISS:          0  dACCESS:          0  dHIT:          0  dMISS:          0  itACCESS:          0  itHIT:          0  itMISS:          0  dtACCESS:          0  dtHIT:          0  dtMISS:          0
cpu0_L1I PREFETCH  REQUESTED:   27476758  ISSUED:   27476758  CROSSED:          0  USEFUL:    1961575  USELESS:     650463
cpu0_L1I AVERAGE iMISS LATENCY: 19.3367 cycles
cpu0_L1I AVERAGE dMISS LATENCY: 0 cycles
cpu0_L1I AVERAGE itMISS LATENCY: 0 cycles
cpu0_L1I AVERAGE dtMISS LATENCY: 0 cycles
cpu0_L1I PAGE CROSSINGS (TLB HIT):         0 
cpu0_L1I PAGE CROSSINGS (TLB MISS):         0 
cpu0_L1I AVERAGE MISS LATENCY: 19.3367 cycles
cpu0_ITLB TOTAL       ACCESS:   29724902  HIT:   27789054  MISS:    1935848  iACCESS:   29724902  iHIT:   27789054  iMISS:    1935848  dACCESS:          0  dHIT:          0  dMISS:          0  itACCESS:          0  itHIT:          0  itMISS:          0  dtACCESS:          0  dtHIT:          0  dtMISS:          0
cpu0_ITLB LOAD         ACCESS:   29724902  HIT:   27789054  MISS:    1935848  iACCESS:   29724902  iHIT:   27789054  iMISS:    1935848  dACCESS:          0  dHIT:          0  dMISS:          0  itACCESS:          0  itHIT:          0  itMISS:          0  dtACCESS:          0  dtHIT:          0  dtMISS:          0
cpu0_ITLB RFO          ACCESS:          0  HIT:          0  MISS:          0  iACCESS:          0  iHIT:          0  iMISS:          0  dACCESS:          0  dHIT:          0  dMISS:          0  itACCESS:          0  itHIT:          0  itMISS:          0  dtACCESS:          0  dtHIT:          0  dtMISS:          0
cpu0_ITLB PREFETCH     ACCESS:          0  HIT:          0  MISS:          0  iACCESS:          0  iHIT:          0  iMISS:          0  dACCESS:          0  dHIT:          0  dMISS:          0  itACCESS:          0  itHIT:          0  itMISS:          0  dtACCESS:          0  dtHIT:          0  dtMISS:          0
cpu0_ITLB WRITE        ACCESS:          0  HIT:          0  MISS:          0  iACCESS:          0  iHIT:          0  iMISS:          0  dACCESS:          0  dHIT:          0  dMISS:          0  itACCESS:          0  itHIT:          0  itMISS:          0  dtACCESS:          0  dtHIT:          0  dtMISS:          0
cpu0_ITLB TRANSLATION  ACCESS:          0  HIT:          0  MISS:          0  iACCESS:          0  iHIT:          0  iMISS:          0  dACCESS:          0  dHIT:          0  dMISS:          0  itACCESS:          0  itHIT:          0  itMISS:          0  dtACCESS:          0  dtHIT:          0  dtMISS:          0
cpu0_ITLB PREFETCH  REQUESTED:          0  ISSUED:          0  CROSSED:          0  USEFUL:     328278  USELESS:      61702
cpu0_ITLB AVERAGE iMISS LATENCY: 3.41557 cycles
cpu0_ITLB AVERAGE dMISS LATENCY: 0 cycles
cpu0_ITLB AVERAGE itMISS LATENCY: 0 cycles
cpu0_ITLB AVERAGE dtMISS LATENCY: 0 cycles
cpu0_ITLB PAGE CROSSINGS (TLB HIT):         0 
cpu0_ITLB PAGE CROSSINGS (TLB MISS):         0 
cpu0_ITLB AVERAGE MISS LATENCY: 3.41557 cycles
cpu0_DTLB TOTAL       ACCESS:   27989998  HIT:   25986019  MISS:    2003979  iACCESS:          0  iHIT:          0  iMISS:          0  dACCESS:   27989998  dHIT:   25986019  dMISS:    2003979  itACCESS:          0  itHIT:          0  itMISS:          0  dtACCESS:          0  dtHIT:          0  dtMISS:          0
cpu0_DTLB LOAD         ACCESS:   27989998  HIT:   25986019  MISS:    2003979  iACCESS:          0  iHIT:          0  iMISS:          0  dACCESS:   27989998  dHIT:   25986019  dMISS:    2003979  itACCESS:          0  itHIT:          0  itMISS:          0  dtACCESS:          0  dtHIT:          0  dtMISS:          0
cpu0_DTLB RFO          ACCESS:          0  HIT:          0  MISS:          0  iACCESS:          0  iHIT:          0  iMISS:          0  dACCESS:          0  dHIT:          0  dMISS:          0  itACCESS:          0  itHIT:          0  itMISS:          0  dtACCESS:          0  dtHIT:          0  dtMISS:          0
cpu0_DTLB PREFETCH     ACCESS:          0  HIT:          0  MISS:          0  iACCESS:          0  iHIT:          0  iMISS:          0  dACCESS:          0  dHIT:          0  dMISS:          0  itACCESS:          0  itHIT:          0  itMISS:          0  dtACCESS:          0  dtHIT:          0  dtMISS:          0
cpu0_DTLB WRITE        ACCESS:          0  HIT:          0  MISS:          0  iACCESS:          0  iHIT:          0  iMISS:          0  dACCESS:          0  dHIT:          0  dMISS:          0  itACCESS:          0  itHIT:          0  itMISS:          0  dtACCESS:          0  dtHIT:          0  dtMISS:          0
cpu0_DTLB TRANSLATION  ACCESS:          0  HIT:          0  MISS:          0  iACCESS:          0  iHIT:          0  iMISS:          0  dACCESS:          0  dHIT:          0  dMISS:          0  itACCESS:          0  itHIT:          0  itMISS:          0  dtACCESS:          0  dtHIT:          0  dtMISS:          0
cpu0_DTLB PREFETCH  REQUESTED:          0  ISSUED:          0  CROSSED:          0  USEFUL:          0  USELESS:          0
cpu0_DTLB AVERAGE iMISS LATENCY: 0 cycles
cpu0_DTLB AVERAGE dMISS LATENCY: 22.6885 cycles
cpu0_DTLB AVERAGE itMISS LATENCY: 0 cycles
cpu0_DTLB AVERAGE dtMISS LATENCY: 0 cycles
cpu0_DTLB PAGE CROSSINGS (TLB HIT):         0 
cpu0_DTLB PAGE CROSSINGS (TLB MISS):         0 
cpu0_DTLB AVERAGE MISS LATENCY: 22.6885 cycles
cpu0_STLB TOTAL       ACCESS:    1591842  HIT:    1385593  MISS:     206249  iACCESS:     389979  iHIT:     369229  iMISS:      20750  dACCESS:    1201863  dHIT:    1016364  dMISS:     185499  itACCESS:          0  itHIT:          0  itMISS:          0  dtACCESS:          0  dtHIT:          0  dtMISS:          0
cpu0_STLB LOAD         ACCESS:    1591842  HIT:    1385593  MISS:     206249  iACCESS:     389979  iHIT:     369229  iMISS:      20750  dACCESS:    1201863  dHIT:    1016364  dMISS:     185499  itACCESS:          0  itHIT:          0  itMISS:          0  dtACCESS:          0  dtHIT:          0  dtMISS:          0
cpu0_STLB RFO          ACCESS:          0  HIT:          0  MISS:          0  iACCESS:          0  iHIT:          0  iMISS:          0  dACCESS:          0  dHIT:          0  dMISS:          0  itACCESS:          0  itHIT:          0  itMISS:          0  dtACCESS:          0  dtHIT:          0  dtMISS:          0
cpu0_STLB PREFETCH     ACCESS:          0  HIT:          0  MISS:          0  iACCESS:          0  iHIT:          0  iMISS:          0  dACCESS:          0  dHIT:          0  dMISS:          0  itACCESS:          0  itHIT:          0  itMISS:          0  dtACCESS:          0  dtHIT:          0  dtMISS:          0
cpu0_STLB WRITE        ACCESS:          0  HIT:          0  MISS:          0  iACCESS:          0  iHIT:          0  iMISS:          0  dACCESS:          0  dHIT:          0  dMISS:          0  itACCESS:          0  itHIT:          0  itMISS:          0  dtACCESS:          0  dtHIT:          0  dtMISS:          0
cpu0_STLB TRANSLATION  ACCESS:          0  HIT:          0  MISS:          0  iACCESS:          0  iHIT:          0  iMISS:          0  dACCESS:          0  dHIT:          0  dMISS:          0  itACCESS:          0  itHIT:          0  itMISS:          0  dtACCESS:          0  dtHIT:          0  dtMISS:          0
cpu0_STLB PREFETCH  REQUESTED:          0  ISSUED:          0  CROSSED:          0  USEFUL:          0  USELESS:          0
cpu0_STLB AVERAGE iMISS LATENCY: 17.3226 cycles
cpu0_STLB AVERAGE dMISS LATENCY: 173.62 cycles
cpu0_STLB AVERAGE itMISS LATENCY: 0 cycles
cpu0_STLB AVERAGE dtMISS LATENCY: 0 cycles
cpu0_STLB PAGE CROSSINGS (TLB HIT):         0 
cpu0_STLB PAGE CROSSINGS (TLB MISS):         0 
cpu0_STLB AVERAGE MISS LATENCY: 190.942 cycles
cpu0_L1D TOTAL       ACCESS:   42505591  HIT:   38459489  MISS:    4046102  iACCESS:          0  iHIT:          0  iMISS:          0  dACCESS:   42230732  dHIT:   38442075  dMISS:    3788657  itACCESS:      24041  itHIT:       1937  itMISS:      22104  dtACCESS:     250818  dtHIT:      15477  dtMISS:     235341
cpu0_L1D LOAD         ACCESS:   19340288  HIT:   17609055  MISS:    1731233  iACCESS:          0  iHIT:          0  iMISS:          0  dACCESS:   19340288  dHIT:   17609055  dMISS:    1731233  itACCESS:          0  itHIT:          0  itMISS:          0  dtACCESS:          0  dtHIT:          0  dtMISS:          0
cpu0_L1D RFO          ACCESS:          0  HIT:          0  MISS:          0  iACCESS:          0  iHIT:          0  iMISS:          0  dACCESS:          0  dHIT:          0  dMISS:          0  itACCESS:          0  itHIT:          0  itMISS:          0  dtACCESS:          0  dtHIT:          0  dtMISS:          0
cpu0_L1D PREFETCH     ACCESS:   12724122  HIT:   11146173  MISS:    1577949  iACCESS:          0  iHIT:          0  iMISS:          0  dACCESS:   12724122  dHIT:   11146173  dMISS:    1577949  itACCESS:          0  itHIT:          0  itMISS:          0  dtACCESS:          0  dtHIT:          0  dtMISS:          0
cpu0_L1D WRITE        ACCESS:   10166322  HIT:    9686847  MISS:     479475  iACCESS:          0  iHIT:          0  iMISS:          0  dACCESS:   10166322  dHIT:    9686847  dMISS:     479475  itACCESS:          0  itHIT:          0  itMISS:          0  dtACCESS:          0  dtHIT:          0  dtMISS:          0
cpu0_L1D TRANSLATION  ACCESS:     274859  HIT:      17414  MISS:     257445  iACCESS:          0  iHIT:          0  iMISS:          0  dACCESS:          0  dHIT:          0  dMISS:          0  itACCESS:      24041  itHIT:       1937  itMISS:      22104  dtACCESS:     250818  dtHIT:      15477  dtMISS:     235341
cpu0_L1D PREFETCH  REQUESTED:   19340288  ISSUED:   17357008  CROSSED:          0  USEFUL:     311801  USELESS:     702545
cpu0_L1D AVERAGE iMISS LATENCY: 0 cycles
cpu0_L1D AVERAGE dMISS LATENCY: 40.5602 cycles
cpu0_L1D AVERAGE itMISS LATENCY: 0.831684 cycles
cpu0_L1D AVERAGE dtMISS LATENCY: 8.24982 cycles
cpu0_L1D PAGE CROSSINGS (TLB HIT):         0 
cpu0_L1D PAGE CROSSINGS (TLB MISS):         0 
cpu0_L1D AVERAGE MISS LATENCY: 49.6417 cycles
cpu0_L2C TOTAL       ACCESS:    7224119  HIT:    3696444  MISS:    3527675  iACCESS:    3338455  iHIT:    2018830  iMISS:    1319625  dACCESS:    3630083  dHIT:    1637238  dMISS:    1992845  itACCESS:      22104  itHIT:       3393  itMISS:      18711  dtACCESS:     233477  dtHIT:      36983  dtMISS:     196494
cpu0_L2C LOAD         ACCESS:    1709790  HIT:     909545  MISS:     800245  iACCESS:     763919  iHIT:     490854  iMISS:     273065  dACCESS:     945871  dHIT:     418691  dMISS:     527180  itACCESS:          0  itHIT:          0  itMISS:          0  dtACCESS:          0  dtHIT:          0  dtMISS:          0
cpu0_L2C RFO          ACCESS:     163903  HIT:      62734  MISS:     101169  iACCESS:          0  iHIT:          0  iMISS:          0  dACCESS:     163903  dHIT:      62734  dMISS:     101169  itACCESS:          0  itHIT:          0  itMISS:          0  dtACCESS:          0  dtHIT:          0  dtMISS:          0
cpu0_L2C PREFETCH     ACCESS:    4819880  HIT:    2410093  MISS:    2409787  iACCESS:    2574536  iHIT:    1527976  iMISS:    1046560  dACCESS:    2245344  dHIT:     882117  dMISS:    1363227  itACCESS:          0  itHIT:          0  itMISS:          0  dtACCESS:          0  dtHIT:          0  dtMISS:          0
cpu0_L2C WRITE        ACCESS:     274965  HIT:     273696  MISS:       1269  iACCESS:          0  iHIT:          0  iMISS:          0  dACCESS:     274965  dHIT:     273696  dMISS:       1269  itACCESS:          0  itHIT:          0  itMISS:          0  dtACCESS:          0  dtHIT:          0  dtMISS:          0
cpu0_L2C TRANSLATION  ACCESS:     255581  HIT:      40376  MISS:     215205  iACCESS:          0  iHIT:          0  iMISS:          0  dACCESS:          0  dHIT:          0  dMISS:          0  itACCESS:      22104  itHIT:       3393  itMISS:      18711  dtACCESS:     233477  dtHIT:      36983  dtMISS:     196494
cpu0_L2C PREFETCH  REQUESTED:    1490598  ISSUED:    1490570  CROSSED:          0  USEFUL:     352218  USELESS:     296314
cpu0_L2C AVERAGE iMISS LATENCY: 34.5366 cycles
cpu0_L2C AVERAGE dMISS LATENCY: 59.9854 cycles
cpu0_L2C AVERAGE itMISS LATENCY: 0.891961 cycles
cpu0_L2C AVERAGE dtMISS LATENCY: 8.80675 cycles
cpu0_L2C PAGE CROSSINGS (TLB HIT):         0 
cpu0_L2C PAGE CROSSINGS (TLB MISS):         0 
cpu0_L2C AVERAGE MISS LATENCY: 104.221 cycles
LLC TOTAL       ACCESS:    3483554  HIT:    1579370  MISS:    1904184  iACCESS:    1238935  iHIT:     577390  iMISS:     661545  dACCESS:    2029414  dHIT:     949519  dMISS:    1079895  itACCESS:      18711  itHIT:       2903  itMISS:      15808  dtACCESS:     196494  dtHIT:      49558  dtMISS:     146936
LLC LOAD         ACCESS:     794171  HIT:     387747  MISS:     406424  iACCESS:     271539  iHIT:     134157  iMISS:     137382  dACCESS:     522632  dHIT:     253590  dMISS:     269042  itACCESS:          0  itHIT:          0  itMISS:          0  dtACCESS:          0  dtHIT:          0  dtMISS:          0
LLC RFO          ACCESS:     101155  HIT:      38597  MISS:      62558  iACCESS:          0  iHIT:          0  iMISS:          0  dACCESS:     101155  dHIT:      38597  dMISS:      62558  itACCESS:          0  itHIT:          0  itMISS:          0  dtACCESS:          0  dtHIT:          0  dtMISS:          0
LLC PREFETCH     ACCESS:    2227034  HIT:     963200  MISS:    1263834  iACCESS:     967396  iHIT:     443233  iMISS:     524163  dACCESS:    1259638  dHIT:     519967  dMISS:     739671  itACCESS:          0  itHIT:          0  itMISS:          0  dtACCESS:          0  dtHIT:          0  dtMISS:          0
LLC WRITE        ACCESS:     145989  HIT:     137365  MISS:       8624  iACCESS:          0  iHIT:          0  iMISS:          0  dACCESS:     145989  dHIT:     137365  dMISS:       8624  itACCESS:          0  itHIT:          0  itMISS:          0  dtACCESS:          0  dtHIT:          0  dtMISS:          0
LLC TRANSLATION  ACCESS:     215205  HIT:      52461  MISS:     162744  iACCESS:          0  iHIT:          0  iMISS:          0  dACCESS:          0  dHIT:          0  dMISS:          0  itACCESS:      18711  itHIT:       2903  itMISS:      15808  dtACCESS:     196494  dtHIT:      49558  dtMISS:     146936
LLC PREFETCH  REQUESTED:          0  ISSUED:          0  CROSSED:          0  USEFUL:          0  USELESS:          0
LLC AVERAGE iMISS LATENCY: 51.2478 cycles
LLC AVERAGE dMISS LATENCY: 92.5681 cycles
LLC AVERAGE itMISS LATENCY: 1.45825 cycles
LLC AVERAGE dtMISS LATENCY: 14.2857 cycles
LLC PAGE CROSSINGS (TLB HIT):         0 
LLC PAGE CROSSINGS (TLB MISS):         0 
LLC AVERAGE MISS LATENCY: 159.56 cycles

PageTableWalker TOTAL       ACCESS:      99675  
PageTableWalker AVERAGE LATENCY: 5.34207 cycles
PageTableWalker TOTAL LATENCY: 532470 cycles

DRAM Statistics
Channel 0
 RQ ROW_BUFFER_HIT:     528402
  ROW_BUFFER_MISS:    1355130
 AVG DBUS CONGESTED CYCLE:      3.634
 WQ ROW_BUFFER_HIT:      38108
  ROW_BUFFER_MISS:      26497  FULL:          0

