last_page:0x200000000000000
VMEM_RES_CAP:0x100000
PAGE_SIZE:4096
LOG2_PAGE_SIZE:12
LOG2_PAGE_TABLE_SIZE:9
page_table_levels:5
WARNING: physical memory size is smaller than virtual memory size
FDiP enabled with aggresivity 16

*** ChampSim Multicore Out-of-Order Simulator ***

Warmup Instructions: 50000000
Simulation Instructions: 100000000
Number of CPUs: 1
Small page size: 4096
Large page size: 2097152

CPU 0 Bimodal branch predictor
Basic BTB sets: 1024 ways: 8 indirect buffer size: 4096 RAS size: 64
Instruction page size distrubution: 0
Loading instruction page size distribution from /home/bsc/bsc018186/scratch/itp_asplos25_AE/dump/srv222_ap.pdst
Data page size distrubution: 0
Loading data page size distribution from /home/bsc/bsc018186/scratch/itp_asplos25_AE/dump/srv222_ap.pdst
cpu0_L2C IP-based stride prefetcher
cpu0_L2C is using PTP replacement policy:
	TLB_STRESS_THRESHOLD:0
	PTE_EVICTION_RATIO:0
cpu0_L1D next line prefetcher
CHiRPing...
cpu0_L1I next line prefetcher
Off-chip DRAM Size: 4 GiB Channels: 1 Width: 64-bit Data Rate: 3200 MT/s
Heartbeat CPU 0 instructions: 10000000 cycles: 2500267 heartbeat IPC: 3.99958 cumulative IPC: 3.99958 (Simulation time: 0 hr 0 min 38 sec) 
Heartbeat CPU 0 instructions: 20000001 cycles: 5000273 heartbeat IPC: 4 cumulative IPC: 3.99979 (Simulation time: 0 hr 1 min 17 sec) 
Heartbeat CPU 0 instructions: 30000002 cycles: 7500357 heartbeat IPC: 3.99987 cumulative IPC: 3.99981 (Simulation time: 0 hr 1 min 58 sec) 
Heartbeat CPU 0 instructions: 40000003 cycles: 10000405 heartbeat IPC: 3.99993 cumulative IPC: 3.99984 (Simulation time: 0 hr 2 min 39 sec) 
Heartbeat CPU 0 instructions: 50000001 cycles: 12500413 heartbeat IPC: 3.99999 cumulative IPC: 3.99987 (Simulation time: 0 hr 3 min 19 sec) 
Warmup finished CPU 0 instructions: 50000001 cycles: 12500414 cumulative IPC: 3.99987 (Simulation time: 0 hr 3 min 19 sec) 

Warmup complete CPU 0 instructions: 50000001 cycles: 12500414 (Simulation time: 0 hr 3 min 19 sec) 

Heartbeat CPU 0 instructions: 60000000 cycles: 31991081 heartbeat IPC: 0.513066 cumulative IPC: 0.513067 (Simulation time: 0 hr 4 min 30 sec) 
Heartbeat CPU 0 instructions: 70000004 cycles: 51749856 heartbeat IPC: 0.506105 cumulative IPC: 0.509562 (Simulation time: 0 hr 5 min 42 sec) 
Heartbeat CPU 0 instructions: 80000000 cycles: 70749553 heartbeat IPC: 0.526324 cumulative IPC: 0.51503 (Simulation time: 0 hr 6 min 52 sec) 
Heartbeat CPU 0 instructions: 90000000 cycles: 91085768 heartbeat IPC: 0.491734 cumulative IPC: 0.509001 (Simulation time: 0 hr 8 min 5 sec) 
Heartbeat CPU 0 instructions: 100000000 cycles: 110809864 heartbeat IPC: 0.506995 cumulative IPC: 0.508599 (Simulation time: 0 hr 9 min 17 sec) 
*** Reached end of trace: /gpfs/projects/bsc18/MN4/bsc18/romol/ChampSim/traces/qualcomm_srv/srv222_ap.champsimtrace.xz
Heartbeat CPU 0 instructions: 110000000 cycles: 130110256 heartbeat IPC: 0.518125 cumulative IPC: 0.510162 (Simulation time: 0 hr 10 min 28 sec) 
Heartbeat CPU 0 instructions: 120000002 cycles: 150541885 heartbeat IPC: 0.489438 cumulative IPC: 0.507094 (Simulation time: 0 hr 11 min 40 sec) 
Heartbeat CPU 0 instructions: 130000001 cycles: 171214292 heartbeat IPC: 0.483737 cumulative IPC: 0.504052 (Simulation time: 0 hr 12 min 52 sec) 
Heartbeat CPU 0 instructions: 140000001 cycles: 191059670 heartbeat IPC: 0.503896 cumulative IPC: 0.504035 (Simulation time: 0 hr 14 min 4 sec) 
Heartbeat CPU 0 instructions: 150000000 cycles: 211440048 heartbeat IPC: 0.490668 cumulative IPC: 0.502666 (Simulation time: 0 hr 15 min 16 sec) 
Simulation finished CPU 0 instructions: 100000003 cycles: 198939636 cumulative IPC: 0.502666 (Simulation time: 0 hr 15 min 16 sec) 

Simulation complete CPU 0 instructions: 100000003 cycles: 198939636 (Simulation time: 0 hr 15 min 16 sec) 


ChampSim completed all CPUs

Saving instructions large page distribution to /home/bsc/bsc018186/scratch/itp_asplos25_AE/dump/srv222_ap.pdst...
Saving data large page distribution to /home/bsc/bsc018186/scratch/itp_asplos25_AE/dump/srv222_ap.pdst...
=== Simulation ===
CPU 0 runs /gpfs/projects/bsc18/MN4/bsc18/romol/ChampSim/traces/qualcomm_srv/srv222_ap.champsimtrace.xz

Region of Interest Statistics

CPU 0 cumulative IPC: 0.502666 instructions: 100000003 cycles: 198939636
CPU 0 Branch Prediction Accuracy: 80.1337% MPKI: 35.8772 Average ROB Occupancy at Mispredict: 10.3827
Branch type MPKI
BRANCH_DIRECT_JUMP: 1.34829
BRANCH_INDIRECT: 17.9544
BRANCH_CONDITIONAL: 11.6356
BRANCH_DIRECT_CALL: 2.54634
BRANCH_INDIRECT_CALL: 0.66241
BRANCH_RETURN: 1.73014

Instructions large pages: 0
Instructions small pages: 1201
Large page distribution for instructions: 0%

Data large pages: 0
Data small pages: 5008
Large page distribution for data: 0%

cpu0_L1I TOTAL       ACCESS:   36194157  HIT:   28055284  MISS:    8138873  iACCESS:   36194157  iHIT:   28055284  iMISS:    8138873  dACCESS:          0  dHIT:          0  dMISS:          0  itACCESS:          0  itHIT:          0  itMISS:          0  dtACCESS:          0  dtHIT:          0  dtMISS:          0
cpu0_L1I LOAD         ACCESS:   10587984  HIT:    8359023  MISS:    2228961  iACCESS:   10587984  iHIT:    8359023  iMISS:    2228961  dACCESS:          0  dHIT:          0  dMISS:          0  itACCESS:          0  itHIT:          0  itMISS:          0  dtACCESS:          0  dtHIT:          0  dtMISS:          0
cpu0_L1I RFO          ACCESS:          0  HIT:          0  MISS:          0  iACCESS:          0  iHIT:          0  iMISS:          0  dACCESS:          0  dHIT:          0  dMISS:          0  itACCESS:          0  itHIT:          0  itMISS:          0  dtACCESS:          0  dtHIT:          0  dtMISS:          0
cpu0_L1I PREFETCH     ACCESS:   25606173  HIT:   19696261  MISS:    5909912  iACCESS:   25606173  iHIT:   19696261  iMISS:    5909912  dACCESS:          0  dHIT:          0  dMISS:          0  itACCESS:          0  itHIT:          0  itMISS:          0  dtACCESS:          0  dtHIT:          0  dtMISS:          0
cpu0_L1I WRITE        ACCESS:          0  HIT:          0  MISS:          0  iACCESS:          0  iHIT:          0  iMISS:          0  dACCESS:          0  dHIT:          0  dMISS:          0  itACCESS:          0  itHIT:          0  itMISS:          0  dtACCESS:          0  dtHIT:          0  dtMISS:          0
cpu0_L1I TRANSLATION  ACCESS:          0  HIT:          0  MISS:          0  iACCESS:          0  iHIT:          0  iMISS:          0  dACCESS:          0  dHIT:          0  dMISS:          0  itACCESS:          0  itHIT:          0  itMISS:          0  dtACCESS:          0  dtHIT:          0  dtMISS:          0
cpu0_L1I PREFETCH  REQUESTED:   28100232  ISSUED:   28100199  CROSSED:          0  USEFUL:    2012992  USELESS:     651787
cpu0_L1I AVERAGE iMISS LATENCY: 19.2361 cycles
cpu0_L1I AVERAGE dMISS LATENCY: 0 cycles
cpu0_L1I AVERAGE itMISS LATENCY: 0 cycles
cpu0_L1I AVERAGE dtMISS LATENCY: 0 cycles
cpu0_L1I PAGE CROSSINGS (TLB HIT):         0 
cpu0_L1I PAGE CROSSINGS (TLB MISS):         0 
cpu0_L1I AVERAGE MISS LATENCY: 19.2361 cycles
cpu0_ITLB TOTAL       ACCESS:   30316504  HIT:   28380997  MISS:    1935507  iACCESS:   30316504  iHIT:   28380997  iMISS:    1935507  dACCESS:          0  dHIT:          0  dMISS:          0  itACCESS:          0  itHIT:          0  itMISS:          0  dtACCESS:          0  dtHIT:          0  dtMISS:          0
cpu0_ITLB LOAD         ACCESS:   30316504  HIT:   28380997  MISS:    1935507  iACCESS:   30316504  iHIT:   28380997  iMISS:    1935507  dACCESS:          0  dHIT:          0  dMISS:          0  itACCESS:          0  itHIT:          0  itMISS:          0  dtACCESS:          0  dtHIT:          0  dtMISS:          0
cpu0_ITLB RFO          ACCESS:          0  HIT:          0  MISS:          0  iACCESS:          0  iHIT:          0  iMISS:          0  dACCESS:          0  dHIT:          0  dMISS:          0  itACCESS:          0  itHIT:          0  itMISS:          0  dtACCESS:          0  dtHIT:          0  dtMISS:          0
cpu0_ITLB PREFETCH     ACCESS:          0  HIT:          0  MISS:          0  iACCESS:          0  iHIT:          0  iMISS:          0  dACCESS:          0  dHIT:          0  dMISS:          0  itACCESS:          0  itHIT:          0  itMISS:          0  dtACCESS:          0  dtHIT:          0  dtMISS:          0
cpu0_ITLB WRITE        ACCESS:          0  HIT:          0  MISS:          0  iACCESS:          0  iHIT:          0  iMISS:          0  dACCESS:          0  dHIT:          0  dMISS:          0  itACCESS:          0  itHIT:          0  itMISS:          0  dtACCESS:          0  dtHIT:          0  dtMISS:          0
cpu0_ITLB TRANSLATION  ACCESS:          0  HIT:          0  MISS:          0  iACCESS:          0  iHIT:          0  iMISS:          0  dACCESS:          0  dHIT:          0  dMISS:          0  itACCESS:          0  itHIT:          0  itMISS:          0  dtACCESS:          0  dtHIT:          0  dtMISS:          0
cpu0_ITLB PREFETCH  REQUESTED:          0  ISSUED:          0  CROSSED:          0  USEFUL:     328355  USELESS:      65423
cpu0_ITLB AVERAGE iMISS LATENCY: 6.55832 cycles
cpu0_ITLB AVERAGE dMISS LATENCY: 0 cycles
cpu0_ITLB AVERAGE itMISS LATENCY: 0 cycles
cpu0_ITLB AVERAGE dtMISS LATENCY: 0 cycles
cpu0_ITLB PAGE CROSSINGS (TLB HIT):         0 
cpu0_ITLB PAGE CROSSINGS (TLB MISS):         0 
cpu0_ITLB AVERAGE MISS LATENCY: 6.55832 cycles
cpu0_DTLB TOTAL       ACCESS:   27935389  HIT:   25928484  MISS:    2006905  iACCESS:          0  iHIT:          0  iMISS:          0  dACCESS:   27935389  dHIT:   25928484  dMISS:    2006905  itACCESS:          0  itHIT:          0  itMISS:          0  dtACCESS:          0  dtHIT:          0  dtMISS:          0
cpu0_DTLB LOAD         ACCESS:   27935389  HIT:   25928484  MISS:    2006905  iACCESS:          0  iHIT:          0  iMISS:          0  dACCESS:   27935389  dHIT:   25928484  dMISS:    2006905  itACCESS:          0  itHIT:          0  itMISS:          0  dtACCESS:          0  dtHIT:          0  dtMISS:          0
cpu0_DTLB RFO          ACCESS:          0  HIT:          0  MISS:          0  iACCESS:          0  iHIT:          0  iMISS:          0  dACCESS:          0  dHIT:          0  dMISS:          0  itACCESS:          0  itHIT:          0  itMISS:          0  dtACCESS:          0  dtHIT:          0  dtMISS:          0
cpu0_DTLB PREFETCH     ACCESS:          0  HIT:          0  MISS:          0  iACCESS:          0  iHIT:          0  iMISS:          0  dACCESS:          0  dHIT:          0  dMISS:          0  itACCESS:          0  itHIT:          0  itMISS:          0  dtACCESS:          0  dtHIT:          0  dtMISS:          0
cpu0_DTLB WRITE        ACCESS:          0  HIT:          0  MISS:          0  iACCESS:          0  iHIT:          0  iMISS:          0  dACCESS:          0  dHIT:          0  dMISS:          0  itACCESS:          0  itHIT:          0  itMISS:          0  dtACCESS:          0  dtHIT:          0  dtMISS:          0
cpu0_DTLB TRANSLATION  ACCESS:          0  HIT:          0  MISS:          0  iACCESS:          0  iHIT:          0  iMISS:          0  dACCESS:          0  dHIT:          0  dMISS:          0  itACCESS:          0  itHIT:          0  itMISS:          0  dtACCESS:          0  dtHIT:          0  dtMISS:          0
cpu0_DTLB PREFETCH  REQUESTED:          0  ISSUED:          0  CROSSED:          0  USEFUL:          0  USELESS:          0
cpu0_DTLB AVERAGE iMISS LATENCY: 0 cycles
cpu0_DTLB AVERAGE dMISS LATENCY: 15.9781 cycles
cpu0_DTLB AVERAGE itMISS LATENCY: 0 cycles
cpu0_DTLB AVERAGE dtMISS LATENCY: 0 cycles
cpu0_DTLB PAGE CROSSINGS (TLB HIT):         0 
cpu0_DTLB PAGE CROSSINGS (TLB MISS):         0 
cpu0_DTLB AVERAGE MISS LATENCY: 15.9781 cycles
cpu0_STLB TOTAL       ACCESS:    1610577  HIT:    1383154  MISS:     227423  iACCESS:     393785  iHIT:     306459  iMISS:      87326  dACCESS:    1216792  dHIT:    1076695  dMISS:     140097  itACCESS:          0  itHIT:          0  itMISS:          0  dtACCESS:          0  dtHIT:          0  dtMISS:          0
cpu0_STLB LOAD         ACCESS:    1610577  HIT:    1383154  MISS:     227423  iACCESS:     393785  iHIT:     306459  iMISS:      87326  dACCESS:    1216792  dHIT:    1076695  dMISS:     140097  itACCESS:          0  itHIT:          0  itMISS:          0  dtACCESS:          0  dtHIT:          0  dtMISS:          0
cpu0_STLB RFO          ACCESS:          0  HIT:          0  MISS:          0  iACCESS:          0  iHIT:          0  iMISS:          0  dACCESS:          0  dHIT:          0  dMISS:          0  itACCESS:          0  itHIT:          0  itMISS:          0  dtACCESS:          0  dtHIT:          0  dtMISS:          0
cpu0_STLB PREFETCH     ACCESS:          0  HIT:          0  MISS:          0  iACCESS:          0  iHIT:          0  iMISS:          0  dACCESS:          0  dHIT:          0  dMISS:          0  itACCESS:          0  itHIT:          0  itMISS:          0  dtACCESS:          0  dtHIT:          0  dtMISS:          0
cpu0_STLB WRITE        ACCESS:          0  HIT:          0  MISS:          0  iACCESS:          0  iHIT:          0  iMISS:          0  dACCESS:          0  dHIT:          0  dMISS:          0  itACCESS:          0  itHIT:          0  itMISS:          0  dtACCESS:          0  dtHIT:          0  dtMISS:          0
cpu0_STLB TRANSLATION  ACCESS:          0  HIT:          0  MISS:          0  iACCESS:          0  iHIT:          0  iMISS:          0  dACCESS:          0  dHIT:          0  dMISS:          0  itACCESS:          0  itHIT:          0  itMISS:          0  dtACCESS:          0  dtHIT:          0  dtMISS:          0
cpu0_STLB PREFETCH  REQUESTED:          0  ISSUED:          0  CROSSED:          0  USEFUL:          0  USELESS:          0
cpu0_STLB AVERAGE iMISS LATENCY: 42.0111 cycles
cpu0_STLB AVERAGE dMISS LATENCY: 98.2388 cycles
cpu0_STLB AVERAGE itMISS LATENCY: 0 cycles
cpu0_STLB AVERAGE dtMISS LATENCY: 0 cycles
cpu0_STLB PAGE CROSSINGS (TLB HIT):         0 
cpu0_STLB PAGE CROSSINGS (TLB MISS):         0 
cpu0_STLB AVERAGE MISS LATENCY: 140.25 cycles
cpu0_L1D TOTAL       ACCESS:   42673081  HIT:   38531805  MISS:    4141276  iACCESS:          0  iHIT:          0  iMISS:          0  dACCESS:   42384682  dHIT:   38508077  dMISS:    3876605  itACCESS:      93148  itHIT:      12840  itMISS:      80308  dtACCESS:     195251  dtHIT:      10888  dtMISS:     184363
cpu0_L1D LOAD         ACCESS:   19378449  HIT:   17617138  MISS:    1761311  iACCESS:          0  iHIT:          0  iMISS:          0  dACCESS:   19378449  dHIT:   17617138  dMISS:    1761311  itACCESS:          0  itHIT:          0  itMISS:          0  dtACCESS:          0  dtHIT:          0  dtMISS:          0
cpu0_L1D RFO          ACCESS:          0  HIT:          0  MISS:          0  iACCESS:          0  iHIT:          0  iMISS:          0  dACCESS:          0  dHIT:          0  dMISS:          0  itACCESS:          0  itHIT:          0  itMISS:          0  dtACCESS:          0  dtHIT:          0  dtMISS:          0
cpu0_L1D PREFETCH     ACCESS:   12889108  HIT:   11215894  MISS:    1673214  iACCESS:          0  iHIT:          0  iMISS:          0  dACCESS:   12889108  dHIT:   11215894  dMISS:    1673214  itACCESS:          0  itHIT:          0  itMISS:          0  dtACCESS:          0  dtHIT:          0  dtMISS:          0
cpu0_L1D WRITE        ACCESS:   10117125  HIT:    9675045  MISS:     442080  iACCESS:          0  iHIT:          0  iMISS:          0  dACCESS:   10117125  dHIT:    9675045  dMISS:     442080  itACCESS:          0  itHIT:          0  itMISS:          0  dtACCESS:          0  dtHIT:          0  dtMISS:          0
cpu0_L1D TRANSLATION  ACCESS:     288399  HIT:      23728  MISS:     264671  iACCESS:          0  iHIT:          0  iMISS:          0  dACCESS:          0  dHIT:          0  dMISS:          0  itACCESS:      93148  itHIT:      12840  itMISS:      80308  dtACCESS:     195251  dtHIT:      10888  dtMISS:     184363
cpu0_L1D PREFETCH  REQUESTED:   19378449  ISSUED:   17340103  CROSSED:          0  USEFUL:     310303  USELESS:     702802
cpu0_L1D AVERAGE iMISS LATENCY: 0 cycles
cpu0_L1D AVERAGE dMISS LATENCY: 40.6275 cycles
cpu0_L1D AVERAGE itMISS LATENCY: 2.1255 cycles
cpu0_L1D AVERAGE dtMISS LATENCY: 4.91863 cycles
cpu0_L1D PAGE CROSSINGS (TLB HIT):         0 
cpu0_L1D PAGE CROSSINGS (TLB MISS):         0 
cpu0_L1D AVERAGE MISS LATENCY: 47.6716 cycles
cpu0_L2C TOTAL       ACCESS:    7309579  HIT:    2632925  MISS:    4676654  iACCESS:    3397137  iHIT:    1441490  iMISS:    1955647  dACCESS:    3655835  dHIT:    1100322  dMISS:    2555513  itACCESS:      80308  itHIT:      29920  itMISS:      50388  dtACCESS:     176299  dtHIT:      61193  dtMISS:     115106
cpu0_L2C LOAD         ACCESS:    1717461  HIT:     566038  MISS:    1151423  iACCESS:     770762  iHIT:     313241  iMISS:     457521  dACCESS:     946699  dHIT:     252797  dMISS:     693902  itACCESS:          0  itHIT:          0  itMISS:          0  dtACCESS:          0  dtHIT:          0  dtMISS:          0
cpu0_L2C RFO          ACCESS:     159816  HIT:      39950  MISS:     119866  iACCESS:          0  iHIT:          0  iMISS:          0  dACCESS:     159816  dHIT:      39950  dMISS:     119866  itACCESS:          0  itHIT:          0  itMISS:          0  dtACCESS:          0  dtHIT:          0  dtMISS:          0
cpu0_L2C PREFETCH     ACCESS:    4903752  HIT:    1757800  MISS:    3145952  iACCESS:    2626375  iHIT:    1128249  iMISS:    1498126  dACCESS:    2277377  dHIT:     629551  dMISS:    1647826  itACCESS:          0  itHIT:          0  itMISS:          0  dtACCESS:          0  dtHIT:          0  dtMISS:          0
cpu0_L2C WRITE        ACCESS:     271943  HIT:     178024  MISS:      93919  iACCESS:          0  iHIT:          0  iMISS:          0  dACCESS:     271943  dHIT:     178024  dMISS:      93919  itACCESS:          0  itHIT:          0  itMISS:          0  dtACCESS:          0  dtHIT:          0  dtMISS:          0
cpu0_L2C TRANSLATION  ACCESS:     256607  HIT:      91113  MISS:     165494  iACCESS:          0  iHIT:          0  iMISS:          0  dACCESS:          0  dHIT:          0  dMISS:          0  itACCESS:      80308  itHIT:      29920  itMISS:      50388  dtACCESS:     176299  dtHIT:      61193  dtMISS:     115106
cpu0_L2C PREFETCH  REQUESTED:    1536947  ISSUED:    1536941  CROSSED:          0  USEFUL:     406310  USELESS:     365272
cpu0_L2C AVERAGE iMISS LATENCY: 27.019 cycles
cpu0_L2C AVERAGE dMISS LATENCY: 46.2876 cycles
cpu0_L2C AVERAGE itMISS LATENCY: 1.71635 cycles
cpu0_L2C AVERAGE dtMISS LATENCY: 3.98989 cycles
cpu0_L2C PAGE CROSSINGS (TLB HIT):         0 
cpu0_L2C PAGE CROSSINGS (TLB MISS):         0 
cpu0_L2C AVERAGE MISS LATENCY: 79.0128 cycles
LLC TOTAL       ACCESS:    4576173  HIT:    2791110  MISS:    1785063  iACCESS:    1871831  iHIT:    1260137  iMISS:     611694  dACCESS:    2538848  dHIT:    1493567  dMISS:    1045281  itACCESS:      50388  itHIT:      10451  itMISS:      39937  dtACCESS:     115106  dtHIT:      26955  dtMISS:      88151
LLC LOAD         ACCESS:    1144701  HIT:     756917  MISS:     387784  iACCESS:     456165  iHIT:     329339  iMISS:     126826  dACCESS:     688536  dHIT:     427578  dMISS:     260958  itACCESS:          0  itHIT:          0  itMISS:          0  dtACCESS:          0  dtHIT:          0  dtMISS:          0
LLC RFO          ACCESS:     119855  HIT:      62081  MISS:      57774  iACCESS:          0  iHIT:          0  iMISS:          0  dACCESS:     119855  dHIT:      62081  dMISS:      57774  itACCESS:          0  itHIT:          0  itMISS:          0  dtACCESS:          0  dtHIT:          0  dtMISS:          0
LLC PREFETCH     ACCESS:    2958299  HIT:    1752424  MISS:    1205875  iACCESS:    1415666  iHIT:     930798  iMISS:     484868  dACCESS:    1542633  dHIT:     821626  dMISS:     721007  itACCESS:          0  itHIT:          0  itMISS:          0  dtACCESS:          0  dtHIT:          0  dtMISS:          0
LLC WRITE        ACCESS:     187824  HIT:     182282  MISS:       5542  iACCESS:          0  iHIT:          0  iMISS:          0  dACCESS:     187824  dHIT:     182282  dMISS:       5542  itACCESS:          0  itHIT:          0  itMISS:          0  dtACCESS:          0  dtHIT:          0  dtMISS:          0
LLC TRANSLATION  ACCESS:     165494  HIT:      37406  MISS:     128088  iACCESS:          0  iHIT:          0  iMISS:          0  dACCESS:          0  dHIT:          0  dMISS:          0  itACCESS:      50388  itHIT:      10451  itMISS:      39937  dtACCESS:     115106  dtHIT:      26955  dtMISS:      88151
LLC PREFETCH  REQUESTED:          0  ISSUED:          0  CROSSED:          0  USEFUL:          0  USELESS:          0
LLC AVERAGE iMISS LATENCY: 50.4184 cycles
LLC AVERAGE dMISS LATENCY: 96.5615 cycles
LLC AVERAGE itMISS LATENCY: 3.93979 cycles
LLC AVERAGE dtMISS LATENCY: 9.18395 cycles
LLC PAGE CROSSINGS (TLB HIT):         0 
LLC PAGE CROSSINGS (TLB MISS):         0 
LLC AVERAGE MISS LATENCY: 160.104 cycles

PageTableWalker TOTAL       ACCESS:     113895  
PageTableWalker AVERAGE LATENCY: 3.93343 cycles
PageTableWalker TOTAL LATENCY: 447998 cycles

DRAM Statistics
Channel 0
 RQ ROW_BUFFER_HIT:     502631
  ROW_BUFFER_MISS:    1263571
 AVG DBUS CONGESTED CYCLE:    3.63935
 WQ ROW_BUFFER_HIT:      38903
  ROW_BUFFER_MISS:      30782  FULL:          0

