last_page:0x200000000000000
VMEM_RES_CAP:0x100000
PAGE_SIZE:4096
LOG2_PAGE_SIZE:12
LOG2_PAGE_TABLE_SIZE:9
page_table_levels:5
WARNING: physical memory size is smaller than virtual memory size
FDiP enabled with aggresivity 16

*** ChampSim Multicore Out-of-Order Simulator ***

Warmup Instructions: 50000000
Simulation Instructions: 100000000
Number of CPUs: 1
Small page size: 4096
Large page size: 2097152

CPU 0 Bimodal branch predictor
Basic BTB sets: 1024 ways: 8 indirect buffer size: 4096 RAS size: 64
Instruction page size distrubution: 0
Loading instruction page size distribution from /home/bsc/bsc018186/scratch/itp_asplos25_AE/dump/srv283_ap.pdst
Data page size distrubution: 0
Loading data page size distribution from /home/bsc/bsc018186/scratch/itp_asplos25_AE/dump/srv283_ap.pdst
cpu0_L2C IP-based stride prefetcher
cpu0_L1D next line prefetcher
cpu0_L1I next line prefetcher
Off-chip DRAM Size: 4 GiB Channels: 1 Width: 64-bit Data Rate: 3200 MT/s
Heartbeat CPU 0 instructions: 10000001 cycles: 2500246 heartbeat IPC: 3.99961 cumulative IPC: 3.99961 (Simulation time: 0 hr 0 min 35 sec) 
Heartbeat CPU 0 instructions: 20000003 cycles: 5000255 heartbeat IPC: 3.99999 cumulative IPC: 3.9998 (Simulation time: 0 hr 1 min 12 sec) 
Heartbeat CPU 0 instructions: 30000000 cycles: 7500259 heartbeat IPC: 4 cumulative IPC: 3.99987 (Simulation time: 0 hr 1 min 49 sec) 
Heartbeat CPU 0 instructions: 40000000 cycles: 10000259 heartbeat IPC: 4 cumulative IPC: 3.9999 (Simulation time: 0 hr 2 min 27 sec) 
Heartbeat CPU 0 instructions: 50000000 cycles: 12500386 heartbeat IPC: 3.9998 cumulative IPC: 3.99988 (Simulation time: 0 hr 3 min 5 sec) 
Warmup finished CPU 0 instructions: 50000000 cycles: 12500387 cumulative IPC: 3.99988 (Simulation time: 0 hr 3 min 5 sec) 

Warmup complete CPU 0 instructions: 50000000 cycles: 12500387 (Simulation time: 0 hr 3 min 5 sec) 

Heartbeat CPU 0 instructions: 60000002 cycles: 25835889 heartbeat IPC: 0.749879 cumulative IPC: 0.749879 (Simulation time: 0 hr 4 min 3 sec) 
Heartbeat CPU 0 instructions: 70000002 cycles: 39754687 heartbeat IPC: 0.718453 cumulative IPC: 0.73383 (Simulation time: 0 hr 5 min 2 sec) 
Heartbeat CPU 0 instructions: 80000001 cycles: 53316175 heartbeat IPC: 0.737383 cumulative IPC: 0.73501 (Simulation time: 0 hr 6 min 1 sec) 
Heartbeat CPU 0 instructions: 90000001 cycles: 67005858 heartbeat IPC: 0.730478 cumulative IPC: 0.733872 (Simulation time: 0 hr 7 min 1 sec) 
Heartbeat CPU 0 instructions: 100000003 cycles: 81543875 heartbeat IPC: 0.687852 cumulative IPC: 0.724182 (Simulation time: 0 hr 8 min 1 sec) 
*** Reached end of trace: /gpfs/projects/bsc18/MN4/bsc18/romol/ChampSim/traces/qualcomm_srv/srv283_ap.champsimtrace.xz
Heartbeat CPU 0 instructions: 110000001 cycles: 94951520 heartbeat IPC: 0.745843 cumulative IPC: 0.727704 (Simulation time: 0 hr 9 min 0 sec) 
Heartbeat CPU 0 instructions: 120000003 cycles: 108969477 heartbeat IPC: 0.713371 cumulative IPC: 0.725622 (Simulation time: 0 hr 9 min 59 sec) 
Heartbeat CPU 0 instructions: 130000000 cycles: 122281815 heartbeat IPC: 0.751183 cumulative IPC: 0.728721 (Simulation time: 0 hr 10 min 58 sec) 
Heartbeat CPU 0 instructions: 140000001 cycles: 135997770 heartbeat IPC: 0.729078 cumulative IPC: 0.728761 (Simulation time: 0 hr 11 min 58 sec) 
Heartbeat CPU 0 instructions: 150000000 cycles: 150118810 heartbeat IPC: 0.708164 cumulative IPC: 0.726647 (Simulation time: 0 hr 12 min 57 sec) 
Simulation finished CPU 0 instructions: 100000000 cycles: 137618424 cumulative IPC: 0.726647 (Simulation time: 0 hr 12 min 57 sec) 

Simulation complete CPU 0 instructions: 100000000 cycles: 137618424 (Simulation time: 0 hr 12 min 57 sec) 


ChampSim completed all CPUs

Saving instructions large page distribution to /home/bsc/bsc018186/scratch/itp_asplos25_AE/dump/srv283_ap.pdst...
Saving data large page distribution to /home/bsc/bsc018186/scratch/itp_asplos25_AE/dump/srv283_ap.pdst...
=== Simulation ===
CPU 0 runs /gpfs/projects/bsc18/MN4/bsc18/romol/ChampSim/traces/qualcomm_srv/srv283_ap.champsimtrace.xz

Region of Interest Statistics

CPU 0 cumulative IPC: 0.726647 instructions: 100000000 cycles: 137618424
CPU 0 Branch Prediction Accuracy: 83.4309% MPKI: 29.756 Average ROB Occupancy at Mispredict: 12.1989
Branch type MPKI
BRANCH_DIRECT_JUMP: 0.953261
BRANCH_INDIRECT: 15.4563
BRANCH_CONDITIONAL: 9.70478
BRANCH_DIRECT_CALL: 1.81619
BRANCH_INDIRECT_CALL: 0.499771
BRANCH_RETURN: 1.32579

Instructions large pages: 0
Instructions small pages: 955
Large page distribution for instructions: 0%

Data large pages: 0
Data small pages: 8856
Large page distribution for data: 0%

cpu0_L1I TOTAL       ACCESS:   35066107  HIT:   26565490  MISS:    8500617  iACCESS:   35066107  iHIT:   26565490  iMISS:    8500617  dACCESS:          0  dHIT:          0  dMISS:          0  itACCESS:          0  itHIT:          0  itMISS:          0  dtACCESS:          0  dtHIT:          0  dtMISS:          0
cpu0_L1I LOAD         ACCESS:   10208430  HIT:    7827107  MISS:    2381323  iACCESS:   10208430  iHIT:    7827107  iMISS:    2381323  dACCESS:          0  dHIT:          0  dMISS:          0  itACCESS:          0  itHIT:          0  itMISS:          0  dtACCESS:          0  dtHIT:          0  dtMISS:          0
cpu0_L1I RFO          ACCESS:          0  HIT:          0  MISS:          0  iACCESS:          0  iHIT:          0  iMISS:          0  dACCESS:          0  dHIT:          0  dMISS:          0  itACCESS:          0  itHIT:          0  itMISS:          0  dtACCESS:          0  dtHIT:          0  dtMISS:          0
cpu0_L1I PREFETCH     ACCESS:   24857677  HIT:   18738383  MISS:    6119294  iACCESS:   24857677  iHIT:   18738383  iMISS:    6119294  dACCESS:          0  dHIT:          0  dMISS:          0  itACCESS:          0  itHIT:          0  itMISS:          0  dtACCESS:          0  dtHIT:          0  dtMISS:          0
cpu0_L1I WRITE        ACCESS:          0  HIT:          0  MISS:          0  iACCESS:          0  iHIT:          0  iMISS:          0  dACCESS:          0  dHIT:          0  dMISS:          0  itACCESS:          0  itHIT:          0  itMISS:          0  dtACCESS:          0  dtHIT:          0  dtMISS:          0
cpu0_L1I TRANSLATION  ACCESS:          0  HIT:          0  MISS:          0  iACCESS:          0  iHIT:          0  iMISS:          0  dACCESS:          0  dHIT:          0  dMISS:          0  itACCESS:          0  itHIT:          0  itMISS:          0  dtACCESS:          0  dtHIT:          0  dtMISS:          0
cpu0_L1I PREFETCH  REQUESTED:   27105466  ISSUED:   27103597  CROSSED:          0  USEFUL:    1932885  USELESS:     637132
cpu0_L1I AVERAGE iMISS LATENCY: 13.0634 cycles
cpu0_L1I AVERAGE dMISS LATENCY: 0 cycles
cpu0_L1I AVERAGE itMISS LATENCY: 0 cycles
cpu0_L1I AVERAGE dtMISS LATENCY: 0 cycles
cpu0_L1I PAGE CROSSINGS (TLB HIT):         0 
cpu0_L1I PAGE CROSSINGS (TLB MISS):         0 
cpu0_L1I AVERAGE MISS LATENCY: 13.0634 cycles
cpu0_ITLB TOTAL       ACCESS:   29035702  HIT:   27045288  MISS:    1990414  iACCESS:   29035702  iHIT:   27045288  iMISS:    1990414  dACCESS:          0  dHIT:          0  dMISS:          0  itACCESS:          0  itHIT:          0  itMISS:          0  dtACCESS:          0  dtHIT:          0  dtMISS:          0
cpu0_ITLB LOAD         ACCESS:   29035702  HIT:   27045288  MISS:    1990414  iACCESS:   29035702  iHIT:   27045288  iMISS:    1990414  dACCESS:          0  dHIT:          0  dMISS:          0  itACCESS:          0  itHIT:          0  itMISS:          0  dtACCESS:          0  dtHIT:          0  dtMISS:          0
cpu0_ITLB RFO          ACCESS:          0  HIT:          0  MISS:          0  iACCESS:          0  iHIT:          0  iMISS:          0  dACCESS:          0  dHIT:          0  dMISS:          0  itACCESS:          0  itHIT:          0  itMISS:          0  dtACCESS:          0  dtHIT:          0  dtMISS:          0
cpu0_ITLB PREFETCH     ACCESS:          0  HIT:          0  MISS:          0  iACCESS:          0  iHIT:          0  iMISS:          0  dACCESS:          0  dHIT:          0  dMISS:          0  itACCESS:          0  itHIT:          0  itMISS:          0  dtACCESS:          0  dtHIT:          0  dtMISS:          0
cpu0_ITLB WRITE        ACCESS:          0  HIT:          0  MISS:          0  iACCESS:          0  iHIT:          0  iMISS:          0  dACCESS:          0  dHIT:          0  dMISS:          0  itACCESS:          0  itHIT:          0  itMISS:          0  dtACCESS:          0  dtHIT:          0  dtMISS:          0
cpu0_ITLB TRANSLATION  ACCESS:          0  HIT:          0  MISS:          0  iACCESS:          0  iHIT:          0  iMISS:          0  dACCESS:          0  dHIT:          0  dMISS:          0  itACCESS:          0  itHIT:          0  itMISS:          0  dtACCESS:          0  dtHIT:          0  dtMISS:          0
cpu0_ITLB PREFETCH  REQUESTED:          0  ISSUED:          0  CROSSED:          0  USEFUL:     325245  USELESS:      63067
cpu0_ITLB AVERAGE iMISS LATENCY: 2.84487 cycles
cpu0_ITLB AVERAGE dMISS LATENCY: 0 cycles
cpu0_ITLB AVERAGE itMISS LATENCY: 0 cycles
cpu0_ITLB AVERAGE dtMISS LATENCY: 0 cycles
cpu0_ITLB PAGE CROSSINGS (TLB HIT):         0 
cpu0_ITLB PAGE CROSSINGS (TLB MISS):         0 
cpu0_ITLB AVERAGE MISS LATENCY: 2.84487 cycles
cpu0_DTLB TOTAL       ACCESS:   27703881  HIT:   25865747  MISS:    1838134  iACCESS:          0  iHIT:          0  iMISS:          0  dACCESS:   27703881  dHIT:   25865747  dMISS:    1838134  itACCESS:          0  itHIT:          0  itMISS:          0  dtACCESS:          0  dtHIT:          0  dtMISS:          0
cpu0_DTLB LOAD         ACCESS:   27703881  HIT:   25865747  MISS:    1838134  iACCESS:          0  iHIT:          0  iMISS:          0  dACCESS:   27703881  dHIT:   25865747  dMISS:    1838134  itACCESS:          0  itHIT:          0  itMISS:          0  dtACCESS:          0  dtHIT:          0  dtMISS:          0
cpu0_DTLB RFO          ACCESS:          0  HIT:          0  MISS:          0  iACCESS:          0  iHIT:          0  iMISS:          0  dACCESS:          0  dHIT:          0  dMISS:          0  itACCESS:          0  itHIT:          0  itMISS:          0  dtACCESS:          0  dtHIT:          0  dtMISS:          0
cpu0_DTLB PREFETCH     ACCESS:          0  HIT:          0  MISS:          0  iACCESS:          0  iHIT:          0  iMISS:          0  dACCESS:          0  dHIT:          0  dMISS:          0  itACCESS:          0  itHIT:          0  itMISS:          0  dtACCESS:          0  dtHIT:          0  dtMISS:          0
cpu0_DTLB WRITE        ACCESS:          0  HIT:          0  MISS:          0  iACCESS:          0  iHIT:          0  iMISS:          0  dACCESS:          0  dHIT:          0  dMISS:          0  itACCESS:          0  itHIT:          0  itMISS:          0  dtACCESS:          0  dtHIT:          0  dtMISS:          0
cpu0_DTLB TRANSLATION  ACCESS:          0  HIT:          0  MISS:          0  iACCESS:          0  iHIT:          0  iMISS:          0  dACCESS:          0  dHIT:          0  dMISS:          0  itACCESS:          0  itHIT:          0  itMISS:          0  dtACCESS:          0  dtHIT:          0  dtMISS:          0
cpu0_DTLB PREFETCH  REQUESTED:          0  ISSUED:          0  CROSSED:          0  USEFUL:          0  USELESS:          0
cpu0_DTLB AVERAGE iMISS LATENCY: 0 cycles
cpu0_DTLB AVERAGE dMISS LATENCY: 10.1882 cycles
cpu0_DTLB AVERAGE itMISS LATENCY: 0 cycles
cpu0_DTLB AVERAGE dtMISS LATENCY: 0 cycles
cpu0_DTLB PAGE CROSSINGS (TLB HIT):         0 
cpu0_DTLB PAGE CROSSINGS (TLB MISS):         0 
cpu0_DTLB AVERAGE MISS LATENCY: 10.1882 cycles
cpu0_STLB TOTAL       ACCESS:    1515108  HIT:    1354822  MISS:     160286  iACCESS:     388330  iHIT:     332004  iMISS:      56326  dACCESS:    1126778  dHIT:    1022818  dMISS:     103960  itACCESS:          0  itHIT:          0  itMISS:          0  dtACCESS:          0  dtHIT:          0  dtMISS:          0
cpu0_STLB LOAD         ACCESS:    1515108  HIT:    1354822  MISS:     160286  iACCESS:     388330  iHIT:     332004  iMISS:      56326  dACCESS:    1126778  dHIT:    1022818  dMISS:     103960  itACCESS:          0  itHIT:          0  itMISS:          0  dtACCESS:          0  dtHIT:          0  dtMISS:          0
cpu0_STLB RFO          ACCESS:          0  HIT:          0  MISS:          0  iACCESS:          0  iHIT:          0  iMISS:          0  dACCESS:          0  dHIT:          0  dMISS:          0  itACCESS:          0  itHIT:          0  itMISS:          0  dtACCESS:          0  dtHIT:          0  dtMISS:          0
cpu0_STLB PREFETCH     ACCESS:          0  HIT:          0  MISS:          0  iACCESS:          0  iHIT:          0  iMISS:          0  dACCESS:          0  dHIT:          0  dMISS:          0  itACCESS:          0  itHIT:          0  itMISS:          0  dtACCESS:          0  dtHIT:          0  dtMISS:          0
cpu0_STLB WRITE        ACCESS:          0  HIT:          0  MISS:          0  iACCESS:          0  iHIT:          0  iMISS:          0  dACCESS:          0  dHIT:          0  dMISS:          0  itACCESS:          0  itHIT:          0  itMISS:          0  dtACCESS:          0  dtHIT:          0  dtMISS:          0
cpu0_STLB TRANSLATION  ACCESS:          0  HIT:          0  MISS:          0  iACCESS:          0  iHIT:          0  iMISS:          0  dACCESS:          0  dHIT:          0  dMISS:          0  itACCESS:          0  itHIT:          0  itMISS:          0  dtACCESS:          0  dtHIT:          0  dtMISS:          0
cpu0_STLB PREFETCH  REQUESTED:          0  ISSUED:          0  CROSSED:          0  USEFUL:          0  USELESS:          0
cpu0_STLB AVERAGE iMISS LATENCY: 16.216 cycles
cpu0_STLB AVERAGE dMISS LATENCY: 60.7858 cycles
cpu0_STLB AVERAGE itMISS LATENCY: 0 cycles
cpu0_STLB AVERAGE dtMISS LATENCY: 0 cycles
cpu0_STLB PAGE CROSSINGS (TLB HIT):         0 
cpu0_STLB PAGE CROSSINGS (TLB MISS):         0 
cpu0_STLB AVERAGE MISS LATENCY: 77.0018 cycles
cpu0_L1D TOTAL       ACCESS:   41444853  HIT:   37952906  MISS:    3491947  iACCESS:          0  iHIT:          0  iMISS:          0  dACCESS:   41222796  dHIT:   37933634  dMISS:    3289162  itACCESS:      61089  itHIT:       9069  itMISS:      52020  dtACCESS:     160968  dtHIT:      10203  dtMISS:     150765
cpu0_L1D LOAD         ACCESS:   18960421  HIT:   17457404  MISS:    1503017  iACCESS:          0  iHIT:          0  iMISS:          0  dACCESS:   18960421  dHIT:   17457404  dMISS:    1503017  itACCESS:          0  itHIT:          0  itMISS:          0  dtACCESS:          0  dtHIT:          0  dtMISS:          0
cpu0_L1D RFO          ACCESS:          0  HIT:          0  MISS:          0  iACCESS:          0  iHIT:          0  iMISS:          0  dACCESS:          0  dHIT:          0  dMISS:          0  itACCESS:          0  itHIT:          0  itMISS:          0  dtACCESS:          0  dtHIT:          0  dtMISS:          0
cpu0_L1D PREFETCH     ACCESS:   12129540  HIT:   10765830  MISS:    1363710  iACCESS:          0  iHIT:          0  iMISS:          0  dACCESS:   12129540  dHIT:   10765830  dMISS:    1363710  itACCESS:          0  itHIT:          0  itMISS:          0  dtACCESS:          0  dtHIT:          0  dtMISS:          0
cpu0_L1D WRITE        ACCESS:   10132835  HIT:    9710400  MISS:     422435  iACCESS:          0  iHIT:          0  iMISS:          0  dACCESS:   10132835  dHIT:    9710400  dMISS:     422435  itACCESS:          0  itHIT:          0  itMISS:          0  dtACCESS:          0  dtHIT:          0  dtMISS:          0
cpu0_L1D TRANSLATION  ACCESS:     222057  HIT:      19272  MISS:     202785  iACCESS:          0  iHIT:          0  iMISS:          0  dACCESS:          0  dHIT:          0  dMISS:          0  itACCESS:      61089  itHIT:       9069  itMISS:      52020  dtACCESS:     160968  dtHIT:      10203  dtMISS:     150765
cpu0_L1D PREFETCH  REQUESTED:   18960421  ISSUED:   16926379  CROSSED:          0  USEFUL:     309471  USELESS:     703575
cpu0_L1D AVERAGE iMISS LATENCY: 0 cycles
cpu0_L1D AVERAGE dMISS LATENCY: 31.7585 cycles
cpu0_L1D AVERAGE itMISS LATENCY: 0.605975 cycles
cpu0_L1D AVERAGE dtMISS LATENCY: 2.15095 cycles
cpu0_L1D PAGE CROSSINGS (TLB HIT):         0 
cpu0_L1D PAGE CROSSINGS (TLB MISS):         0 
cpu0_L1D AVERAGE MISS LATENCY: 34.5154 cycles
cpu0_L2C TOTAL       ACCESS:    7001471  HIT:    1659260  MISS:    5342211  iACCESS:    3325644  iHIT:     838602  iMISS:    2487042  dACCESS:    3486879  dHIT:     706391  dMISS:    2780488  itACCESS:      52020  itHIT:      38495  itMISS:      13525  dtACCESS:     136928  dtHIT:      75772  dtMISS:      61156
cpu0_L2C LOAD         ACCESS:    1729266  HIT:     294713  MISS:    1434553  iACCESS:     795473  iHIT:     140873  iMISS:     654600  dACCESS:     933793  dHIT:     153840  dMISS:     779953  itACCESS:          0  itHIT:          0  itMISS:          0  dtACCESS:          0  dtHIT:          0  dtMISS:          0
cpu0_L2C RFO          ACCESS:     155986  HIT:      53058  MISS:     102928  iACCESS:          0  iHIT:          0  iMISS:          0  dACCESS:     155986  dHIT:      53058  dMISS:     102928  itACCESS:          0  itHIT:          0  itMISS:          0  dtACCESS:          0  dtHIT:          0  dtMISS:          0
cpu0_L2C PREFETCH     ACCESS:    4643728  HIT:    1055062  MISS:    3588666  iACCESS:    2530171  iHIT:     697729  iMISS:    1832442  dACCESS:    2113557  dHIT:     357333  dMISS:    1756224  itACCESS:          0  itHIT:          0  itMISS:          0  dtACCESS:          0  dtHIT:          0  dtMISS:          0
cpu0_L2C WRITE        ACCESS:     283543  HIT:     142160  MISS:     141383  iACCESS:          0  iHIT:          0  iMISS:          0  dACCESS:     283543  dHIT:     142160  dMISS:     141383  itACCESS:          0  itHIT:          0  itMISS:          0  dtACCESS:          0  dtHIT:          0  dtMISS:          0
cpu0_L2C TRANSLATION  ACCESS:     188948  HIT:     114267  MISS:      74681  iACCESS:          0  iHIT:          0  iMISS:          0  dACCESS:          0  dHIT:          0  dMISS:          0  itACCESS:      52020  itHIT:      38495  itMISS:      13525  dtACCESS:     136928  dtHIT:      75772  dtMISS:      61156
cpu0_L2C PREFETCH  REQUESTED:    1382824  ISSUED:    1382824  CROSSED:          0  USEFUL:     401183  USELESS:     384450
cpu0_L2C AVERAGE iMISS LATENCY: 14.8989 cycles
cpu0_L2C AVERAGE dMISS LATENCY: 24.0909 cycles
cpu0_L2C AVERAGE itMISS LATENCY: 0.305727 cycles
cpu0_L2C AVERAGE dtMISS LATENCY: 1.16228 cycles
cpu0_L2C PAGE CROSSINGS (TLB HIT):         0 
cpu0_L2C PAGE CROSSINGS (TLB MISS):         0 
cpu0_L2C AVERAGE MISS LATENCY: 40.4578 cycles
LLC TOTAL       ACCESS:    5215320  HIT:    4452388  MISS:     762932  iACCESS:    2426279  iHIT:    2202242  iMISS:     224037  dACCESS:    2714360  dHIT:    2211683  dMISS:     502677  itACCESS:      13525  itHIT:       5599  itMISS:       7926  dtACCESS:      61156  dtHIT:      32864  dtMISS:      28292
LLC LOAD         ACCESS:    1432088  HIT:    1266712  MISS:     165376  iACCESS:     652460  iHIT:     604834  iMISS:      47626  dACCESS:     779628  dHIT:     661878  dMISS:     117750  itACCESS:          0  itHIT:          0  itMISS:          0  dtACCESS:          0  dtHIT:          0  dtMISS:          0
LLC RFO          ACCESS:     102920  HIT:      69889  MISS:      33031  iACCESS:          0  iHIT:          0  iMISS:          0  dACCESS:     102920  dHIT:      69889  dMISS:      33031  itACCESS:          0  itHIT:          0  itMISS:          0  dtACCESS:          0  dtHIT:          0  dtMISS:          0
LLC PREFETCH     ACCESS:    3475677  HIT:    2955764  MISS:     519913  iACCESS:    1773819  iHIT:    1597408  iMISS:     176411  dACCESS:    1701858  dHIT:    1358356  dMISS:     343502  itACCESS:          0  itHIT:          0  itMISS:          0  dtACCESS:          0  dtHIT:          0  dtMISS:          0
LLC WRITE        ACCESS:     129954  HIT:     121560  MISS:       8394  iACCESS:          0  iHIT:          0  iMISS:          0  dACCESS:     129954  dHIT:     121560  dMISS:       8394  itACCESS:          0  itHIT:          0  itMISS:          0  dtACCESS:          0  dtHIT:          0  dtMISS:          0
LLC TRANSLATION  ACCESS:      74681  HIT:      38463  MISS:      36218  iACCESS:          0  iHIT:          0  iMISS:          0  dACCESS:          0  dHIT:          0  dMISS:          0  itACCESS:      13525  itHIT:       5599  itMISS:       7926  dtACCESS:      61156  dtHIT:      32864  dtMISS:      28292
LLC PREFETCH  REQUESTED:          0  ISSUED:          0  CROSSED:          0  USEFUL:          0  USELESS:          0
LLC AVERAGE iMISS LATENCY: 42.9311 cycles
LLC AVERAGE dMISS LATENCY: 103.368 cycles
LLC AVERAGE itMISS LATENCY: 1.79423 cycles
LLC AVERAGE dtMISS LATENCY: 6.57957 cycles
LLC PAGE CROSSINGS (TLB HIT):         0 
LLC PAGE CROSSINGS (TLB MISS):         0 
LLC AVERAGE MISS LATENCY: 154.673 cycles

PageTableWalker TOTAL       ACCESS:      82126  
PageTableWalker AVERAGE LATENCY: 4.37697 cycles
PageTableWalker TOTAL LATENCY: 359463 cycles

DRAM Statistics
Channel 0
 RQ ROW_BUFFER_HIT:     215924
  ROW_BUFFER_MISS:     538594
 AVG DBUS CONGESTED CYCLE:    3.62193
 WQ ROW_BUFFER_HIT:      13991
  ROW_BUFFER_MISS:      20128  FULL:          0

